REMARK  Name = ZINC35501721
REMARK  4 active torsions:
REMARK  status: ('A' for Active; 'I' for Inactive)
REMARK    1  A    between atoms: C_1  and  N_2
REMARK    2  A    between atoms: N_2  and  C_3
REMARK    3  A    between atoms: C_3  and  C_5
REMARK    4  A    between atoms: C_3  and  C_12
REMARK                            x       y       z     vdW  Elec       q    Type
REMARK                         _______ _______ _______ _____ _____    ______ ____
ROOT
ATOM      1  C   UNL     1       0.690  -0.478  -1.207  0.00  0.00    -0.010 C 
ENDROOT
BRANCH   1   2
ATOM      2  C   UNL     1       0.603  -1.981  -1.277  0.00  0.00    -0.055 A 
ATOM      3  C   UNL     1       0.742  -2.734  -0.126  0.00  0.00    +0.006 A 
ATOM      4  C   UNL     1       0.662  -4.114  -0.182  0.00  0.00    +0.048 A 
ATOM      5  C   UNL     1       0.444  -4.743  -1.395  0.00  0.00    +0.142 A 
ATOM      6  C   UNL     1       0.305  -3.983  -2.556  0.00  0.00    +0.076 A 
ATOM      7  C   UNL     1       0.380  -2.602  -2.492  0.00  0.00    +0.029 A 
ATOM      8  N   UNL     1       0.087  -4.634  -3.779  0.00  0.00    -0.280 N 
ATOM      9  C   UNL     1      -0.295  -5.929  -3.772  0.00  0.00    +0.255 C 
ATOM     10  O   UNL     1      -0.460  -6.521  -4.819  0.00  0.00    -0.272 OA
ATOM     11  C   UNL     1      -0.517  -6.636  -2.460  0.00  0.00    +0.325 C 
ATOM     12  O   UNL     1       0.362  -6.098  -1.469  0.00  0.00    -0.481 OA
ATOM     13  H   UNL     1       0.209  -4.160  -4.617  0.00  0.00    +0.155 HD
ENDBRANCH   1   2
BRANCH   1  14
ATOM     14  C   UNL     1       2.137  -0.060  -1.158  0.00  0.00    -0.057 A 
ATOM     15  C   UNL     1       2.836  -0.127   0.033  0.00  0.00    +0.003 A 
ATOM     16  C   UNL     1       4.163   0.257   0.078  0.00  0.00    +0.014 A 
ATOM     17  C   UNL     1       4.792   0.707  -1.068  0.00  0.00    +0.013 A 
ATOM     18  C   UNL     1       4.092   0.774  -2.259  0.00  0.00    +0.014 A 
ATOM     19  C   UNL     1       2.766   0.386  -2.305  0.00  0.00    +0.003 A 
ATOM     20  I   UNL     1       6.803   1.289  -1.000  0.00  0.00    -0.044 I 
ENDBRANCH   1  14
BRANCH   1  22
ATOM     21  C   UNL     1      -0.018   1.465   0.010  0.00  0.00    -0.099 C 
ATOM     22  N   UNL     1       0.002  -0.004   0.002  0.00  0.00    +0.384 N 
ATOM     23  H   UNL     1       0.490  -0.338   0.820  0.00  0.00    -0.085 HD
ATOM     24  H   UNL     1      -0.945  -0.353   0.009  0.00  0.00    -0.085 HD
ENDBRANCH   1  22
TORSDOF 3
