REMARK  Name = ZINC20882000
REMARK  8 active torsions:
REMARK  status: ('A' for Active; 'I' for Inactive)
REMARK    1  A    between atoms: C_1  and  C_2
REMARK    2  A    between atoms: C_2  and  C_3
REMARK    3  A    between atoms: C_2  and  C_4
REMARK    4  A    between atoms: C_7  and  C_10
REMARK    5  A    between atoms: C_15  and  C_20
REMARK    6  A    between atoms: C_23  and  N_26
REMARK    7  A    between atoms: N_26  and  C_27
REMARK    8  A    between atoms: N_26  and  C_28
REMARK                            x       y       z     vdW  Elec       q    Type
REMARK                         _______ _______ _______ _____ _____    ______ ____
ROOT
ATOM      1  C   UNL     1      -0.644   5.899  -1.233  0.00  0.00    +0.136 C 
ATOM      2  C   UNL     1      -2.103   5.545  -1.409  0.00  0.00    +0.036 C 
ATOM      3  C   UNL     1      -2.772   4.600  -0.731  0.00  0.00    +0.017 C 
ATOM      4  C   UNL     1      -4.237   4.328  -1.032  0.00  0.00    +0.059 C 
ATOM      5  C   UNL     1      -4.930   5.622  -1.454  0.00  0.00    +0.032 C 
ATOM      6  C   UNL     1      -4.218   6.146  -2.707  0.00  0.00    +0.088 C 
ATOM      7  C   UNL     1      -2.763   6.322  -2.391  0.00  0.00    +0.163 C 
ATOM      8  O   UNL     1      -2.128   7.161  -2.999  0.00  0.00    -0.292 OA
ATOM      9  N   UNL     1      -2.243   3.819   0.245  0.00  0.00    -0.316 N 
ATOM     10  C   UNL     1      -1.026   3.154   0.155  0.00  0.00    +0.052 A 
ATOM     11  C   UNL     1      -0.934   1.773   0.186  0.00  0.00    +0.025 A 
ATOM     12  C   UNL     1       0.316   1.176   0.172  0.00  0.00    +0.002 A 
ATOM     13  C   UNL     1       1.458   1.952   0.109  0.00  0.00    +0.002 A 
ATOM     14  C   UNL     1       1.366   3.332   0.045  0.00  0.00    +0.025 A 
ATOM     15  C   UNL     1       0.118   3.933   0.061  0.00  0.00    +0.049 A 
ATOM     16  N   UNL     1      -0.025   5.313  -0.063  0.00  0.00    -0.331 N 
ATOM     17  H   UNL     1      -2.786   3.678   1.191  0.00  0.00    +0.152 HD
ATOM     18  H   UNL     1       0.342   5.960   0.748  0.00  0.00    +0.147 HD
ENDROOT
BRANCH   1  22
ATOM     19  C   UNL     1       1.487   4.587  -4.694  0.00  0.00    -0.045 A 
ATOM     20  C   UNL     1       0.894   3.662  -3.857  0.00  0.00    +0.004 A 
ATOM     21  C   UNL     1       0.204   4.086  -2.736  0.00  0.00    +0.006 A 
ATOM     22  C   UNL     1       0.108   5.436  -2.454  0.00  0.00    -0.023 A 
ATOM     23  C   UNL     1       0.697   6.362  -3.295  0.00  0.00    +0.006 A 
ATOM     24  C   UNL     1       1.391   5.937  -4.413  0.00  0.00    +0.004 A 
BRANCH  19  26
ATOM     25  C   UNL     1       1.594   4.719  -7.168  0.00  0.00    +0.012 C 
ATOM     26  C   UNL     1       2.240   4.125  -5.915  0.00  0.00    +0.013 C 
ATOM     27  C   UNL     1       3.695   4.588  -5.823  0.00  0.00    +0.012 C 
ENDBRANCH  19  26
ENDBRANCH   1  22
BRANCH   5  28
ATOM     28  C   UNL     1      -6.378   5.347  -1.768  0.00  0.00    -0.043 A 
ATOM     29  C   UNL     1      -6.710   4.431  -2.749  0.00  0.00    +0.006 A 
ATOM     30  C   UNL     1      -8.036   4.173  -3.035  0.00  0.00    +0.023 A 
ATOM     31  C   UNL     1      -9.037   4.843  -2.343  0.00  0.00    +0.029 A 
ATOM     32  C   UNL     1      -8.701   5.766  -1.361  0.00  0.00    +0.023 A 
ATOM     33  C   UNL     1      -7.373   6.016  -1.077  0.00  0.00    +0.006 A 
BRANCH  31  34
ATOM     34  N   UNL     1     -10.380   4.587  -2.633  0.00  0.00    -0.336 N 
ATOM     35  C   UNL     1     -11.434   5.294  -1.902  0.00  0.00    +0.129 C 
ATOM     36  C   UNL     1     -10.733   3.613  -3.668  0.00  0.00    +0.129 C 
ENDBRANCH  31  34
ENDBRANCH   5  28
TORSDOF 4
