REMARK  Name = ZINC28057184
REMARK  2 active torsions:
REMARK  status: ('A' for Active; 'I' for Inactive)
REMARK    1  A    between atoms: C_5  and  C_7
REMARK    2  A    between atoms: C_18  and  C_20
REMARK                            x       y       z     vdW  Elec       q    Type
REMARK                         _______ _______ _______ _____ _____    ______ ____
ROOT
ATOM      1  C   UNL     1      -2.415  -2.800  -0.306  0.00  0.00    +0.177 C 
ATOM      2  C   UNL     1      -1.139  -1.995  -0.311  0.00  0.00    +0.026 C 
ATOM      3  C   UNL     1      -1.104  -0.709   0.043  0.00  0.00    +0.050 C 
ATOM      4  C   UNL     1       0.203  -0.009   0.029  0.00  0.00    +0.038 A 
ATOM      5  C   UNL     1       0.285   1.378   0.050  0.00  0.00    +0.013 A 
ATOM      6  C   UNL     1       1.525   1.987   0.038  0.00  0.00    +0.001 A 
ATOM      7  C   UNL     1       2.679   1.223   0.004  0.00  0.00    +0.004 A 
ATOM      8  C   UNL     1       2.606  -0.158  -0.017  0.00  0.00    +0.046 A 
ATOM      9  C   UNL     1       1.372  -0.781  -0.005  0.00  0.00    +0.131 A 
ATOM     10  O   UNL     1       1.258  -2.133  -0.027  0.00  0.00    -0.479 OA
ATOM     11  C   UNL     1       0.143  -2.679  -0.731  0.00  0.00    +0.234 C 
ATOM     12  N   UNL     1      -2.254  -0.005   0.418  0.00  0.00    -0.282 N 
ATOM     13  C   UNL     1      -3.477  -0.604   0.165  0.00  0.00    +0.240 A 
ATOM     14  N   UNL     1      -3.564  -1.915  -0.182  0.00  0.00    -0.201 N 
ATOM     15  N   UNL     1      -4.924  -2.160  -0.368  0.00  0.00    -0.042 NA
ATOM     16  N   UNL     1      -5.536  -1.046  -0.130  0.00  0.00    -0.021 NA
ATOM     17  N   UNL     1      -4.688  -0.127   0.186  0.00  0.00    -0.092 NA
ATOM     18  H   UNL     1      -2.164   0.982   0.894  0.00  0.00    +0.155 HD
ENDROOT
BRANCH   1  23
ATOM     19  C   UNL     1      -2.280  -4.157   3.215  0.00  0.00    +0.001 A 
ATOM     20  C   UNL     1      -2.362  -5.519   2.990  0.00  0.00    +0.003 A 
ATOM     21  C   UNL     1      -2.461  -6.002   1.700  0.00  0.00    +0.039 A 
ATOM     22  C   UNL     1      -2.483  -5.122   0.631  0.00  0.00    +0.129 A 
ATOM     23  C   UNL     1      -2.396  -3.759   0.856  0.00  0.00    +0.017 A 
ATOM     24  C   UNL     1      -2.297  -3.278   2.148  0.00  0.00    +0.009 A 
ATOM     25  F   UNL     1      -2.585  -5.593  -0.631  0.00  0.00    -0.205 F 
ENDBRANCH   1  23
BRANCH  11  26
ATOM     26  C   UNL     1       0.347  -2.487  -2.212  0.00  0.00    -0.000 A 
ATOM     27  C   UNL     1       0.775  -1.265  -2.697  0.00  0.00    +0.008 A 
ATOM     28  C   UNL     1       0.968  -1.089  -4.054  0.00  0.00    +0.003 A 
ATOM     29  C   UNL     1       0.722  -2.130  -4.929  0.00  0.00    +0.038 A 
ATOM     30  C   UNL     1       0.288  -3.352  -4.444  0.00  0.00    +0.124 A 
ATOM     31  C   UNL     1       0.101  -3.530  -3.084  0.00  0.00    +0.046 A 
ATOM     32  F   UNL     1       0.048  -4.371  -5.298  0.00  0.00    -0.205 F 
ENDBRANCH  11  26
TORSDOF 2
