REMARK  Name = ZINC63503199
REMARK  10 active torsions:
REMARK  status: ('A' for Active; 'I' for Inactive)
REMARK    1  A    between atoms: C_1  and  C_2
REMARK    2  A    between atoms: C_6  and  N_9
REMARK    3  A    between atoms: C_7  and  C_8
REMARK    4  A    between atoms: C_10  and  C_12
REMARK    5  A    between atoms: C_12  and  C_14
REMARK    6  A    between atoms: C_12  and  N_24
REMARK    7  A    between atoms: C_14  and  C_15
REMARK    8  A    between atoms: C_25  and  O_27
REMARK    9  A    between atoms: O_27  and  C_28
REMARK   10  A    between atoms: C_28  and  C_29
REMARK                            x       y       z     vdW  Elec       q    Type
REMARK                         _______ _______ _______ _____ _____    ______ ____
ROOT
ATOM      1  C   UNL     1      -0.129  -4.898   3.686  0.00  0.00    +0.166 C 
ENDROOT
BRANCH   1   3
ATOM      2  N   UNL     1       0.052  -2.797   2.393  0.00  0.00    -0.284 N 
ATOM      3  C   UNL     1      -0.031  -4.143   2.385  0.00  0.00    +0.238 C 
ATOM      4  O   UNL     1      -0.028  -4.745   1.333  0.00  0.00    -0.273 OA
ATOM      5  H   UNL     1       0.130  -2.321   3.234  0.00  0.00    +0.155 HD
BRANCH   2  11
ATOM      6  C   UNL     1       1.206   1.236  -0.172  0.00  0.00    +0.044 C 
ATOM      7  C   UNL     1       0.578  -0.131  -0.084  0.00  0.00    -0.046 A 
ATOM      8  C   UNL     1      -0.027  -0.686  -1.198  0.00  0.00    +0.004 A 
ATOM      9  C   UNL     1      -0.604  -1.940  -1.122  0.00  0.00    +0.002 A 
ATOM     10  C   UNL     1      -0.580  -2.642   0.067  0.00  0.00    +0.023 A 
ATOM     11  C   UNL     1       0.026  -2.088   1.187  0.00  0.00    +0.037 A 
ATOM     12  C   UNL     1       0.610  -0.831   1.106  0.00  0.00    -0.026 A 
ATOM     13  C   UNL     1       1.274  -0.228   2.317  0.00  0.00    +0.046 C 
ENDBRANCH   2  11
ENDBRANCH   1   3
BRANCH   1  14
ATOM     14  N   UNL     1      -0.207  -6.335   3.410  0.00  0.00    -0.269 N 
ATOM     15  C   UNL     1      -0.788  -7.161   4.303  0.00  0.00    +0.401 C 
ATOM     16  O   UNL     1      -1.246  -6.715   5.336  0.00  0.00    -0.226 OA
ATOM     17  H   UNL     1       0.158  -6.692   2.586  0.00  0.00    +0.153 HD
BRANCH  15  18
ATOM     18  O   UNL     1      -0.860  -8.482   4.050  0.00  0.00    -0.446 OA
BRANCH  18  19
ATOM     19  C   UNL     1      -1.489  -9.298   5.040  0.00  0.00    +0.269 C 
BRANCH  19  20
ATOM     20  C   UNL     1      -1.477 -10.736   4.587  0.00  0.00    -0.010 A 
ATOM     21  C   UNL     1      -2.526 -11.232   3.836  0.00  0.00    +0.007 A 
ATOM     22  C   UNL     1      -2.516 -12.550   3.421  0.00  0.00    +0.000 A 
ATOM     23  C   UNL     1      -1.456 -13.372   3.756  0.00  0.00    +0.000 A 
ATOM     24  C   UNL     1      -0.406 -12.876   4.506  0.00  0.00    +0.000 A 
ATOM     25  C   UNL     1      -0.415 -11.556   4.918  0.00  0.00    +0.007 A 
ENDBRANCH  19  20
ENDBRANCH  18  19
ENDBRANCH  15  18
ENDBRANCH   1  14
BRANCH   1  26
ATOM     26  C   UNL     1       1.109  -4.609   4.537  0.00  0.00    +0.065 C 
BRANCH  26  27
ATOM     27  C   UNL     1       0.956  -5.266   5.885  0.00  0.00    -0.039 C 
ATOM     28  C   UNL     1       1.432  -6.475   6.260  0.00  0.00    -0.001 A 
ATOM     29  C   UNL     1       2.204  -7.503   5.551  0.00  0.00    +0.010 A 
ATOM     30  C   UNL     1       2.541  -8.637   6.205  0.00  0.00    +0.001 A 
ATOM     31  C   UNL     1       2.172  -8.857   7.539  0.00  0.00    +0.002 A 
ATOM     32  C   UNL     1       1.462  -7.959   8.256  0.00  0.00    +0.026 A 
ATOM     33  C   UNL     1       1.055  -6.730   7.668  0.00  0.00    +0.043 A 
ATOM     34  N   UNL     1       0.372  -5.718   8.146  0.00  0.00    -0.380 N 
ATOM     35  C   UNL     1       0.244  -4.702   7.095  0.00  0.00    +0.144 C 
ATOM     36  H   UNL     1       0.015  -5.650   9.045  0.00  0.00    +0.160 HD
ENDBRANCH  26  27
ENDBRANCH   1  26
TORSDOF 8
