REMARK  Name = ZINC10090680
REMARK  8 active torsions:
REMARK  status: ('A' for Active; 'I' for Inactive)
REMARK    1  A    between atoms: C_1  and  C_2
REMARK    2  A    between atoms: C_2  and  C_3
REMARK    3  A    between atoms: C_3  and  N_56
REMARK    4  A    between atoms: C_4  and  C_5
REMARK    5  A    between atoms: C_4  and  N_56
REMARK    6  A    between atoms: C_16  and  C_17
REMARK    7  A    between atoms: C_16  and  N_56
REMARK    8  A    between atoms: N_19  and  C_20
REMARK                            x       y       z     vdW  Elec       q    Type
REMARK                         _______ _______ _______ _____ _____    ______ ____
ROOT
ATOM      1  C   UNL     1      -2.481   6.808  -2.532  0.00  0.00    +0.019 C 
ENDROOT
BRANCH   1   2
ATOM      2  C   UNL     1      -2.027   5.988  -1.352  0.00  0.00    +0.197 C 
ATOM      3  O   UNL     1      -2.648   6.028  -0.310  0.00  0.00    -0.278 OA
ATOM      4  N   UNL     1      -0.932   5.208  -1.454  0.00  0.00    -0.306 N 
ATOM      5  H   UNL     1      -0.436   5.176  -2.287  0.00  0.00    +0.150 HD
BRANCH   4   6
ATOM      6  C   UNL     1      -0.491   4.411  -0.307  0.00  0.00    +0.135 C 
ATOM      7  C   UNL     1      -1.173   3.064  -0.318  0.00  0.00    -0.015 A 
ATOM      8  C   UNL     1      -2.501   2.699  -0.252  0.00  0.00    +0.006 A 
ATOM      9  C   UNL     1      -2.853   1.361  -0.287  0.00  0.00    +0.000 A 
ATOM     10  C   UNL     1      -1.874   0.388  -0.378  0.00  0.00    +0.001 A 
ATOM     11  C   UNL     1      -0.544   0.745  -0.445  0.00  0.00    +0.009 A 
ATOM     12  C   UNL     1      -0.181   2.093  -0.415  0.00  0.00    -0.012 A 
ATOM     13  C   UNL     1       1.149   2.748  -0.471  0.00  0.00    -0.012 A 
ATOM     14  C   UNL     1       0.988   4.130  -0.408  0.00  0.00    -0.015 A 
ATOM     15  C   UNL     1       2.088   4.961  -0.443  0.00  0.00    +0.006 A 
ATOM     16  C   UNL     1       3.359   4.423  -0.541  0.00  0.00    +0.000 A 
ATOM     17  C   UNL     1       3.529   3.052  -0.604  0.00  0.00    +0.001 A 
ATOM     18  C   UNL     1       2.435   2.213  -0.569  0.00  0.00    +0.009 A 
ENDBRANCH   4   6
ENDBRANCH   1   2
BRANCH   1  19
ATOM     19  N   UNL     1      -3.706   7.545  -2.157  0.00  0.00    +0.390 N 
ATOM     20  H   UNL     1      -4.386   6.884  -1.765  0.00  0.00    -0.081 HD
BRANCH  19  21
ATOM     21  C   UNL     1      -3.388   8.568  -1.138  0.00  0.00    -0.078 C 
BRANCH  21  23
ATOM     22  C   UNL     1      -2.021  10.587  -0.593  0.00  0.00    +0.002 C 
ATOM     23  C   UNL     1      -2.319   9.531  -1.659  0.00  0.00    -0.022 C 
ENDBRANCH  21  23
ENDBRANCH  19  21
BRANCH  19  24
ATOM     24  C   UNL     1      -4.294   8.188  -3.351  0.00  0.00    -0.003 C 
BRANCH  24  25
ATOM     25  C   UNL     1      -5.702   8.617  -3.026  0.00  0.00    +0.094 A 
ATOM     26  N   UNL     1      -6.399   9.312  -3.963  0.00  0.00    -0.311 N 
ATOM     27  H   UNL     1      -5.992   9.523  -4.818  0.00  0.00    +0.170 HD
ATOM     28  C   UNL     1      -7.666   9.706  -3.692  0.00  0.00    +0.266 A 
ATOM     29  O   UNL     1      -8.317  10.332  -4.512  0.00  0.00    -0.267 OA
ATOM     30  C   UNL     1      -8.205   9.377  -2.448  0.00  0.00    +0.102 A 
ATOM     31  C   UNL     1      -7.463   8.657  -1.495  0.00  0.00    +0.085 A 
ATOM     32  N   UNL     1      -6.190   8.300  -1.869  0.00  0.00    -0.235 NA
ATOM     33  C   UNL     1      -8.124   8.394  -0.288  0.00  0.00    +0.036 A 
ATOM     34  C   UNL     1      -9.390   8.825  -0.099  0.00  0.00    +0.048 A 
ATOM     35  S   UNL     1      -9.758   9.651  -1.638  0.00  0.00    -0.090 S 
ENDBRANCH  24  25
ENDBRANCH  19  24
ENDBRANCH   1  19
TORSDOF 7
