REMARK  Name = ZINC09354471
REMARK  17 active torsions:
REMARK  status: ('A' for Active; 'I' for Inactive)
REMARK    1  A    between atoms: C_1  and  C_2
REMARK    2  A    between atoms: C_2  and  C_3
REMARK    3  A    between atoms: C_3  and  C_4
REMARK    4  A    between atoms: C_4  and  O_5
REMARK    5  A    between atoms: O_5  and  C_6
REMARK    6  A    between atoms: C_9  and  C_12
REMARK    7  A    between atoms: C_15  and  C_16
REMARK    8  A    between atoms: C_15  and  O_27
REMARK    9  A    between atoms: C_23  and  C_26
REMARK   10  A    between atoms: N_32  and  C_33
REMARK   11  A    between atoms: C_33  and  C_34
REMARK   12  A    between atoms: C_34  and  C_35
REMARK   13  A    between atoms: C_35  and  N_78
REMARK   14  A    between atoms: C_36  and  C_37
REMARK   15  A    between atoms: C_36  and  N_78
REMARK   16  A    between atoms: C_38  and  C_39
REMARK   17  A    between atoms: C_38  and  N_78
REMARK                            x       y       z     vdW  Elec       q    Type
REMARK                         _______ _______ _______ _____ _____    ______ ____
ROOT
ATOM      1  C   UNL     1      -2.638  -0.024  -0.262  0.00  0.00    +0.144 C 
ATOM      2  C   UNL     1      -1.203  -0.478  -0.395  0.00  0.00    +0.071 C 
ATOM      3  C   UNL     1      -0.069   0.283  -0.183  0.00  0.00    +0.133 C 
ATOM      4  C   UNL     1      -1.254  -1.829  -0.769  0.00  0.00    +0.249 C 
ATOM      5  O   UNL     1      -0.293  -2.551  -0.969  0.00  0.00    -0.282 OA
ATOM      6  C   UNL     1      -2.683  -2.226  -0.880  0.00  0.00    +0.288 C 
ATOM      7  O   UNL     1      -3.075  -3.333  -1.187  0.00  0.00    -0.266 OA
ATOM      8  N   UNL     1      -3.476  -1.181  -0.590  0.00  0.00    -0.284 N 
ENDROOT
BRANCH   3   9
ATOM      9  C   UNL     1       1.259  -0.347  -0.233  0.00  0.00    +0.017 A 
ATOM     10  C   UNL     1       1.508  -1.528   0.477  0.00  0.00    +0.015 A 
ATOM     11  C   UNL     1       2.746  -2.120   0.422  0.00  0.00    +0.046 A 
ATOM     12  C   UNL     1       3.772  -1.545  -0.332  0.00  0.00    +0.124 A 
ATOM     13  C   UNL     1       3.524  -0.364  -1.026  0.00  0.00    -0.002 A 
ATOM     14  C   UNL     1       2.288   0.232  -0.987  0.00  0.00    +0.019 A 
ATOM     15  C   UNL     1       4.816   0.022  -1.721  0.00  0.00    +0.083 C 
ATOM     16  C   UNL     1       5.850  -0.865  -0.988  0.00  0.00    +0.175 C 
ATOM     17  O   UNL     1       5.051  -1.966  -0.522  0.00  0.00    -0.488 OA
ATOM     18  C   UNL     1       6.473  -0.112   0.189  0.00  0.00    +0.052 C 
ENDBRANCH   3   9
BRANCH   1  22
ATOM     19  C   UNL     1      -3.402   1.261   3.742  0.00  0.00    +0.121 A 
ATOM     20  C   UNL     1      -3.184   2.197   2.741  0.00  0.00    +0.046 A 
ATOM     21  C   UNL     1      -2.938   1.779   1.448  0.00  0.00    +0.009 A 
ATOM     22  C   UNL     1      -2.908   0.429   1.150  0.00  0.00    -0.022 A 
ATOM     23  C   UNL     1      -3.130  -0.506   2.144  0.00  0.00    +0.009 A 
ATOM     24  C   UNL     1      -3.372  -0.093   3.440  0.00  0.00    +0.046 A 
BRANCH  19  25
ATOM     25  O   UNL     1      -3.645   1.669   5.015  0.00  0.00    -0.492 OA
BRANCH  25  26
ATOM     26  C   UNL     1      -3.861   0.650   5.993  0.00  0.00    +0.229 C 
BRANCH  26  27
ATOM     27  C   UNL     1      -4.117   1.297   7.356  0.00  0.00    +0.041 C 
BRANCH  27  29
ATOM     28  C   UNL     1      -4.603   0.853   9.766  0.00  0.00    +0.004 C 
ATOM     29  C   UNL     1      -4.348   0.206   8.403  0.00  0.00    -0.000 C 
ENDBRANCH  27  29
ENDBRANCH  26  27
ENDBRANCH  25  26
ENDBRANCH  19  25
ENDBRANCH   1  22
BRANCH   3  30
ATOM     30  O   UNL     1      -0.180   1.605   0.068  0.00  0.00    -0.506 OA
ATOM     31  H   UNL     1       0.731   1.998   0.195  0.00  0.00    +0.292 HD
ENDBRANCH   3  30
BRANCH   8  32
ATOM     32  C   UNL     1      -4.941  -1.197  -0.594  0.00  0.00    +0.107 C 
BRANCH  32  33
ATOM     33  C   UNL     1      -5.451  -1.589   0.794  0.00  0.00    +0.000 C 
BRANCH  33  34
ATOM     34  C   UNL     1      -6.981  -1.606   0.789  0.00  0.00    -0.077 C 
BRANCH  34  35
ATOM     35  N   UNL     1      -7.457  -2.006   2.130  0.00  0.00    +0.379 N 
ATOM     36  H   UNL     1      -6.986  -2.876   2.405  0.00  0.00    -0.082 HD
BRANCH  35  37
ATOM     37  C   UNL     1      -7.136  -0.953   3.116  0.00  0.00    -0.082 C 
ATOM     38  C   UNL     1      -7.856   0.349   2.764  0.00  0.00    -0.017 C 
ENDBRANCH  35  37
BRANCH  35  39
ATOM     39  C   UNL     1      -8.916  -2.240   2.098  0.00  0.00    -0.082 C 
ATOM     40  C   UNL     1      -9.323  -2.984   3.372  0.00  0.00    -0.017 C 
ENDBRANCH  35  39
ENDBRANCH  34  35
ENDBRANCH  33  34
ENDBRANCH  32  33
ENDBRANCH   8  32
TORSDOF 13
