REMARK  Name = ZINC04953948
REMARK  5 active torsions:
REMARK  status: ('A' for Active; 'I' for Inactive)
REMARK    1  A    between atoms: C_4  and  C_7
REMARK    2  A    between atoms: C_10  and  C_13
REMARK    3  A    between atoms: C_15  and  C_19
REMARK    4  A    between atoms: N_21  and  N_22
REMARK    5  A    between atoms: C_23  and  C_24
REMARK                            x       y       z     vdW  Elec       q    Type
REMARK                         _______ _______ _______ _____ _____    ______ ____
ROOT
ATOM      1  C   UNL     1      -1.312   2.114   0.020  0.00  0.00    +0.093 A 
ATOM      2  C   UNL     1      -1.483   3.511   0.028  0.00  0.00    +0.062 A 
ATOM      3  C   UNL     1      -2.851   3.710   0.036  0.00  0.00    +0.122 A 
ATOM      4  N   UNL     1      -3.423   2.469   0.032  0.00  0.00    -0.272 N 
ATOM      5  H   UNL     1      -4.407   2.290   0.039  0.00  0.00    +0.189 HD
ATOM      6  N   UNL     1      -2.509   1.567   0.017  0.00  0.00    -0.173 NA
ENDROOT
BRANCH   1  10
ATOM      7  C   UNL     1       2.402   0.037  -0.020  0.00  0.00    -0.018 A 
ATOM      8  C   UNL     1       1.204  -0.677  -0.013  0.00  0.00    +0.009 A 
ATOM      9  C   UNL     1       0.002  -0.004   0.002  0.00  0.00    +0.010 A 
ATOM     10  C   UNL     1      -0.017   1.390   0.010  0.00  0.00    +0.002 A 
ATOM     11  C   UNL     1       1.181   2.104   0.002  0.00  0.00    +0.010 A 
ATOM     12  C   UNL     1       2.383   1.431  -0.013  0.00  0.00    +0.009 A 
BRANCH   7  16
ATOM     13  C   UNL     1       6.113  -2.038  -0.063  0.00  0.00    +0.000 A 
ATOM     14  C   UNL     1       6.097  -0.655  -0.057  0.00  0.00    +0.001 A 
ATOM     15  C   UNL     1       4.896   0.024  -0.043  0.00  0.00    +0.008 A 
ATOM     16  C   UNL     1       3.697  -0.687  -0.035  0.00  0.00    -0.018 A 
ATOM     17  C   UNL     1       3.719  -2.081  -0.036  0.00  0.00    +0.008 A 
ATOM     18  C   UNL     1       4.926  -2.749  -0.055  0.00  0.00    +0.001 A 
ENDBRANCH   7  16
ENDBRANCH   1  10
BRANCH   3  19
ATOM     19  C   UNL     1      -3.552   5.003   0.046  0.00  0.00    +0.281 C 
ATOM     20  O   UNL     1      -2.916   6.040   0.049  0.00  0.00    -0.267 OA
ATOM     21  N   UNL     1      -4.899   5.039   0.053  0.00  0.00    -0.202 N 
ATOM     22  H   UNL     1      -5.407   4.213   0.051  0.00  0.00    +0.178 HD
BRANCH  21  23
ATOM     23  N   UNL     1      -5.567   6.271   0.062  0.00  0.00    -0.187 NA
ATOM     24  C   UNL     1      -6.865   6.306   0.069  0.00  0.00    +0.138 C 
BRANCH  24  25
ATOM     25  C   UNL     1      -7.568   7.602   0.079  0.00  0.00    -0.003 A 
ATOM     26  C   UNL     1      -6.855   8.808   0.088  0.00  0.00    +0.029 A 
ATOM     27  C   UNL     1      -7.553   9.997   0.093  0.00  0.00    +0.111 A 
ATOM     28  N   UNL     1      -8.873  10.008   0.100  0.00  0.00    -0.263 NA
ATOM     29  C   UNL     1      -9.583   8.896   0.096  0.00  0.00    +0.111 A 
ATOM     30  C   UNL     1      -8.968   7.662   0.086  0.00  0.00    +0.029 A 
ENDBRANCH  24  25
ENDBRANCH  21  23
ENDBRANCH   3  19
TORSDOF 5
