REMARK  Name = ZINC43803849
REMARK  9 active torsions:
REMARK  status: ('A' for Active; 'I' for Inactive)
REMARK    1  A    between atoms: C_1  and  C_2
REMARK    2  A    between atoms: C_2  and  C_3
REMARK    3  A    between atoms: C_3  and  C_4
REMARK    4  A    between atoms: C_3  and  C_5
REMARK    5  A    between atoms: C_3  and  N_6
REMARK    6  A    between atoms: C_7  and  C_9
REMARK    7  A    between atoms: C_9  and  N_10
REMARK    8  A    between atoms: C_14  and  C_22
REMARK    9  A    between atoms: C_19  and  C_21
REMARK                            x       y       z     vdW  Elec       q    Type
REMARK                         _______ _______ _______ _____ _____    ______ ____
ROOT
ATOM      1  N   UNL     1       2.093  -4.639   3.414  0.00  0.00    -0.215 N 
ATOM      2  C   UNL     1       3.422  -4.869   3.462  0.00  0.00    +0.247 C 
ATOM      3  O   UNL     1       4.226  -4.720   2.567  0.00  0.00    -0.273 OA
ATOM      4  C   UNL     1       3.696  -5.352   4.868  0.00  0.00    +0.118 C 
ATOM      5  C   UNL     1       4.649  -4.399   5.581  0.00  0.00    +0.019 C 
ATOM      6  C   UNL     1       4.890  -4.889   7.011  0.00  0.00    +0.006 C 
ATOM      7  C   UNL     1       5.485  -6.298   6.973  0.00  0.00    +0.001 C 
ATOM      8  C   UNL     1       4.508  -7.247   6.275  0.00  0.00    +0.006 C 
ATOM      9  C   UNL     1       4.266  -6.766   4.842  0.00  0.00    +0.019 C 
ATOM     10  C   UNL     1       3.274  -7.703   4.151  0.00  0.00    +0.010 C 
ATOM     11  C   UNL     1       5.980  -4.351   4.828  0.00  0.00    +0.010 C 
ATOM     12  N   UNL     1       2.377  -5.340   5.513  0.00  0.00    -0.284 N 
ATOM     13  C   UNL     1       1.504  -4.904   4.586  0.00  0.00    +0.310 C 
ATOM     14  O   UNL     1       0.313  -4.769   4.790  0.00  0.00    -0.252 OA
ATOM     15  H   UNL     1       2.176  -5.593   6.428  0.00  0.00    +0.151 HD
ENDROOT
BRANCH   1  16
ATOM     16  C   UNL     1       1.385  -4.154   2.227  0.00  0.00    +0.213 C 
BRANCH  16  18
ATOM     17  N   UNL     1       0.762  -1.976   1.234  0.00  0.00    -0.309 N 
ATOM     18  C   UNL     1       1.364  -2.647   2.235  0.00  0.00    +0.231 C 
ATOM     19  O   UNL     1       1.890  -2.038   3.143  0.00  0.00    -0.274 OA
ATOM     20  H   UNL     1       0.342  -2.462   0.507  0.00  0.00    +0.149 HD
BRANCH  17  21
ATOM     21  C   UNL     1       0.742  -0.511   1.242  0.00  0.00    +0.029 C 
ATOM     22  C   UNL     1       2.178   0.019   1.231  0.00  0.00    +0.031 C 
ATOM     23  C   UNL     1       0.026  -0.018   2.500  0.00  0.00    +0.031 C 
BRANCH  21  25
ATOM     24  C   UNL     1      -0.019   1.526   0.010  0.00  0.00    +0.006 C 
ATOM     25  C   UNL     1       0.002  -0.004   0.002  0.00  0.00    +0.022 C 
ENDBRANCH  21  25
ENDBRANCH  17  21
ENDBRANCH  16  18
ENDBRANCH   1  16
TORSDOF 4
