REMARK  Name = ZINC23445822
REMARK  9 active torsions:
REMARK  status: ('A' for Active; 'I' for Inactive)
REMARK    1  A    between atoms: C_1  and  C_2
REMARK    2  A    between atoms: C_7  and  C_8
REMARK    3  A    between atoms: N_10  and  C_11
REMARK    4  A    between atoms: C_11  and  C_13
REMARK    5  A    between atoms: C_11  and  C_14
REMARK    6  A    between atoms: C_17  and  S_20
REMARK    7  A    between atoms: S_20  and  N_23
REMARK    8  A    between atoms: C_25  and  C_29
REMARK    9  A    between atoms: C_25  and  C_30
REMARK                            x       y       z     vdW  Elec       q    Type
REMARK                         _______ _______ _______ _____ _____    ______ ____
ROOT
ATOM      1  C   UNL     1       2.331   0.926   0.654  0.00  0.00    +0.261 C 
ATOM      2  O   UNL     1       2.065  -0.098   1.256  0.00  0.00    -0.269 OA
ATOM      3  N   UNL     1       1.362   1.593  -0.002  0.00  0.00    -0.304 N 
ATOM      4  H   UNL     1       1.602   2.518  -0.546  0.00  0.00    +0.150 HD
ENDROOT
BRANCH   1  11
ATOM      5  C   UNL     1       4.768  -0.412   2.084  0.00  0.00    +0.047 C 
ATOM      6  C   UNL     1       4.779   0.854   1.267  0.00  0.00    -0.010 A 
ATOM      7  C   UNL     1       5.887   1.666   0.997  0.00  0.00    +0.042 A 
ATOM      8  C   UNL     1       5.451   2.731   0.209  0.00  0.00    +0.028 A 
ATOM      9  N   UNL     1       4.144   2.575  -0.002  0.00  0.00    -0.354 N 
ATOM     10  H   UNL     1       3.595   3.306  -0.614  0.00  0.00    +0.166 HD
ATOM     11  C   UNL     1       3.709   1.434   0.644  0.00  0.00    +0.106 A 
ATOM     12  C   UNL     1       6.372   3.820  -0.278  0.00  0.00    +0.060 C 
ATOM     13  C   UNL     1       7.623   3.855   0.604  0.00  0.00    -0.023 C 
ATOM     14  C   UNL     1       8.263   2.466   0.691  0.00  0.00    +0.086 C 
ATOM     15  C   UNL     1       7.295   1.534   1.404  0.00  0.00    +0.166 C 
ATOM     16  O   UNL     1       7.657   0.739   2.246  0.00  0.00    -0.292 OA
ATOM     17  C   UNL     1       7.236   4.320   2.010  0.00  0.00    +0.011 C 
ATOM     18  C   UNL     1       8.632   4.838   0.008  0.00  0.00    +0.011 C 
ENDBRANCH   1  11
BRANCH   3  19
ATOM     19  C   UNL     1      -0.013   1.086   0.008  0.00  0.00    +0.100 C 
ATOM     20  C   UNL     1      -0.729   1.579   1.267  0.00  0.00    +0.033 C 
BRANCH  19  21
ATOM     21  C   UNL     1      -0.742   1.585  -1.213  0.00  0.00    -0.027 A 
ATOM     22  C   UNL     1      -0.551   2.883  -1.649  0.00  0.00    +0.007 A 
ATOM     23  C   UNL     1      -1.216   3.339  -2.772  0.00  0.00    +0.029 A 
ATOM     24  C   UNL     1      -2.079   2.501  -3.452  0.00  0.00    +0.105 A 
ATOM     25  C   UNL     1      -2.273   1.205  -3.013  0.00  0.00    +0.029 A 
ATOM     26  C   UNL     1      -1.605   0.747  -1.893  0.00  0.00    +0.007 A 
BRANCH  24  27
ATOM     27  S   UNL     1      -2.932   3.085  -4.879  0.00  0.00    +0.056 S 
ATOM     28  O   UNL     1      -2.163   4.160  -5.401  0.00  0.00    -0.153 OA
ATOM     29  O   UNL     1      -3.263   1.939  -5.652  0.00  0.00    -0.153 OA
BRANCH  27  30
ATOM     30  N   UNL     1      -4.364   3.736  -4.361  0.00  0.00    -0.204 NA
ATOM     31  H   UNL     1      -4.929   4.114  -5.226  0.00  0.00    +0.144 HD
ATOM     32  H   UNL     1      -4.161   4.564  -3.666  0.00  0.00    +0.144 HD
ENDBRANCH  27  30
ENDBRANCH  24  27
ENDBRANCH  19  21
ENDBRANCH   3  19
TORSDOF 5
