REMARK  Name = ZINC38654914
REMARK  11 active torsions:
REMARK  status: ('A' for Active; 'I' for Inactive)
REMARK    1  A    between atoms: C_1  and  C_2
REMARK    2  A    between atoms: C_2  and  C_3
REMARK    3  A    between atoms: C_3  and  O_4
REMARK    4  A    between atoms: O_4  and  C_5
REMARK    5  A    between atoms: C_9  and  C_11
REMARK    6  A    between atoms: C_11  and  O_13
REMARK    7  A    between atoms: O_13  and  C_14
REMARK    8  A    between atoms: C_21  and  N_36
REMARK    9  A    between atoms: C_22  and  C_34
REMARK   10  A    between atoms: C_23  and  C_25
REMARK   11  A    between atoms: C_28  and  N_31
REMARK                            x       y       z     vdW  Elec       q    Type
REMARK                         _______ _______ _______ _____ _____    ______ ____
ROOT
ATOM      1  C   UNL     1       2.775  -7.942  -4.728  0.00  0.00    +0.135 A 
ATOM      2  C   UNL     1       2.189  -8.763  -3.774  0.00  0.00    +0.047 A 
ATOM      3  C   UNL     1       2.299 -10.135  -3.884  0.00  0.00    +0.012 A 
ATOM      4  C   UNL     1       2.991 -10.697  -4.942  0.00  0.00    +0.008 A 
ATOM      5  C   UNL     1       3.578  -9.881  -5.897  0.00  0.00    +0.138 A 
ATOM      6  C   UNL     1       3.464  -8.501  -5.792  0.00  0.00    +0.093 A 
ATOM      7  O   UNL     1       4.260 -10.413  -6.942  0.00  0.00    -0.441 OA
ATOM      8  C   UNL     1       4.708 -11.678  -6.875  0.00  0.00    +0.199 C 
ATOM      9  C   UNL     1       4.199 -12.573  -5.996  0.00  0.00    +0.098 C 
ATOM     10  C   UNL     1       3.099 -12.195  -5.044  0.00  0.00    +0.098 C 
ENDROOT
BRANCH  10  11
ATOM     11  C   UNL     1       1.793 -12.757  -5.543  0.00  0.00    -0.035 A 
ATOM     12  C   UNL     1       1.303 -12.375  -6.778  0.00  0.00    +0.007 A 
ATOM     13  C   UNL     1       0.104 -12.891  -7.235  0.00  0.00    +0.033 A 
ATOM     14  C   UNL     1      -0.604 -13.788  -6.457  0.00  0.00    +0.126 A 
ATOM     15  C   UNL     1      -0.113 -14.170  -5.223  0.00  0.00    +0.033 A 
ATOM     16  C   UNL     1       1.088 -13.658  -4.767  0.00  0.00    +0.007 A 
BRANCH  14  17
ATOM     17  N   UNL     1      -1.887 -14.339  -6.946  0.00  0.00    +0.056 N 
ATOM     18  O   UNL     1      -2.317 -14.005  -8.026  0.00  0.00    -0.126 OA
ATOM     19  O   UNL     1      -2.507 -15.124  -6.266  0.00  0.00    -0.126 OA
ENDBRANCH  14  17
ENDBRANCH  10  11
BRANCH   8  20
ATOM     20  N   UNL     1       5.711 -12.074  -7.724  0.00  0.00    -0.328 N 
ATOM     21  H   UNL     1       6.086 -11.445  -8.360  0.00  0.00    +0.145 HD
ATOM     22  H   UNL     1       6.045 -12.984  -7.689  0.00  0.00    +0.145 HD
ENDBRANCH   8  20
BRANCH   9  23
ATOM     23  C   UNL     1       4.720 -13.907  -5.973  0.00  0.00    +0.101 C 
ATOM     24  N   UNL     1       5.132 -14.965  -5.955  0.00  0.00    -0.191 NA
ENDBRANCH   9  23
BRANCH   1  25
ATOM     25  O   UNL     1       2.668  -6.591  -4.621  0.00  0.00    -0.422 OA
BRANCH  25  26
ATOM     26  C   UNL     1       3.455  -5.963  -3.726  0.00  0.00    +0.345 C 
ATOM     27  O   UNL     1       4.165  -6.610  -2.982  0.00  0.00    -0.245 OA
BRANCH  26  32
ATOM     28  C   UNL     1       4.263  -2.452  -2.655  0.00  0.00    +0.121 A 
ATOM     29  C   UNL     1       3.449  -1.718  -3.509  0.00  0.00    +0.046 A 
ATOM     30  C   UNL     1       2.642  -2.364  -4.427  0.00  0.00    +0.004 A 
ATOM     31  C   UNL     1       2.640  -3.742  -4.502  0.00  0.00    +0.015 A 
ATOM     32  C   UNL     1       3.455  -4.488  -3.648  0.00  0.00    +0.063 A 
ATOM     33  C   UNL     1       4.273  -3.834  -2.725  0.00  0.00    +0.060 A 
BRANCH  28  34
ATOM     34  O   UNL     1       5.053  -1.812  -1.754  0.00  0.00    -0.492 OA
BRANCH  34  35
ATOM     35  C   UNL     1       4.993  -0.384  -1.737  0.00  0.00    +0.229 C 
BRANCH  35  37
ATOM     36  C   UNL     1       5.880   1.682  -0.647  0.00  0.00    +0.007 C 
ATOM     37  C   UNL     1       5.944   0.154  -0.666  0.00  0.00    +0.038 C 
ENDBRANCH  35  37
ENDBRANCH  34  35
ENDBRANCH  28  34
ENDBRANCH  26  32
ENDBRANCH  25  26
ENDBRANCH   1  25
TORSDOF 10
