REMARK  Name = ZINC38685889
REMARK  12 active torsions:
REMARK  status: ('A' for Active; 'I' for Inactive)
REMARK    1  A    between atoms: C_1  and  C_2
REMARK    2  A    between atoms: C_2  and  O_3
REMARK    3  A    between atoms: O_3  and  C_4
REMARK    4  A    between atoms: C_7  and  C_10
REMARK    5  A    between atoms: C_15  and  O_24
REMARK    6  A    between atoms: C_19  and  N_23
REMARK    7  A    between atoms: C_20  and  C_21
REMARK    8  A    between atoms: O_24  and  C_25
REMARK    9  A    between atoms: C_25  and  C_27
REMARK   10  A    between atoms: C_31  and  O_33
REMARK   11  A    between atoms: O_33  and  C_34
REMARK   12  A    between atoms: C_34  and  C_35
REMARK                            x       y       z     vdW  Elec       q    Type
REMARK                         _______ _______ _______ _____ _____    ______ ____
ROOT
ATOM      1  C   UNL     1       1.120  -6.005  -1.792  0.00  0.00    +0.098 C 
ATOM      2  C   UNL     1       2.572  -6.398  -1.860  0.00  0.00    +0.008 A 
ATOM      3  C   UNL     1       3.342  -6.357  -0.711  0.00  0.00    +0.012 A 
ATOM      4  C   UNL     1       4.675  -6.715  -0.754  0.00  0.00    +0.047 A 
ATOM      5  C   UNL     1       5.247  -7.117  -1.952  0.00  0.00    +0.135 A 
ATOM      6  C   UNL     1       4.479  -7.160  -3.104  0.00  0.00    +0.093 A 
ATOM      7  C   UNL     1       3.138  -6.799  -3.060  0.00  0.00    +0.138 A 
ATOM      8  O   UNL     1       2.400  -6.847  -4.196  0.00  0.00    -0.441 OA
ATOM      9  C   UNL     1       1.059  -6.886  -4.122  0.00  0.00    +0.199 C 
ATOM     10  C   UNL     1       0.394  -6.500  -3.011  0.00  0.00    +0.098 C 
ENDROOT
BRANCH   1  14
ATOM     11  C   UNL     1       0.815  -1.747  -1.594  0.00  0.00    +0.121 A 
ATOM     12  C   UNL     1       0.308  -2.529  -0.566  0.00  0.00    +0.046 A 
ATOM     13  C   UNL     1       0.407  -3.905  -0.633  0.00  0.00    +0.008 A 
ATOM     14  C   UNL     1       1.012  -4.503  -1.723  0.00  0.00    -0.034 A 
ATOM     15  C   UNL     1       1.519  -3.727  -2.748  0.00  0.00    +0.008 A 
ATOM     16  C   UNL     1       1.417  -2.350  -2.689  0.00  0.00    +0.046 A 
BRANCH  11  17
ATOM     17  O   UNL     1       0.718  -0.393  -1.531  0.00  0.00    -0.492 OA
BRANCH  17  19
ATOM     18  C   UNL     1       0.070   1.685  -0.481  0.00  0.00    +0.048 C 
ATOM     19  C   UNL     1       0.086   0.159  -0.374  0.00  0.00    +0.225 C 
ENDBRANCH  17  19
ENDBRANCH  11  17
ENDBRANCH   1  14
BRANCH   9  20
ATOM     20  N   UNL     1       0.345  -7.330  -5.207  0.00  0.00    -0.328 N 
ATOM     21  H   UNL     1       0.809  -7.609  -6.012  0.00  0.00    +0.145 HD
ATOM     22  H   UNL     1      -0.624  -7.364  -5.170  0.00  0.00    +0.145 HD
ENDBRANCH   9  20
BRANCH  10  23
ATOM     23  C   UNL     1      -1.037  -6.565  -2.998  0.00  0.00    +0.101 C 
ATOM     24  N   UNL     1      -2.171  -6.617  -2.987  0.00  0.00    -0.191 NA
ENDBRANCH  10  23
BRANCH   5  25
ATOM     25  O   UNL     1       6.559  -7.470  -1.996  0.00  0.00    -0.422 OA
BRANCH  25  26
ATOM     26  C   UNL     1       6.928  -8.610  -1.382  0.00  0.00    +0.345 C 
ATOM     27  O   UNL     1       6.086  -9.342  -0.902  0.00  0.00    -0.245 OA
BRANCH  26  28
ATOM     28  C   UNL     1       8.358  -8.971  -1.292  0.00  0.00    +0.063 A 
ATOM     29  C   UNL     1       9.329  -8.129  -1.837  0.00  0.00    +0.015 A 
ATOM     30  C   UNL     1      10.664  -8.470  -1.751  0.00  0.00    +0.004 A 
ATOM     31  C   UNL     1      11.043  -9.643  -1.126  0.00  0.00    +0.046 A 
ATOM     32  C   UNL     1      10.085 -10.487  -0.581  0.00  0.00    +0.121 A 
ATOM     33  C   UNL     1       8.744 -10.152  -0.656  0.00  0.00    +0.060 A 
BRANCH  32  34
ATOM     34  O   UNL     1      10.465 -11.639   0.033  0.00  0.00    -0.492 OA
BRANCH  34  35
ATOM     35  C   UNL     1      11.866 -11.918   0.079  0.00  0.00    +0.225 C 
ATOM     36  C   UNL     1      12.097 -13.246   0.802  0.00  0.00    +0.048 C 
ENDBRANCH  34  35
ENDBRANCH  32  34
ENDBRANCH  26  28
ENDBRANCH  25  26
ENDBRANCH   5  25
TORSDOF 10
