REMARK  Name = ZINC14988936
REMARK  8 active torsions:
REMARK  status: ('A' for Active; 'I' for Inactive)
REMARK    1  A    between atoms: C_3  and  C_8
REMARK    2  A    between atoms: C_8  and  C_9
REMARK    3  A    between atoms: C_9  and  N_10
REMARK    4  A    between atoms: C_11  and  C_13
REMARK    5  A    between atoms: C_17  and  C_22
REMARK    6  A    between atoms: C_22  and  O_33
REMARK    7  A    between atoms: C_27  and  C_28
REMARK    8  A    between atoms: C_27  and  N_61
REMARK                            x       y       z     vdW  Elec       q    Type
REMARK                         _______ _______ _______ _____ _____    ______ ____
ROOT
ATOM      1  C   UNL     1      -1.667   5.774   0.050  0.00  0.00    +0.190 A 
ATOM      2  C   UNL     1      -2.292   4.568   0.049  0.00  0.00    +0.063 A 
ATOM      3  C   UNL     1      -1.230   3.562   0.033  0.00  0.00    +0.021 A 
ATOM      4  C   UNL     1      -1.213   2.165   0.020  0.00  0.00    +0.018 A 
ATOM      5  C   UNL     1      -0.018   1.503   0.010  0.00  0.00    -0.015 A 
ATOM      6  C   UNL     1       1.177   2.209   0.003  0.00  0.00    +0.010 A 
ATOM      7  C   UNL     1       1.182   3.587   0.011  0.00  0.00    +0.047 A 
ATOM      8  C   UNL     1      -0.022   4.283   0.026  0.00  0.00    +0.136 A 
ATOM      9  O   UNL     1      -0.329   5.594   0.036  0.00  0.00    -0.450 OA
ENDROOT
BRANCH   5  10
ATOM     10  C   UNL     1       0.002  -0.004   0.002  0.00  0.00    +0.088 C 
ATOM     11  C   UNL     1       0.026  -0.523   1.442  0.00  0.00    +0.021 C 
ATOM     12  C   UNL     1       0.110  -2.051   1.427  0.00  0.00    -0.075 C 
ATOM     13  C   UNL     1       1.300  -2.024  -0.684  0.00  0.00    -0.075 C 
ATOM     14  C   UNL     1       1.253  -0.495  -0.731  0.00  0.00    +0.021 C 
ATOM     15  N   UNL     1       1.348  -2.458   0.728  0.00  0.00    +0.383 N 
ATOM     16  H   UNL     1       2.151  -2.013   1.187  0.00  0.00    -0.081 HD
BRANCH  10  17
ATOM     17  O   UNL     1      -1.164  -0.494  -0.663  0.00  0.00    -0.384 OA
ATOM     18  H   UNL     1      -1.995  -0.223  -0.250  0.00  0.00    +0.211 HD
ENDBRANCH  10  17
BRANCH  15  19
ATOM     19  C   UNL     1       1.508  -3.925   0.800  0.00  0.00    -0.036 C 
BRANCH  19  20
ATOM     20  C   UNL     1       1.283  -4.378   2.219  0.00  0.00    -0.027 A 
ATOM     21  C   UNL     1       0.132  -4.771   2.818  0.00  0.00    +0.009 A 
ATOM     22  C   UNL     1       0.164  -5.153   4.146  0.00  0.00    +0.008 A 
ATOM     23  C   UNL     1       1.343  -5.113   4.814  0.00  0.00    +0.045 A 
ATOM     24  S   UNL     1       2.462  -4.529   3.551  0.00  0.00    -0.103 S 
ENDBRANCH  19  20
ENDBRANCH  15  19
ENDBRANCH   5  10
BRANCH   1  26
ATOM     25  N   UNL     1      -1.620   8.214   0.064  0.00  0.00    -0.309 N 
ATOM     26  C   UNL     1      -2.345   7.078   0.064  0.00  0.00    +0.279 C 
ATOM     27  O   UNL     1      -3.560   7.132   0.076  0.00  0.00    -0.267 OA
ATOM     28  H   UNL     1      -0.651   8.171   0.054  0.00  0.00    +0.149 HD
BRANCH  25  29
ATOM     29  C   UNL     1      -2.296   9.514   0.079  0.00  0.00    +0.109 C 
BRANCH  29  30
ATOM     30  C   UNL     1      -1.251  10.632   0.075  0.00  0.00    +0.054 C 
BRANCH  30  33
ATOM     31  C   UNL     1      -2.914  13.816  -1.088  0.00  0.00    +0.003 A 
ATOM     32  C   UNL     1      -2.271  12.592  -1.100  0.00  0.00    +0.004 A 
ATOM     33  C   UNL     1      -1.946  11.969   0.090  0.00  0.00    -0.043 A 
ATOM     34  C   UNL     1      -2.253  12.575   1.294  0.00  0.00    +0.042 A 
ATOM     35  C   UNL     1      -2.892  13.803   1.308  0.00  0.00    +0.124 A 
ATOM     36  C   UNL     1      -3.222  14.423   0.114  0.00  0.00    +0.038 A 
ATOM     37  F   UNL     1      -3.192  14.396   2.484  0.00  0.00    -0.205 F 
ENDBRANCH  30  33
ENDBRANCH  29  30
ENDBRANCH  25  29
ENDBRANCH   1  26
TORSDOF 8
