REMARK  Name = ZINC20886068
REMARK  8 active torsions:
REMARK  status: ('A' for Active; 'I' for Inactive)
REMARK    1  A    between atoms: C_1  and  C_2
REMARK    2  A    between atoms: C_2  and  O_3
REMARK    3  A    between atoms: O_3  and  C_4
REMARK    4  A    between atoms: C_7  and  C_12
REMARK    5  A    between atoms: C_9  and  O_10
REMARK    6  A    between atoms: O_10  and  C_11
REMARK    7  A    between atoms: C_17  and  C_27
REMARK    8  A    between atoms: C_32  and  O_33
REMARK                            x       y       z     vdW  Elec       q    Type
REMARK                         _______ _______ _______ _____ _____    ______ ____
ROOT
ATOM      1  C   UNL     1      -0.077   0.286  -0.368  0.00  0.00    +0.032 C 
ATOM      2  C   UNL     1       0.582  -0.226   0.911  0.00  0.00    +0.059 C 
ATOM      3  C   UNL     1       2.038   0.210   0.954  0.00  0.00    +0.017 C 
ATOM      4  C   UNL     1       2.413   1.379   0.408  0.00  0.00    +0.037 C 
ATOM      5  C   UNL     1       3.814   1.943   0.399  0.00  0.00    +0.139 C 
ATOM      6  N   UNL     1       4.840   1.006   0.807  0.00  0.00    -0.331 N 
ATOM      7  C   UNL     1       4.874   0.496   2.103  0.00  0.00    +0.049 A 
ATOM      8  C   UNL     1       5.918   0.783   2.968  0.00  0.00    +0.025 A 
ATOM      9  C   UNL     1       5.886   0.289   4.261  0.00  0.00    +0.002 A 
ATOM     10  C   UNL     1       4.820  -0.481   4.690  0.00  0.00    +0.002 A 
ATOM     11  C   UNL     1       3.783  -0.783   3.824  0.00  0.00    +0.025 A 
ATOM     12  C   UNL     1       3.825  -0.308   2.524  0.00  0.00    +0.052 A 
ATOM     13  N   UNL     1       2.872  -0.661   1.574  0.00  0.00    -0.316 N 
ATOM     14  C   UNL     1       1.461   2.205  -0.235  0.00  0.00    +0.163 C 
ATOM     15  O   UNL     1       1.825   3.267  -0.699  0.00  0.00    -0.292 OA
ATOM     16  C   UNL     1       0.018   1.816  -0.363  0.00  0.00    +0.088 C 
ATOM     17  H   UNL     1       5.609   0.687   0.089  0.00  0.00    +0.147 HD
ATOM     18  H   UNL     1       2.824  -1.734   1.335  0.00  0.00    +0.152 HD
ENDROOT
BRANCH   5  19
ATOM     19  C   UNL     1       3.857   3.132   1.325  0.00  0.00    +0.020 A 
ATOM     20  C   UNL     1       2.856   3.316   2.260  0.00  0.00    +0.029 A 
ATOM     21  C   UNL     1       2.895   4.406   3.110  0.00  0.00    +0.042 A 
ATOM     22  C   UNL     1       3.935   5.315   3.025  0.00  0.00    +0.023 A 
ATOM     23  C   UNL     1       4.937   5.135   2.091  0.00  0.00    +0.047 A 
ATOM     24  C   UNL     1       4.903   4.038   1.242  0.00  0.00    +0.122 A 
ATOM     25 CL   UNL     1       1.637   4.635   4.284  0.00  0.00    -0.084 Cl
BRANCH  24  26
ATOM     26  O   UNL     1       5.891   3.856   0.327  0.00  0.00    -0.506 OA
ATOM     27  H   UNL     1       6.721   4.575   0.262  0.00  0.00    +0.292 HD
ENDBRANCH  24  26
ENDBRANCH   5  19
BRANCH   1  31
ATOM     28  C   UNL     1      -4.183  -0.907  -0.462  0.00  0.00    +0.162 A 
ATOM     29  C   UNL     1      -3.705  -0.139   0.589  0.00  0.00    +0.050 A 
ATOM     30  C   UNL     1      -2.377   0.245   0.616  0.00  0.00    +0.008 A 
ATOM     31  C   UNL     1      -1.523  -0.135  -0.403  0.00  0.00    -0.040 A 
ATOM     32  C   UNL     1      -1.995  -0.896  -1.456  0.00  0.00    +0.053 A 
ATOM     33  C   UNL     1      -3.324  -1.289  -1.488  0.00  0.00    +0.162 A 
BRANCH  33  34
ATOM     34  O   UNL     1      -3.788  -2.042  -2.521  0.00  0.00    -0.491 OA
ATOM     35  C   UNL     1      -2.849  -2.397  -3.538  0.00  0.00    +0.277 C 
ENDBRANCH  33  34
BRANCH  28  36
ATOM     36  O   UNL     1      -5.489  -1.285  -0.490  0.00  0.00    -0.489 OA
BRANCH  36  38
ATOM     37  C   UNL     1      -7.737  -1.374   0.391  0.00  0.00    +0.048 C 
ATOM     38  C   UNL     1      -6.312  -0.856   0.596  0.00  0.00    +0.226 C 
ENDBRANCH  36  38
ENDBRANCH  28  36
ENDBRANCH   1  31
TORSDOF 6
