REMARK  Name = ZINC40476559
REMARK  13 active torsions:
REMARK  status: ('A' for Active; 'I' for Inactive)
REMARK    1  A    between atoms: C_1  and  C_2
REMARK    2  A    between atoms: C_2  and  O_3
REMARK    3  A    between atoms: O_3  and  C_4
REMARK    4  A    between atoms: C_7  and  C_12
REMARK    5  A    between atoms: C_9  and  O_10
REMARK    6  A    between atoms: O_10  and  C_11
REMARK    7  A    between atoms: C_19  and  S_32
REMARK    8  A    between atoms: C_28  and  C_30
REMARK    9  A    between atoms: C_28  and  C_31
REMARK   10  A    between atoms: S_32  and  C_33
REMARK   11  A    between atoms: C_33  and  C_34
REMARK   12  A    between atoms: C_34  and  C_35
REMARK   13  A    between atoms: C_34  and  C_36
REMARK                            x       y       z     vdW  Elec       q    Type
REMARK                         _______ _______ _______ _____ _____    ______ ____
ROOT
ATOM      1  C   UNL     1       1.107  -6.044  -1.844  0.00  0.00    +0.093 C 
ATOM      2  C   UNL     1      -0.268  -6.637  -1.923  0.00  0.00    +0.069 A 
ATOM      3  C   UNL     1      -1.019  -6.528  -3.099  0.00  0.00    +0.258 A 
ATOM      4  O   UNL     1      -0.565  -5.954  -4.075  0.00  0.00    -0.267 OA
ATOM      5  N   UNL     1      -2.255  -7.070  -3.133  0.00  0.00    -0.302 N 
ATOM      6  H   UNL     1      -2.790  -7.006  -3.940  0.00  0.00    +0.171 HD
ATOM      7  C   UNL     1      -2.752  -7.708  -2.037  0.00  0.00    +0.171 A 
ATOM      8  N   UNL     1      -2.049  -7.814  -0.927  0.00  0.00    -0.208 NA
ATOM      9  C   UNL     1      -0.819  -7.298  -0.838  0.00  0.00    +0.135 A 
ATOM     10  N   UNL     1      -0.090  -7.423   0.329  0.00  0.00    -0.302 N 
ATOM     11  C   UNL     1       1.269  -7.267   0.321  0.00  0.00    +0.017 C 
ATOM     12  C   UNL     1       1.887  -6.619  -0.688  0.00  0.00    +0.024 C 
ATOM     13  C   UNL     1       3.283  -6.456  -0.694  0.00  0.00    +0.162 C 
ATOM     14  O   UNL     1       3.812  -5.884  -1.626  0.00  0.00    -0.292 OA
ATOM     15  C   UNL     1       4.135  -6.976   0.432  0.00  0.00    +0.086 C 
ATOM     16  C   UNL     1       3.303  -6.995   1.718  0.00  0.00    -0.023 C 
ATOM     17  C   UNL     1       2.058  -7.844   1.472  0.00  0.00    +0.058 C 
ATOM     18  C   UNL     1       2.891  -5.569   2.087  0.00  0.00    +0.011 C 
ATOM     19  C   UNL     1       4.125  -7.606   2.855  0.00  0.00    +0.011 C 
ATOM     20  H   UNL     1      -0.546  -7.622   1.161  0.00  0.00    +0.153 HD
ENDROOT
BRANCH   1  24
ATOM     21  C   UNL     1       0.777  -1.811  -1.336  0.00  0.00    +0.162 A 
ATOM     22  C   UNL     1       0.243  -2.669  -0.388  0.00  0.00    +0.050 A 
ATOM     23  C   UNL     1       0.352  -4.037  -0.555  0.00  0.00    +0.008 A 
ATOM     24  C   UNL     1       0.992  -4.552  -1.667  0.00  0.00    -0.032 A 
ATOM     25  C   UNL     1       1.526  -3.702  -2.616  0.00  0.00    +0.054 A 
ATOM     26  C   UNL     1       1.416  -2.330  -2.458  0.00  0.00    +0.162 A 
BRANCH  26  27
ATOM     27  O   UNL     1       1.936  -1.492  -3.394  0.00  0.00    -0.491 OA
ATOM     28  C   UNL     1       2.578  -2.095  -4.520  0.00  0.00    +0.277 C 
ENDBRANCH  26  27
BRANCH  21  29
ATOM     29  O   UNL     1       0.671  -0.465  -1.174  0.00  0.00    -0.489 OA
BRANCH  29  31
ATOM     30  C   UNL     1      -0.019   1.526   0.010  0.00  0.00    +0.048 C 
ATOM     31  C   UNL     1       0.002  -0.004   0.002  0.00  0.00    +0.226 C 
ENDBRANCH  29  31
ENDBRANCH  21  29
ENDBRANCH   1  24
BRANCH   7  32
ATOM     32  S   UNL     1      -4.369  -8.406  -2.104  0.00  0.00    -0.088 S 
BRANCH  32  33
ATOM     33  C   UNL     1      -4.601  -9.134  -0.459  0.00  0.00    +0.080 C 
BRANCH  33  34
ATOM     34  C   UNL     1      -5.984  -9.783  -0.379  0.00  0.00    -0.007 C 
ATOM     35  C   UNL     1      -6.133 -10.504   0.963  0.00  0.00    +0.008 C 
ATOM     36  C   UNL     1      -7.062  -8.703  -0.499  0.00  0.00    +0.008 C 
ENDBRANCH  33  34
ENDBRANCH  32  33
ENDBRANCH   7  32
TORSDOF 7
