REMARK  Name = ZINC21219762
REMARK  10 active torsions:
REMARK  status: ('A' for Active; 'I' for Inactive)
REMARK    1  A    between atoms: C_1  and  O_2
REMARK    2  A    between atoms: O_2  and  C_3
REMARK    3  A    between atoms: C_6  and  O_37
REMARK    4  A    between atoms: C_7  and  C_9
REMARK    5  A    between atoms: C_14  and  C_24
REMARK    6  A    between atoms: C_27  and  O_32
REMARK    7  A    between atoms: C_29  and  O_30
REMARK    8  A    between atoms: O_30  and  C_31
REMARK    9  A    between atoms: O_32  and  C_33
REMARK   10  A    between atoms: O_37  and  C_38
REMARK                            x       y       z     vdW  Elec       q    Type
REMARK                         _______ _______ _______ _____ _____    ______ ____
ROOT
ATOM      1  C   UNL     1      -0.922   1.484   6.120  0.00  0.00    +0.036 C 
ATOM      2  C   UNL     1      -2.372   1.012   6.203  0.00  0.00    +0.060 C 
ATOM      3  C   UNL     1      -3.020   1.545   7.470  0.00  0.00    +0.017 C 
ATOM      4  C   UNL     1      -2.650   2.734   7.976  0.00  0.00    +0.037 C 
ATOM      5  C   UNL     1      -3.210   3.380   9.221  0.00  0.00    +0.139 C 
ATOM      6  N   UNL     1      -4.403   2.747   9.741  0.00  0.00    -0.331 N 
ATOM      7  C   UNL     1      -4.370   1.443  10.233  0.00  0.00    +0.049 A 
ATOM      8  C   UNL     1      -4.612   1.165  11.568  0.00  0.00    +0.025 A 
ATOM      9  C   UNL     1      -4.522  -0.140  12.018  0.00  0.00    +0.002 A 
ATOM     10  C   UNL     1      -4.189  -1.160  11.146  0.00  0.00    +0.002 A 
ATOM     11  C   UNL     1      -3.963  -0.888   9.807  0.00  0.00    +0.025 A 
ATOM     12  C   UNL     1      -4.075   0.413   9.352  0.00  0.00    +0.052 A 
ATOM     13  N   UNL     1      -3.973   0.740   8.004  0.00  0.00    -0.316 N 
ATOM     14  C   UNL     1      -1.644   3.498   7.338  0.00  0.00    +0.163 C 
ATOM     15  O   UNL     1      -1.348   4.582   7.802  0.00  0.00    -0.292 OA
ATOM     16  C   UNL     1      -0.931   3.018   6.110  0.00  0.00    +0.088 C 
ATOM     17  H   UNL     1      -5.356   3.297   9.753  0.00  0.00    +0.147 HD
ATOM     18  H   UNL     1      -4.741   0.292   7.356  0.00  0.00    +0.152 HD
ENDROOT
BRANCH   1  23
ATOM     19  C   UNL     1      -0.237   0.842   2.459  0.00  0.00    +0.121 A 
ATOM     20  C   UNL     1       0.878   0.020   2.526  0.00  0.00    +0.049 A 
ATOM     21  C   UNL     1       1.408  -0.327   3.753  0.00  0.00    +0.049 A 
ATOM     22  C   UNL     1       0.825   0.147   4.919  0.00  0.00    +0.124 A 
ATOM     23  C   UNL     1      -0.289   0.969   4.853  0.00  0.00    +0.002 A 
ATOM     24  C   UNL     1      -0.816   1.321   3.625  0.00  0.00    +0.053 A 
BRANCH  19  26
ATOM     25  C   UNL     1      -0.108   0.660   0.092  0.00  0.00    +0.277 C 
ATOM     26  O   UNL     1      -0.759   1.184   1.251  0.00  0.00    -0.495 OA
ENDBRANCH  19  26
BRANCH  22  27
ATOM     27  O   UNL     1       1.347  -0.195   6.127  0.00  0.00    -0.495 OA
ATOM     28  C   UNL     1       2.496  -1.045   6.121  0.00  0.00    +0.277 C 
ENDBRANCH  22  27
ENDBRANCH   1  23
BRANCH   5  29
ATOM     29  C   UNL     1      -2.149   3.351  10.291  0.00  0.00    +0.019 A 
ATOM     30  C   UNL     1      -1.067   2.501  10.169  0.00  0.00    +0.013 A 
ATOM     31  C   UNL     1      -0.093   2.473  11.148  0.00  0.00    +0.046 A 
ATOM     32  C   UNL     1      -0.200   3.299  12.259  0.00  0.00    +0.124 A 
ATOM     33  C   UNL     1      -1.285   4.153  12.384  0.00  0.00    +0.091 A 
ATOM     34  C   UNL     1      -2.258   4.183  11.397  0.00  0.00    +0.129 A 
BRANCH  34  35
ATOM     35  O   UNL     1      -3.320   5.023  11.514  0.00  0.00    -0.495 OA
ATOM     36  C   UNL     1      -3.366   5.851  12.678  0.00  0.00    +0.277 C 
ENDBRANCH  34  35
BRANCH  32  37
ATOM     37  O   UNL     1       0.758   3.271  13.222  0.00  0.00    -0.495 OA
ATOM     38  C   UNL     1       1.848   2.367  13.027  0.00  0.00    +0.277 C 
ENDBRANCH  32  37
ENDBRANCH   5  29
TORSDOF 6
