REMARK  Name = ZINC08985715
REMARK  9 active torsions:
REMARK  status: ('A' for Active; 'I' for Inactive)
REMARK    1  A    between atoms: C_1  and  C_2
REMARK    2  A    between atoms: C_2  and  C_4
REMARK    3  A    between atoms: C_2  and  S_20
REMARK    4  A    between atoms: N_6  and  C_7
REMARK    5  A    between atoms: C_10  and  N_17
REMARK    6  A    between atoms: C_12  and  C_13
REMARK    7  A    between atoms: S_20  and  C_21
REMARK    8  A    between atoms: C_24  and  C_27
REMARK    9  A    between atoms: N_25  and  N_26
REMARK                            x       y       z     vdW  Elec       q    Type
REMARK                         _______ _______ _______ _____ _____    ______ ____
ROOT
ATOM      1  C   UNL     1       2.377   1.574   1.277  0.00  0.00    +0.029 C 
ATOM      2  C   UNL     1       1.750   2.096  -0.018  0.00  0.00    +0.137 C 
ENDROOT
BRANCH   2   3
ATOM      3  C   UNL     1       1.982   3.581  -0.125  0.00  0.00    +0.230 C 
ATOM      4  O   UNL     1       1.133   4.357   0.259  0.00  0.00    -0.274 OA
ATOM      5  N   UNL     1       3.135   4.047  -0.646  0.00  0.00    -0.284 N 
ATOM      6  H   UNL     1       3.846   3.430  -0.878  0.00  0.00    +0.155 HD
BRANCH   5   7
ATOM      7  C   UNL     1       3.304   5.421  -0.853  0.00  0.00    +0.045 A 
ATOM      8  C   UNL     1       2.196   6.240  -1.026  0.00  0.00    +0.026 A 
ATOM      9  C   UNL     1       2.366   7.595  -1.229  0.00  0.00    +0.034 A 
ATOM     10  C   UNL     1       3.639   8.137  -1.260  0.00  0.00    +0.127 A 
ATOM     11  C   UNL     1       4.744   7.324  -1.088  0.00  0.00    +0.047 A 
ATOM     12  C   UNL     1       4.580   5.968  -0.879  0.00  0.00    +0.078 A 
BRANCH  12  13
ATOM     13  C   UNL     1       5.784   5.083  -0.686  0.00  0.00    +0.419 C 
ATOM     14  F   UNL     1       6.947   5.858  -0.753  0.00  0.00    -0.166 F 
ATOM     15  F   UNL     1       5.710   4.461   0.565  0.00  0.00    -0.166 F 
ATOM     16  F   UNL     1       5.814   4.110  -1.691  0.00  0.00    -0.166 F 
ENDBRANCH  12  13
BRANCH  10  17
ATOM     17  N   UNL     1       3.818   9.590  -1.477  0.00  0.00    +0.056 N 
ATOM     18  O   UNL     1       2.845  10.307  -1.628  0.00  0.00    -0.126 OA
ATOM     19  O   UNL     1       4.938  10.068  -1.505  0.00  0.00    -0.126 OA
ENDBRANCH  10  17
ENDBRANCH   5   7
ENDBRANCH   2   3
BRANCH   2  20
ATOM     20  S   UNL     1      -0.029   1.763  -0.004  0.00  0.00    -0.072 S 
BRANCH  20  21
ATOM     21  C   UNL     1      -0.010   0.001  -0.027  0.00  0.00    +0.209 A 
ATOM     22  N   UNL     1       1.053  -0.768  -0.053  0.00  0.00    -0.121 NA
ATOM     23  N   UNL     1       0.698  -2.004  -0.061  0.00  0.00    -0.132 NA
ATOM     24  C   UNL     1      -0.601  -2.096  -0.049  0.00  0.00    +0.154 A 
ATOM     25  N   UNL     1      -1.100  -0.822  -0.027  0.00  0.00    -0.228 N 
BRANCH  24  26
ATOM     26  C   UNL     1      -1.406  -3.370  -0.058  0.00  0.00    +0.059 C 
ATOM     27  C   UNL     1      -1.056  -4.203   1.177  0.00  0.00    +0.011 C 
ATOM     28  C   UNL     1      -1.874  -5.496   1.168  0.00  0.00    +0.001 C 
ATOM     29  C   UNL     1      -1.549  -6.296  -0.096  0.00  0.00    +0.000 C 
ATOM     30  C   UNL     1      -1.899  -5.463  -1.330  0.00  0.00    +0.001 C 
ATOM     31  C   UNL     1      -1.082  -4.169  -1.321  0.00  0.00    +0.011 C 
ENDBRANCH  24  26
BRANCH  25  32
ATOM     32  N   UNL     1      -2.414  -0.451  -0.009  0.00  0.00    -0.295 N 
ATOM     33  H   UNL     1      -2.772  -0.340  -0.946  0.00  0.00    +0.163 HD
ATOM     34  H   UNL     1      -2.969  -1.112   0.514  0.00  0.00    +0.163 HD
ENDBRANCH  25  32
ENDBRANCH  20  21
ENDBRANCH   2  20
TORSDOF 8
