REMARK  Name = ZINC03379417
REMARK  12 active torsions:
REMARK  status: ('A' for Active; 'I' for Inactive)
REMARK    1  A    between atoms: C_1  and  C_2
REMARK    2  A    between atoms: C_2  and  C_3
REMARK    3  A    between atoms: C_6  and  N_9
REMARK    4  A    between atoms: C_10  and  C_12
REMARK    5  A    between atoms: C_12  and  S_13
REMARK    6  A    between atoms: S_13  and  C_14
REMARK    7  A    between atoms: C_17  and  C_26
REMARK    8  A    between atoms: N_18  and  C_19
REMARK    9  A    between atoms: C_26  and  C_28
REMARK   10  A    between atoms: C_26  and  N_29
REMARK   11  A    between atoms: N_29  and  C_30
REMARK   12  A    between atoms: N_29  and  C_31
REMARK                            x       y       z     vdW  Elec       q    Type
REMARK                         _______ _______ _______ _____ _____    ______ ____
ROOT
ATOM      1  C   UNL     1      -2.003   4.528   4.338  0.00  0.00    +0.197 A 
ATOM      2  N   UNL     1      -2.903   3.616   4.051  0.00  0.00    -0.122 NA
ATOM      3  N   UNL     1      -2.583   3.012   2.963  0.00  0.00    -0.135 NA
ATOM      4  C   UNL     1      -1.464   3.491   2.497  0.00  0.00    +0.125 A 
ATOM      5  N   UNL     1      -1.054   4.478   3.354  0.00  0.00    -0.275 N 
ENDROOT
BRANCH   5   6
ATOM      6  C   UNL     1       0.098   5.271   3.246  0.00  0.00    +0.050 A 
ATOM      7  C   UNL     1       1.354   4.689   3.347  0.00  0.00    +0.028 A 
ATOM      8  C   UNL     1       2.487   5.471   3.234  0.00  0.00    +0.022 A 
ATOM      9  C   UNL     1       2.370   6.835   3.033  0.00  0.00    +0.041 A 
ATOM     10  C   UNL     1       1.119   7.418   2.938  0.00  0.00    +0.022 A 
ATOM     11  C   UNL     1      -0.017   6.639   3.044  0.00  0.00    +0.028 A 
ATOM     12 CL   UNL     1       3.796   7.816   2.898  0.00  0.00    -0.084 Cl
ENDBRANCH   5   6
BRANCH   4  13
ATOM     13  C   UNL     1      -0.755   3.047   1.243  0.00  0.00    -0.003 C 
ATOM     14  C   UNL     1      -1.500   3.583   0.019  0.00  0.00    -0.005 C 
BRANCH  13  15
ATOM     15  N   UNL     1      -0.724   1.579   1.193  0.00  0.00    +0.382 N 
ATOM     16  C   UNL     1      -0.039   1.108  -0.019  0.00  0.00    -0.096 C 
ATOM     17  C   UNL     1      -0.098   1.024   2.400  0.00  0.00    -0.096 C 
ATOM     18  H   UNL     1      -1.762   1.219   1.155  0.00  0.00    -0.082 HD
ENDBRANCH  13  15
ENDBRANCH   4  13
BRANCH   1  19
ATOM     19  S   UNL     1      -2.015   5.611   5.728  0.00  0.00    -0.076 S 
BRANCH  19  20
ATOM     20  C   UNL     1      -3.547   5.075   6.531  0.00  0.00    +0.173 C 
BRANCH  20  22
ATOM     21  N   UNL     1      -4.856   5.662   8.546  0.00  0.00    -0.285 N 
ATOM     22  C   UNL     1      -3.769   5.887   7.780  0.00  0.00    +0.227 C 
ATOM     23  O   UNL     1      -2.971   6.744   8.097  0.00  0.00    -0.275 OA
ATOM     24  H   UNL     1      -5.618   4.939   8.220  0.00  0.00    +0.155 HD
BRANCH  21  28
ATOM     25  C   UNL     1      -5.325   7.702  12.148  0.00  0.00    -0.048 A 
ATOM     26  C   UNL     1      -4.736   8.335  11.068  0.00  0.00    +0.005 A 
ATOM     27  C   UNL     1      -4.578   7.661   9.873  0.00  0.00    +0.023 A 
ATOM     28  C   UNL     1      -5.013   6.347   9.756  0.00  0.00    +0.033 A 
ATOM     29  C   UNL     1      -5.611   5.717  10.840  0.00  0.00    +0.023 A 
ATOM     30  C   UNL     1      -5.759   6.394  12.034  0.00  0.00    +0.005 A 
BRANCH  25  32
ATOM     31  C   UNL     1      -6.847   9.158  13.458  0.00  0.00    +0.009 C 
ATOM     32  C   UNL     1      -5.495   8.441  13.450  0.00  0.00    +0.032 C 
ENDBRANCH  25  32
ENDBRANCH  21  28
ENDBRANCH  20  22
ENDBRANCH  19  20
ENDBRANCH   1  19
TORSDOF 8
