REMARK  Name = ZINC21738067
REMARK  7 active torsions:
REMARK  status: ('A' for Active; 'I' for Inactive)
REMARK    1  A    between atoms: C_1  and  C_2
REMARK    2  A    between atoms: C_15  and  C_17
REMARK    3  A    between atoms: C_17  and  C_19
REMARK    4  A    between atoms: C_17  and  S_20
REMARK    5  A    between atoms: S_20  and  C_21
REMARK    6  A    between atoms: N_26  and  C_27
REMARK    7  A    between atoms: C_27  and  C_28
REMARK                            x       y       z     vdW  Elec       q    Type
REMARK                         _______ _______ _______ _____ _____    ______ ____
ROOT
ATOM      1  C   UNL     1      -0.234  -8.170   2.263  0.00  0.00    +0.116 C 
ATOM      2  C   UNL     1      -1.028  -8.373   3.555  0.00  0.00    +0.027 C 
ENDROOT
BRANCH   1  16
ATOM      3  C   UNL     1      -0.019   1.526   0.010  0.00  0.00    +0.008 C 
ATOM      4  C   UNL     1       0.002  -0.004   0.002  0.00  0.00    -0.009 C 
ATOM      5  C   UNL     1      -1.433  -0.537   0.021  0.00  0.00    +0.008 C 
ATOM      6  C   UNL     1      -1.430  -2.044  -0.237  0.00  0.00    +0.037 C 
ATOM      7  C   UNL     1      -0.472  -2.712   0.745  0.00  0.00    -0.023 A 
ATOM      8  C   UNL     1       0.476  -1.985   1.383  0.00  0.00    -0.004 A 
ATOM      9  S   UNL     1       1.343  -3.148   2.406  0.00  0.00    -0.073 S 
ATOM     10  C   UNL     1       0.437  -4.601   1.978  0.00  0.00    +0.116 A 
ATOM     11  C   UNL     1      -0.517  -4.131   1.048  0.00  0.00    +0.075 A 
ATOM     12  C   UNL     1      -1.426  -5.099   0.502  0.00  0.00    +0.260 A 
ATOM     13  O   UNL     1      -2.286  -4.796  -0.308  0.00  0.00    -0.267 OA
ATOM     14  N   UNL     1      -1.267  -6.369   0.944  0.00  0.00    -0.309 N 
ATOM     15  H   UNL     1      -1.860  -7.056   0.601  0.00  0.00    +0.170 HD
ATOM     16  C   UNL     1      -0.319  -6.726   1.843  0.00  0.00    +0.124 A 
ATOM     17  N   UNL     1       0.532  -5.869   2.365  0.00  0.00    -0.225 NA
ATOM     18  C   UNL     1       0.737  -0.516   1.249  0.00  0.00    +0.046 C 
ENDBRANCH   1  16
BRANCH   1  19
ATOM     19  S   UNL     1      -0.925  -9.222   0.957  0.00  0.00    -0.086 S 
BRANCH  19  20
ATOM     20  C   UNL     1      -0.622 -10.862   1.525  0.00  0.00    +0.161 A 
ATOM     21  N   UNL     1      -0.038 -11.268   2.637  0.00  0.00    -0.133 NA
ATOM     22  N   UNL     1       0.097 -12.614   2.887  0.00  0.00    -0.125 NA
ATOM     23  C   UNL     1      -0.356 -13.492   2.015  0.00  0.00    +0.183 A 
ATOM     24  S   UNL     1      -1.029 -12.421   0.753  0.00  0.00    -0.025 S 
ATOM     25  N   UNL     1      -0.325 -14.881   2.066  0.00  0.00    -0.318 N 
ATOM     26  H   UNL     1      -0.703 -15.402   1.340  0.00  0.00    +0.148 HD
BRANCH  25  27
ATOM     27  C   UNL     1       0.279 -15.558   3.216  0.00  0.00    +0.138 C 
BRANCH  27  28
ATOM     28  C   UNL     1       0.185 -17.050   3.027  0.00  0.00    -0.030 A 
ATOM     29  C   UNL     1      -0.922 -17.737   3.490  0.00  0.00    +0.008 A 
ATOM     30  C   UNL     1      -1.010 -19.105   3.317  0.00  0.00    +0.038 A 
ATOM     31  C   UNL     1       0.012 -19.788   2.679  0.00  0.00    +0.123 A 
ATOM     32  C   UNL     1       1.120 -19.099   2.216  0.00  0.00    +0.038 A 
ATOM     33  C   UNL     1       1.203 -17.730   2.386  0.00  0.00    +0.008 A 
ATOM     34  F   UNL     1      -0.072 -21.126   2.510  0.00  0.00    -0.205 F 
ENDBRANCH  27  28
ENDBRANCH  25  27
ENDBRANCH  19  20
ENDBRANCH   1  19
TORSDOF 5
