REMARK  Name = ZINC38651462
REMARK  8 active torsions:
REMARK  status: ('A' for Active; 'I' for Inactive)
REMARK    1  A    between atoms: C_3  and  C_8
REMARK    2  A    between atoms: C_13  and  O_22
REMARK    3  A    between atoms: C_17  and  N_21
REMARK    4  A    between atoms: C_18  and  C_19
REMARK    5  A    between atoms: O_22  and  C_23
REMARK    6  A    between atoms: C_23  and  C_25
REMARK    7  A    between atoms: C_25  and  O_26
REMARK    8  A    between atoms: O_26  and  C_27
REMARK                            x       y       z     vdW  Elec       q    Type
REMARK                         _______ _______ _______ _____ _____    ______ ____
ROOT
ATOM      1  C   UNL     1       3.692   2.129  -0.050  0.00  0.00    +0.098 C 
ATOM      2  C   UNL     1       4.487   1.787   1.182  0.00  0.00    +0.008 A 
ATOM      3  C   UNL     1       4.181   2.404   2.382  0.00  0.00    +0.012 A 
ATOM      4  C   UNL     1       4.899   2.103   3.522  0.00  0.00    +0.047 A 
ATOM      5  C   UNL     1       5.933   1.178   3.467  0.00  0.00    +0.135 A 
ATOM      6  C   UNL     1       6.242   0.559   2.267  0.00  0.00    +0.093 A 
ATOM      7  C   UNL     1       5.518   0.863   1.121  0.00  0.00    +0.138 A 
ATOM      8  O   UNL     1       5.834   0.248  -0.046  0.00  0.00    -0.441 OA
ATOM      9  C   UNL     1       5.437   0.782  -1.213  0.00  0.00    +0.199 C 
ATOM     10  C   UNL     1       4.427   1.677  -1.281  0.00  0.00    +0.098 C 
ENDROOT
BRANCH   1  13
ATOM     11  C   UNL     1      -0.038   1.555   0.063  0.00  0.00    +0.001 A 
ATOM     12  C   UNL     1       1.191   2.187   0.006  0.00  0.00    +0.004 A 
ATOM     13  C   UNL     1       2.353   1.439   0.012  0.00  0.00    -0.034 A 
ATOM     14  C   UNL     1       2.289   0.060   0.075  0.00  0.00    +0.020 A 
ATOM     15  C   UNL     1       1.060  -0.573   0.133  0.00  0.00    +0.018 A 
ATOM     16  C   UNL     1      -0.104   0.176   0.127  0.00  0.00    +0.015 A 
ATOM     17 BR   UNL     1       0.971  -2.459   0.218  0.00  0.00    -0.050 Br
ENDBRANCH   1  13
BRANCH   9  18
ATOM     18  N   UNL     1       6.075   0.406  -2.369  0.00  0.00    -0.328 N 
ATOM     19  H   UNL     1       6.801  -0.236  -2.335  0.00  0.00    +0.145 HD
ATOM     20  H   UNL     1       5.800   0.783  -3.219  0.00  0.00    +0.145 HD
ENDBRANCH   9  18
BRANCH  10  21
ATOM     21  C   UNL     1       4.051   2.208  -2.557  0.00  0.00    +0.101 C 
ATOM     22  N   UNL     1       3.753   2.629  -3.569  0.00  0.00    -0.191 NA
ENDBRANCH  10  21
BRANCH   5  23
ATOM     23  O   UNL     1       6.641   0.881   4.588  0.00  0.00    -0.423 OA
BRANCH  23  24
ATOM     24  C   UNL     1       7.920   1.287   4.652  0.00  0.00    +0.350 C 
ATOM     25  O   UNL     1       8.377   1.985   3.778  0.00  0.00    -0.247 OA
BRANCH  24  26
ATOM     26  C   UNL     1       8.785   0.872   5.814  0.00  0.00    +0.349 C 
BRANCH  26  27
ATOM     27  O   UNL     1      10.093   1.425   5.656  0.00  0.00    -0.481 OA
BRANCH  27  28
ATOM     28  C   UNL     1      11.003   1.145   6.626  0.00  0.00    +0.121 A 
ATOM     29  C   UNL     1      10.646   0.349   7.704  0.00  0.00    +0.047 A 
ATOM     30  C   UNL     1      11.572   0.065   8.689  0.00  0.00    +0.023 A 
ATOM     31  C   UNL     1      12.856   0.574   8.600  0.00  0.00    +0.041 A 
ATOM     32  C   UNL     1      13.214   1.368   7.525  0.00  0.00    +0.023 A 
ATOM     33  C   UNL     1      12.292   1.649   6.535  0.00  0.00    +0.047 A 
ATOM     34 CL   UNL     1      14.018   0.216   9.839  0.00  0.00    -0.084 Cl
ENDBRANCH  27  28
ENDBRANCH  26  27
ENDBRANCH  24  26
ENDBRANCH  23  24
ENDBRANCH   5  23
TORSDOF 8
