REMARK  Name = ZINC46842692
REMARK  11 active torsions:
REMARK  status: ('A' for Active; 'I' for Inactive)
REMARK    1  A    between atoms: C_1  and  C_2
REMARK    2  A    between atoms: C_2  and  O_3
REMARK    3  A    between atoms: O_3  and  C_4
REMARK    4  A    between atoms: C_7  and  C_10
REMARK    5  A    between atoms: N_16  and  C_17
REMARK    6  A    between atoms: C_17  and  C_18
REMARK    7  A    between atoms: C_18  and  C_19
REMARK    8  A    between atoms: N_21  and  C_22
REMARK    9  A    between atoms: C_22  and  C_23
REMARK   10  A    between atoms: C_31  and  C_38
REMARK   11  A    between atoms: C_34  and  C_37
REMARK                            x       y       z     vdW  Elec       q    Type
REMARK                         _______ _______ _______ _____ _____    ______ ____
ROOT
ATOM      1  C   UNL     1       2.488  -5.202   6.165  0.00  0.00    +0.215 C 
ATOM      2  O   UNL     1       3.592  -4.754   5.938  0.00  0.00    -0.276 OA
ATOM      3  N   UNL     1       1.901  -4.976   7.357  0.00  0.00    -0.311 N 
ATOM      4  H   UNL     1       1.018  -5.334   7.538  0.00  0.00    +0.149 HD
ENDROOT
BRANCH   1   5
ATOM      5  C   UNL     1       1.772  -6.010   5.114  0.00  0.00    +0.117 C 
BRANCH   5   6
ATOM      6  C   UNL     1       2.651  -6.116   3.865  0.00  0.00    +0.135 C 
BRANCH   6  13
ATOM      7  C   UNL     1       1.200  -6.158   1.788  0.00  0.00    +0.163 A 
ATOM      8  N   UNL     1       0.671  -7.072   1.023  0.00  0.00    -0.153 NA
ATOM      9  N   UNL     1       1.026  -8.326   1.537  0.00  0.00    -0.254 N 
ATOM     10  H   UNL     1       0.773  -9.188   1.170  0.00  0.00    +0.191 HD
ATOM     11  C   UNL     1       1.784  -8.117   2.633  0.00  0.00    +0.176 A 
ATOM     12  S   UNL     1       2.474  -9.325   3.630  0.00  0.00    -0.011 S 
ATOM     13  N   UNL     1       1.904  -6.785   2.797  0.00  0.00    -0.303 N 
BRANCH   7  17
ATOM     14  C   UNL     1       0.834  -1.958   1.256  0.00  0.00    +0.121 A 
ATOM     15  C   UNL     1       1.181  -2.470   2.499  0.00  0.00    +0.046 A 
ATOM     16  C   UNL     1       1.301  -3.832   2.675  0.00  0.00    +0.015 A 
ATOM     17  C   UNL     1       1.072  -4.696   1.603  0.00  0.00    +0.019 A 
ATOM     18  C   UNL     1       0.723  -4.177   0.356  0.00  0.00    +0.015 A 
ATOM     19  C   UNL     1       0.601  -2.814   0.188  0.00  0.00    +0.046 A 
BRANCH  14  20
ATOM     20  O   UNL     1       0.717  -0.615   1.085  0.00  0.00    -0.492 OA
BRANCH  20  22
ATOM     21  C   UNL     1       0.792   1.679   1.843  0.00  0.00    +0.048 C 
ATOM     22  C   UNL     1       0.971   0.208   2.226  0.00  0.00    +0.225 C 
ENDBRANCH  20  22
ENDBRANCH  14  20
ENDBRANCH   7  17
ENDBRANCH   6  13
ENDBRANCH   5   6
ENDBRANCH   1   5
BRANCH   3  23
ATOM     23  C   UNL     1       2.597  -4.190   8.379  0.00  0.00    +0.141 C 
BRANCH  23  24
ATOM     24  C   UNL     1       1.732  -4.086   9.608  0.00  0.00    -0.014 A 
ATOM     25  C   UNL     1       0.830  -3.038   9.744  0.00  0.00    +0.010 A 
ATOM     26  C   UNL     1       0.054  -2.979  10.887  0.00  0.00    +0.042 A 
ATOM     27  C   UNL     1       0.203  -3.966  11.857  0.00  0.00    +0.099 A 
ATOM     28  N   UNL     1       1.074  -4.949  11.691  0.00  0.00    -0.349 N 
ATOM     29  C   UNL     1       1.823  -5.033  10.607  0.00  0.00    +0.089 A 
ATOM     30  N   UNL     1      -0.570  -3.918  13.012  0.00  0.00    -0.312 N 
ATOM     31  C   UNL     1      -1.442  -2.767  13.293  0.00  0.00    +0.137 C 
ATOM     32  C   UNL     1      -1.157  -2.281  14.719  0.00  0.00    +0.133 C 
ATOM     33  O   UNL     1      -1.253  -3.386  15.621  0.00  0.00    -0.371 OA
ATOM     34  C   UNL     1      -0.299  -4.423  15.380  0.00  0.00    +0.133 C 
ATOM     35  C   UNL     1      -0.545  -5.021  13.986  0.00  0.00    +0.137 C 
ATOM     36  C   UNL     1      -0.455  -5.517  16.439  0.00  0.00    +0.039 C 
ATOM     37  C   UNL     1      -2.179  -1.211  15.108  0.00  0.00    +0.039 C 
ATOM     38  H   UNL     1       1.161  -5.625  12.380  0.00  0.00    +0.167 HD
ENDBRANCH  23  24
ENDBRANCH   3  23
TORSDOF 8
