REMARK  Name = ZINC39040769
REMARK  5 active torsions:
REMARK  status: ('A' for Active; 'I' for Inactive)
REMARK    1  A    between atoms: C_4  and  S_7
REMARK    2  A    between atoms: S_7  and  N_10
REMARK    3  A    between atoms: N_10  and  C_11
REMARK    4  A    between atoms: C_17  and  C_21
REMARK    5  A    between atoms: C_21  and  N_23
REMARK                            x       y       z     vdW  Elec       q    Type
REMARK                         _______ _______ _______ _____ _____    ______ ____
ROOT
ATOM      1  C   UNL     1       3.567  -1.942   2.398  0.00  0.00    +0.224 C 
ATOM      2  N   UNL     1       3.710  -1.563   3.810  0.00  0.00    -0.318 N 
ATOM      3  C   UNL     1       4.246  -2.503   4.680  0.00  0.00    +0.043 A 
ATOM      4  C   UNL     1       4.455  -2.313   6.061  0.00  0.00    +0.025 A 
ATOM      5  C   UNL     1       4.992  -3.302   6.844  0.00  0.00    +0.015 A 
ATOM      6  C   UNL     1       5.351  -4.536   6.298  0.00  0.00    +0.040 A 
ATOM      7  C   UNL     1       5.153  -4.748   4.930  0.00  0.00    +0.029 A 
ATOM      8  C   UNL     1       4.615  -3.750   4.157  0.00  0.00    +0.033 A 
ATOM      9  S   UNL     1       4.225  -3.658   2.422  0.00  0.00    -0.084 S 
ATOM     10  H   UNL     1       3.440  -0.685   4.124  0.00  0.00    +0.148 HD
ENDROOT
BRANCH   1  11
ATOM     11  N   UNL     1       4.378  -1.079   1.536  0.00  0.00    -0.160 NA
ATOM     12  H   UNL     1       5.174  -0.651   1.888  0.00  0.00    +0.151 HD
BRANCH  11  13
ATOM     13  S   UNL     1       3.934  -0.832  -0.041  0.00  0.00    +0.061 S 
ATOM     14  O   UNL     1       3.674  -2.114  -0.595  0.00  0.00    -0.153 OA
ATOM     15  O   UNL     1       4.890   0.060  -0.597  0.00  0.00    -0.153 OA
BRANCH  13  19
ATOM     16  C   UNL     1      -0.017   1.378   0.010  0.00  0.00    +0.000 A 
ATOM     17  C   UNL     1       1.171   2.086   0.002  0.00  0.00    +0.002 A 
ATOM     18  C   UNL     1       2.377   1.411  -0.013  0.00  0.00    +0.028 A 
ATOM     19  C   UNL     1       2.396   0.029  -0.020  0.00  0.00    +0.105 A 
ATOM     20  C   UNL     1       1.208  -0.679  -0.012  0.00  0.00    +0.028 A 
ATOM     21  C   UNL     1       0.002  -0.004   0.002  0.00  0.00    +0.002 A 
ENDBRANCH  13  19
ENDBRANCH  11  13
ENDBRANCH   1  11
BRANCH   6  22
ATOM     22  C   UNL     1       5.930  -5.597   7.150  0.00  0.00    +0.269 C 
ATOM     23  O   UNL     1       6.239  -6.670   6.660  0.00  0.00    -0.268 OA
BRANCH  22  24
ATOM     24  N   UNL     1       6.114  -5.380   8.457  0.00  0.00    -0.152 NA
ATOM     25  C   UNL     1       6.634  -6.334   9.222  0.00  0.00    +0.164 A 
ATOM     26  N   UNL     1       6.883  -6.288  10.556  0.00  0.00    -0.335 N 
ATOM     27  H   UNL     1       6.676  -5.487  11.063  0.00  0.00    +0.168 HD
ATOM     28  C   UNL     1       7.432  -7.386  11.190  0.00  0.00    +0.055 A 
ATOM     29  C   UNL     1       7.767  -7.553  12.541  0.00  0.00    +0.027 A 
ATOM     30  C   UNL     1       8.312  -8.735  12.987  0.00  0.00    +0.002 A 
ATOM     31  C   UNL     1       8.545  -9.789  12.120  0.00  0.00    +0.001 A 
ATOM     32  C   UNL     1       8.223  -9.650  10.782  0.00  0.00    +0.017 A 
ATOM     33  C   UNL     1       7.678  -8.470  10.335  0.00  0.00    +0.039 A 
ATOM     34  S   UNL     1       7.125  -7.873   8.759  0.00  0.00    -0.052 S 
ENDBRANCH  22  24
ENDBRANCH   6  22
TORSDOF 5
