REMARK  Name = ZINC39912503
REMARK  14 active torsions:
REMARK  status: ('A' for Active; 'I' for Inactive)
REMARK    1  A    between atoms: C_1  and  C_2
REMARK    2  A    between atoms: C_2  and  C_3
REMARK    3  A    between atoms: C_3  and  C_4
REMARK    4  A    between atoms: C_4  and  O_5
REMARK    5  A    between atoms: O_5  and  C_6
REMARK    6  A    between atoms: C_9  and  C_14
REMARK    7  A    between atoms: C_11  and  O_12
REMARK    8  A    between atoms: O_12  and  C_13
REMARK    9  A    between atoms: C_17  and  C_33
REMARK   10  A    between atoms: N_24  and  C_25
REMARK   11  A    between atoms: C_25  and  C_26
REMARK   12  A    between atoms: C_35  and  C_41
REMARK   13  A    between atoms: C_37  and  C_40
REMARK   14  A    between atoms: C_38  and  O_39
REMARK                            x       y       z     vdW  Elec       q    Type
REMARK                         _______ _______ _______ _____ _____    ______ ____
ROOT
ATOM      1  C   UNL     1       2.555  -7.912  -2.565  0.00  0.00    +0.142 C 
ATOM      2  C   UNL     1       3.760  -8.211  -1.717  0.00  0.00    +0.035 A 
ATOM      3  C   UNL     1       5.122  -7.991  -1.482  0.00  0.00    +0.102 A 
ATOM      4  N   UNL     1       5.460  -8.705  -0.427  0.00  0.00    -0.173 NA
ATOM      5  N   UNL     1       4.448  -9.354   0.028  0.00  0.00    -0.272 N 
ATOM      6  H   UNL     1       4.465  -9.943   0.799  0.00  0.00    +0.189 HD
ATOM      7  C   UNL     1       3.346  -9.091  -0.735  0.00  0.00    +0.126 A 
ATOM      8  C   UNL     1       1.917  -9.364  -0.925  0.00  0.00    +0.266 C 
ATOM      9  O   UNL     1       1.252 -10.102  -0.223  0.00  0.00    -0.268 OA
ATOM     10  N   UNL     1       1.447  -8.684  -1.988  0.00  0.00    -0.281 N 
ENDROOT
BRANCH   3  11
ATOM     11  C   UNL     1       6.019  -7.115  -2.276  0.00  0.00    +0.044 A 
ATOM     12  C   UNL     1       5.558  -6.518  -3.446  0.00  0.00    +0.017 A 
ATOM     13  C   UNL     1       6.397  -5.704  -4.180  0.00  0.00    -0.049 A 
ATOM     14  C   UNL     1       7.696  -5.480  -3.758  0.00  0.00    +0.010 A 
ATOM     15  C   UNL     1       8.163  -6.068  -2.599  0.00  0.00    -0.008 A 
ATOM     16  C   UNL     1       7.330  -6.882  -1.848  0.00  0.00    +0.129 A 
ATOM     17  C   UNL     1       9.579  -5.819  -2.146  0.00  0.00    +0.047 C 
ATOM     18  C   UNL     1       5.897  -5.059  -5.447  0.00  0.00    +0.044 C 
BRANCH  16  19
ATOM     19  O   UNL     1       7.786  -7.456  -0.705  0.00  0.00    -0.506 OA
ATOM     20  H   UNL     1       8.193  -8.323  -0.835  0.00  0.00    +0.292 HD
ENDBRANCH  16  19
ENDBRANCH   3  11
BRANCH   1  24
ATOM     21  C   UNL     1       1.663  -3.731  -2.437  0.00  0.00    +0.162 A 
ATOM     22  C   UNL     1       2.142  -4.305  -3.603  0.00  0.00    +0.050 A 
ATOM     23  C   UNL     1       2.430  -5.656  -3.642  0.00  0.00    +0.009 A 
ATOM     24  C   UNL     1       2.240  -6.439  -2.518  0.00  0.00    -0.019 A 
ATOM     25  C   UNL     1       1.762  -5.873  -1.351  0.00  0.00    +0.055 A 
ATOM     26  C   UNL     1       1.477  -4.518  -1.304  0.00  0.00    +0.162 A 
BRANCH  26  27
ATOM     27  O   UNL     1       1.012  -3.958  -0.155  0.00  0.00    -0.491 OA
ATOM     28  C   UNL     1       0.889  -4.817   0.981  0.00  0.00    +0.277 C 
ENDBRANCH  26  27
BRANCH  21  29
ATOM     29  O   UNL     1       1.380  -2.402  -2.397  0.00  0.00    -0.488 OA
BRANCH  29  30
ATOM     30  C   UNL     1       1.595  -1.657  -3.598  0.00  0.00    +0.229 C 
BRANCH  30  31
ATOM     31  C   UNL     1       1.224  -0.191  -3.361  0.00  0.00    +0.041 C 
BRANCH  31  33
ATOM     32  C   UNL     1       1.083   2.072  -4.411  0.00  0.00    +0.004 C 
ATOM     33  C   UNL     1       1.454   0.606  -4.647  0.00  0.00    -0.000 C 
ENDBRANCH  31  33
ENDBRANCH  30  31
ENDBRANCH  29  30
ENDBRANCH  21  29
ENDBRANCH   1  24
BRANCH  10  34
ATOM     34  C   UNL     1       0.068  -8.709  -2.483  0.00  0.00    +0.144 C 
BRANCH  34  35
ATOM     35  C   UNL     1      -0.081  -9.813  -3.498  0.00  0.00    -0.030 A 
ATOM     36  C   UNL     1       0.156  -9.558  -4.836  0.00  0.00    +0.008 A 
ATOM     37  C   UNL     1       0.020 -10.569  -5.768  0.00  0.00    +0.038 A 
ATOM     38  C   UNL     1      -0.354 -11.839  -5.361  0.00  0.00    +0.123 A 
ATOM     39  C   UNL     1      -0.591 -12.093  -4.021  0.00  0.00    +0.038 A 
ATOM     40  C   UNL     1      -0.449 -11.081  -3.090  0.00  0.00    +0.008 A 
ATOM     41  F   UNL     1      -0.488 -12.828  -6.271  0.00  0.00    -0.205 F 
ENDBRANCH  34  35
ENDBRANCH  10  34
TORSDOF 10
