REMARK  Name = ZINC09663629
REMARK  7 active torsions:
REMARK  status: ('A' for Active; 'I' for Inactive)
REMARK    1  A    between atoms: C_1  and  C_2
REMARK    2  A    between atoms: C_2  and  O_3
REMARK    3  A    between atoms: O_3  and  C_4
REMARK    4  A    between atoms: C_9  and  N_10
REMARK    5  A    between atoms: C_11  and  C_13
REMARK    6  A    between atoms: C_13  and  N_14
REMARK    7  A    between atoms: N_24  and  C_27
REMARK                            x       y       z     vdW  Elec       q    Type
REMARK                         _______ _______ _______ _____ _____    ______ ____
ROOT
ATOM      1  N   UNL     1       2.350   3.895   0.003  0.00  0.00    -0.243 N 
ATOM      2  C   UNL     1       1.163   3.177  -0.017  0.00  0.00    +0.065 A 
ATOM      3  C   UNL     1       1.160   1.787  -0.048  0.00  0.00    +0.025 A 
ATOM      4  C   UNL     1      -0.039   1.102  -0.067  0.00  0.00    +0.002 A 
ATOM      5  C   UNL     1      -1.245   1.780  -0.060  0.00  0.00    +0.002 A 
ATOM      6  C   UNL     1      -1.254   3.168  -0.023  0.00  0.00    +0.031 A 
ATOM      7  C   UNL     1      -0.066   3.840  -0.005  0.00  0.00    +0.131 A 
ATOM      8  S   UNL     1       0.035   5.611   0.036  0.00  0.00    +0.084 S 
ATOM      9  O   UNL     1      -0.524   6.000   1.284  0.00  0.00    -0.149 OA
ATOM     10  O   UNL     1      -0.517   6.055  -1.196  0.00  0.00    -0.149 OA
ATOM     11  N   UNL     1       1.619   6.170   0.053  0.00  0.00    -0.123 N 
ATOM     12  C   UNL     1       2.564   5.200   0.033  0.00  0.00    +0.333 C 
ATOM     13  O   UNL     1       3.724   5.565   0.044  0.00  0.00    -0.250 OA
ENDROOT
BRANCH  11  14
ATOM     14  C   UNL     1       1.938   7.532   0.085  0.00  0.00    +0.061 A 
ATOM     15  C   UNL     1       1.033   8.447   0.607  0.00  0.00    +0.025 A 
ATOM     16  C   UNL     1       1.353   9.790   0.642  0.00  0.00    +0.002 A 
ATOM     17  C   UNL     1       2.568  10.226   0.148  0.00  0.00    +0.000 A 
ATOM     18  C   UNL     1       3.470   9.318  -0.377  0.00  0.00    +0.002 A 
ATOM     19  C   UNL     1       3.158   7.973  -0.410  0.00  0.00    +0.025 A 
ENDBRANCH  11  14
BRANCH   1  20
ATOM     20  C   UNL     1       3.563   3.074  -0.013  0.00  0.00    +0.211 C 
BRANCH  20  22
ATOM     21  N   UNL     1       4.998   1.965  -1.694  0.00  0.00    -0.281 N 
ATOM     22  C   UNL     1       3.912   2.720  -1.435  0.00  0.00    +0.235 C 
ATOM     23  O   UNL     1       3.216   3.114  -2.347  0.00  0.00    -0.274 OA
ATOM     24  H   UNL     1       5.522   1.601  -0.963  0.00  0.00    +0.155 HD
BRANCH  21  30
ATOM     25  C   UNL     1       6.697   1.409  -3.327  0.00  0.00    +0.142 A 
ATOM     26  C   UNL     1       7.060   1.154  -4.640  0.00  0.00    +0.047 A 
ATOM     27  C   UNL     1       6.108   1.195  -5.641  0.00  0.00    +0.004 A 
ATOM     28  C   UNL     1       4.792   1.490  -5.337  0.00  0.00    +0.002 A 
ATOM     29  C   UNL     1       4.420   1.740  -4.029  0.00  0.00    +0.027 A 
ATOM     30  C   UNL     1       5.372   1.706  -3.020  0.00  0.00    +0.076 A 
BRANCH  25  31
ATOM     31  O   UNL     1       7.633   1.369  -2.341  0.00  0.00    -0.490 OA
BRANCH  31  33
ATOM     32  C   UNL     1       9.875   1.059  -1.495  0.00  0.00    +0.048 C 
ATOM     33  C   UNL     1       8.972   1.058  -2.730  0.00  0.00    +0.226 C 
ENDBRANCH  31  33
ENDBRANCH  25  31
ENDBRANCH  21  30
ENDBRANCH  20  22
ENDBRANCH   1  20
TORSDOF 6
