REMARK  Name = ZINC09009835
REMARK  6 active torsions:
REMARK  status: ('A' for Active; 'I' for Inactive)
REMARK    1  A    between atoms: C_1  and  C_2
REMARK    2  A    between atoms: C_11  and  N_27
REMARK    3  A    between atoms: N_27  and  C_28
REMARK    4  A    between atoms: C_28  and  C_29
REMARK    5  A    between atoms: C_29  and  N_64
REMARK    6  A    between atoms: C_34  and  C_36
REMARK                            x       y       z     vdW  Elec       q    Type
REMARK                         _______ _______ _______ _____ _____    ______ ____
ROOT
ATOM      1  C   UNL     1      -9.930  -2.648   4.596  0.00  0.00    +0.044 C 
ATOM      2  C   UNL     1      -8.634  -3.337   4.254  0.00  0.00    -0.047 A 
ATOM      3  C   UNL     1      -8.495  -4.694   4.483  0.00  0.00    +0.005 A 
ATOM      4  C   UNL     1      -7.308  -5.331   4.171  0.00  0.00    +0.029 A 
ATOM      5  C   UNL     1      -6.257  -4.607   3.628  0.00  0.00    +0.083 A 
ATOM      6  C   UNL     1      -6.397  -3.240   3.397  0.00  0.00    +0.152 A 
ATOM      7  C   UNL     1      -7.591  -2.610   3.713  0.00  0.00    +0.051 A 
ATOM      8  O   UNL     1      -5.373  -2.525   2.866  0.00  0.00    -0.452 OA
ATOM      9  C   UNL     1      -4.196  -3.119   2.549  0.00  0.00    +0.154 A 
ATOM     10  C   UNL     1      -3.171  -2.366   2.010  0.00  0.00    +0.072 A 
ATOM     11  C   UNL     1      -1.954  -2.959   1.678  0.00  0.00    +0.042 A 
ATOM     12  C   UNL     1      -1.762  -4.332   1.884  0.00  0.00    +0.056 A 
ATOM     13  C   UNL     1      -2.807  -5.107   2.441  0.00  0.00    +0.062 A 
ATOM     14  C   UNL     1      -4.019  -4.497   2.768  0.00  0.00    +0.094 A 
ATOM     15  N   UNL     1      -5.053  -5.245   3.309  0.00  0.00    -0.349 N 
ATOM     16  H   UNL     1      -4.943  -6.196   3.466  0.00  0.00    +0.166 HD
ATOM     17  C   UNL     1      -2.615  -6.547   2.667  0.00  0.00    +0.197 A 
ATOM     18  O   UNL     1      -3.514  -7.214   3.142  0.00  0.00    -0.287 OA
ATOM     19  C   UNL     1      -1.334  -7.184   2.301  0.00  0.00    +0.033 A 
ATOM     20  C   UNL     1      -1.144  -8.549   2.506  0.00  0.00    +0.012 A 
ATOM     21  C   UNL     1       0.062  -9.135   2.169  0.00  0.00    +0.001 A 
ATOM     22  C   UNL     1       1.085  -8.374   1.630  0.00  0.00    +0.001 A 
ATOM     23  C   UNL     1       0.913  -7.019   1.419  0.00  0.00    +0.012 A 
ATOM     24  C   UNL     1      -0.295  -6.411   1.752  0.00  0.00    +0.033 A 
ATOM     25  C   UNL     1      -0.487  -4.963   1.531  0.00  0.00    +0.196 A 
ATOM     26  O   UNL     1       0.413  -4.295   1.056  0.00  0.00    -0.287 OA
ENDROOT
BRANCH  11  27
ATOM     27  N   UNL     1      -0.934  -2.192   1.137  0.00  0.00    -0.345 N 
ATOM     28  H   UNL     1      -0.121  -2.618   0.824  0.00  0.00    +0.146 HD
BRANCH  27  29
ATOM     29  C   UNL     1      -1.085  -0.738   1.039  0.00  0.00    +0.083 C 
BRANCH  29  30
ATOM     30  C   UNL     1       0.173  -0.136   0.411  0.00  0.00    -0.060 C 
BRANCH  30  37
ATOM     31  C   UNL     1      -0.968   1.680  -0.710  0.00  0.00    -0.078 C 
ATOM     32  C   UNL     1      -1.206   3.192  -0.685  0.00  0.00    -0.019 C 
ATOM     33  C   UNL     1       0.116   3.916  -0.951  0.00  0.00    -0.003 C 
ATOM     34  C   UNL     1       1.145   3.489   0.100  0.00  0.00    -0.016 C 
ATOM     35  C   UNL     1       1.314   1.968   0.051  0.00  0.00    -0.072 C 
ATOM     36  C   UNL     1       2.326   1.534   1.114  0.00  0.00    -0.013 C 
ATOM     37  N   UNL     1       0.012   1.331   0.340  0.00  0.00    +0.382 N 
ATOM     38  H   UNL     1      -0.333   1.673   1.244  0.00  0.00    -0.081 HD
ENDBRANCH  30  37
ENDBRANCH  29  30
ENDBRANCH  27  29
ENDBRANCH  11  27
TORSDOF 4
