REMARK  Name = ZINC21071506
REMARK  15 active torsions:
REMARK  status: ('A' for Active; 'I' for Inactive)
REMARK    1  A    between atoms: C_1  and  C_2
REMARK    2  A    between atoms: C_2  and  N_3
REMARK    3  A    between atoms: N_3  and  C_4
REMARK    4  A    between atoms: N_3  and  C_6
REMARK    5  A    between atoms: C_4  and  C_5
REMARK    6  A    between atoms: C_6  and  C_8
REMARK    7  A    between atoms: C_6  and  C_28
REMARK    8  A    between atoms: C_8  and  N_9
REMARK    9  A    between atoms: C_10  and  C_12
REMARK   10  A    between atoms: C_12  and  C_13
REMARK   11  A    between atoms: C_13  and  N_14
REMARK   12  A    between atoms: C_15  and  C_21
REMARK   13  A    between atoms: C_25  and  C_27
REMARK   14  A    between atoms: C_32  and  O_34
REMARK   15  A    between atoms: O_34  and  C_35
REMARK                            x       y       z     vdW  Elec       q    Type
REMARK                         _______ _______ _______ _____ _____    ______ ____
ROOT
ATOM      1  N   UNL     1      -0.747   3.329   2.800  0.00  0.00    -0.316 N 
ATOM      2  C   UNL     1      -0.987   4.376   3.614  0.00  0.00    +0.215 C 
ATOM      3  O   UNL     1      -1.795   4.274   4.512  0.00  0.00    -0.276 OA
ATOM      4  H   UNL     1      -0.014   3.421   1.985  0.00  0.00    +0.149 HD
ENDROOT
BRANCH   1   5
ATOM      5  C   UNL     1      -1.464   2.067   3.000  0.00  0.00    +0.093 C 
BRANCH   5   6
ATOM      6  C   UNL     1      -1.010   1.050   1.950  0.00  0.00    -0.020 C 
BRANCH   6   7
ATOM      7  C   UNL     1      -1.589  -0.302   2.277  0.00  0.00    -0.056 A 
ATOM      8  C   UNL     1      -1.138  -0.997   3.384  0.00  0.00    +0.002 A 
ATOM      9  C   UNL     1      -1.671  -2.236   3.690  0.00  0.00    +0.004 A 
ATOM     10  C   UNL     1      -2.648  -2.787   2.884  0.00  0.00    +0.045 A 
ATOM     11  C   UNL     1      -3.099  -2.094   1.770  0.00  0.00    +0.120 A 
ATOM     12  C   UNL     1      -2.566  -0.849   1.468  0.00  0.00    +0.047 A 
BRANCH  11  13
ATOM     13  O   UNL     1      -4.059  -2.634   0.975  0.00  0.00    -0.495 OA
ATOM     14  C   UNL     1      -4.562  -3.919   1.346  0.00  0.00    +0.277 C 
ENDBRANCH  11  13
ENDBRANCH   6   7
BRANCH   6  15
ATOM     15  N   UNL     1       0.457   0.968   1.950  0.00  0.00    +0.385 N 
ATOM     16  H   UNL     1       0.853   1.994   1.951  0.00  0.00    -0.081 HD
BRANCH  15  18
ATOM     17  C   UNL     1       0.629   1.158  -0.485  0.00  0.00    -0.017 C 
ATOM     18  C   UNL     1       0.946   0.296   0.739  0.00  0.00    -0.081 C 
ENDBRANCH  15  18
BRANCH  15  19
ATOM     19  C   UNL     1       0.946   0.294   3.160  0.00  0.00    -0.081 C 
ATOM     20  C   UNL     1       0.507   1.083   4.396  0.00  0.00    -0.017 C 
ENDBRANCH  15  19
ENDBRANCH   6  15
ENDBRANCH   5   6
ENDBRANCH   1   5
BRANCH   2  21
ATOM     21  C   UNL     1      -0.249   5.674   3.407  0.00  0.00    +0.117 C 
BRANCH  21  22
ATOM     22  C   UNL     1      -0.703   6.691   4.457  0.00  0.00    +0.135 C 
BRANCH  22  23
ATOM     23  N   UNL     1       0.014   7.953   4.257  0.00  0.00    -0.303 N 
ATOM     24  C   UNL     1      -0.446   9.039   3.538  0.00  0.00    +0.163 A 
ATOM     25  N   UNL     1       0.459   9.976   3.579  0.00  0.00    -0.153 NA
ATOM     26  N   UNL     1       1.538   9.504   4.339  0.00  0.00    -0.254 N 
ATOM     27  H   UNL     1       2.420  10.142   4.498  0.00  0.00    +0.191 HD
ATOM     28  C   UNL     1       1.232   8.255   4.747  0.00  0.00    +0.176 A 
ATOM     29  S   UNL     1       2.215   7.238   5.712  0.00  0.00    -0.011 S 
BRANCH  24  30
ATOM     30  C   UNL     1      -1.747   9.124   2.838  0.00  0.00    +0.019 A 
ATOM     31  C   UNL     1      -2.312  10.369   2.559  0.00  0.00    +0.011 A 
ATOM     32  C   UNL     1      -3.523  10.442   1.902  0.00  0.00    +0.001 A 
ATOM     33  C   UNL     1      -4.182   9.284   1.530  0.00  0.00    +0.003 A 
ATOM     34  C   UNL     1      -3.630   8.046   1.808  0.00  0.00    -0.050 A 
ATOM     35  C   UNL     1      -2.416   7.960   2.460  0.00  0.00    +0.015 A 
ATOM     36  C   UNL     1      -4.355   6.790   1.400  0.00  0.00    +0.044 C 
ENDBRANCH  24  30
ENDBRANCH  22  23
ENDBRANCH  21  22
ENDBRANCH   2  21
TORSDOF 11
