REMARK  Name = ZINC36032819
REMARK  9 active torsions:
REMARK  status: ('A' for Active; 'I' for Inactive)
REMARK    1  A    between atoms: C_1  and  C_2
REMARK    2  A    between atoms: C_2  and  C_3
REMARK    3  A    between atoms: C_2  and  C_4
REMARK    4  A    between atoms: C_4  and  C_5
REMARK    5  A    between atoms: N_9  and  C_26
REMARK    6  A    between atoms: N_14  and  S_17
REMARK    7  A    between atoms: S_17  and  C_20
REMARK    8  A    between atoms: C_26  and  C_27
REMARK    9  A    between atoms: C_31  and  C_33
REMARK                            x       y       z     vdW  Elec       q    Type
REMARK                         _______ _______ _______ _____ _____    ______ ____
ROOT
ATOM      1  C   UNL     1      -0.673  -1.815   3.150  0.00  0.00    +0.019 C 
ATOM      2  C   UNL     1      -0.004  -1.798   4.507  0.00  0.00    +0.201 C 
ATOM      3  O   UNL     1       0.197  -2.766   5.211  0.00  0.00    -0.277 OA
ATOM      4  N   UNL     1       0.333  -0.525   4.803  0.00  0.00    -0.309 N 
ATOM      5  C   UNL     1      -0.080   0.356   3.707  0.00  0.00    +0.006 C 
ATOM      6  N   UNL     1      -0.318  -0.514   2.534  0.00  0.00    +0.401 N 
ATOM      7  C   UNL     1       1.028   1.360   3.391  0.00  0.00    +0.023 C 
ATOM      8  C   UNL     1       1.291   2.232   4.623  0.00  0.00    +0.109 C 
ATOM      9  N   UNL     1       0.023   2.835   5.055  0.00  0.00    -0.177 NA
ATOM     10  C   UNL     1      -1.126   1.956   5.313  0.00  0.00    +0.109 C 
ATOM     11  C   UNL     1      -1.370   1.087   4.075  0.00  0.00    +0.023 C 
ATOM     12  H   UNL     1       0.520  -0.599   1.979  0.00  0.00    -0.082 HD
ATOM     13  H   UNL     1      -1.082  -0.163   1.977  0.00  0.00    -0.082 HD
ENDROOT
BRANCH   9  14
ATOM     14  S   UNL     1      -0.108   4.474   5.248  0.00  0.00    +0.061 S 
ATOM     15  O   UNL     1      -1.175   4.691   6.162  0.00  0.00    -0.153 OA
ATOM     16  O   UNL     1       1.206   4.962   5.482  0.00  0.00    -0.153 OA
BRANCH  14  17
ATOM     17  C   UNL     1      -0.625   5.141   3.702  0.00  0.00    +0.105 A 
ATOM     18  C   UNL     1       0.316   5.528   2.767  0.00  0.00    +0.028 A 
ATOM     19  C   UNL     1      -0.089   6.051   1.553  0.00  0.00    +0.002 A 
ATOM     20  C   UNL     1      -1.436   6.188   1.275  0.00  0.00    +0.000 A 
ATOM     21  C   UNL     1      -2.378   5.800   2.210  0.00  0.00    +0.002 A 
ATOM     22  C   UNL     1      -1.972   5.273   3.422  0.00  0.00    +0.028 A 
ENDBRANCH  14  17
ENDBRANCH   9  14
BRANCH   1  23
ATOM     23  C   UNL     1      -0.133  -2.970   2.304  0.00  0.00    -0.004 C 
BRANCH  23  25
ATOM     24  C   UNL     1      -0.310  -4.135   0.101  0.00  0.00    +0.007 C 
ATOM     25  C   UNL     1      -0.929  -3.064   1.001  0.00  0.00    -0.018 C 
ATOM     26  C   UNL     1      -2.379  -3.437   1.315  0.00  0.00    +0.007 C 
ENDBRANCH  23  25
ENDBRANCH   1  23
BRANCH   4  27
ATOM     27  C   UNL     1       1.007  -0.092   6.029  0.00  0.00    +0.141 C 
BRANCH  27  28
ATOM     28  C   UNL     1       2.475  -0.416   5.937  0.00  0.00    -0.030 A 
ATOM     29  C   UNL     1       2.885  -1.726   5.771  0.00  0.00    +0.005 A 
ATOM     30  C   UNL     1       4.232  -2.024   5.686  0.00  0.00    +0.001 A 
ATOM     31  C   UNL     1       5.170  -1.012   5.768  0.00  0.00    +0.012 A 
ATOM     32  C   UNL     1       4.761   0.298   5.933  0.00  0.00    +0.055 A 
ATOM     33  C   UNL     1       3.413   0.596   6.013  0.00  0.00    +0.017 A 
BRANCH  32  34
ATOM     34  C   UNL     1       5.784   1.401   6.022  0.00  0.00    +0.417 C 
ATOM     35  F   UNL     1       7.067   0.857   5.912  0.00  0.00    -0.166 F 
ATOM     36  F   UNL     1       5.574   2.316   4.984  0.00  0.00    -0.166 F 
ATOM     37  F   UNL     1       5.658   2.055   7.252  0.00  0.00    -0.166 F 
ENDBRANCH  32  34
ENDBRANCH  27  28
ENDBRANCH   4  27
TORSDOF 7
