REMARK  Name = ZINC42524794
REMARK  2 active torsions:
REMARK  status: ('A' for Active; 'I' for Inactive)
REMARK    1  A    between atoms: C_4  and  S_7
REMARK    2  A    between atoms: S_7  and  N_10
REMARK                            x       y       z     vdW  Elec       q    Type
REMARK                         _______ _______ _______ _____ _____    ______ ____
ROOT
ATOM      1  S   UNL     1       1.527  -2.376  -0.026  0.00  0.00    +0.085 S 
ATOM      2  O   UNL     1       1.075  -2.885   1.220  0.00  0.00    -0.149 OA
ATOM      3  O   UNL     1       1.050  -2.870  -1.270  0.00  0.00    -0.149 OA
ENDROOT
BRANCH   1   4
ATOM      4  N   UNL     1       3.173  -2.560  -0.043  0.00  0.00    -0.154 N 
ATOM      5  C   UNL     1       4.009  -2.641  -1.251  0.00  0.00    +0.155 C 
ATOM      6  C   UNL     1       5.438  -2.807  -0.700  0.00  0.00    +0.126 C 
ATOM      7  N   UNL     1       5.256  -2.801   0.760  0.00  0.00    -0.296 N 
ATOM      8  C   UNL     1       3.955  -2.652   1.040  0.00  0.00    +0.322 C 
ATOM      9  O   UNL     1       3.522  -2.608   2.176  0.00  0.00    -0.251 OA
ATOM     10  H   UNL     1       5.966  -2.886   1.415  0.00  0.00    +0.150 HD
ENDBRANCH   1   4
BRANCH   1  14
ATOM     11  C   UNL     1      -0.017   1.379   0.010  0.00  0.00    +0.025 A 
ATOM     12  C   UNL     1       1.160   2.052   0.002  0.00  0.00    +0.048 A 
ATOM     13  S   UNL     1       2.348   0.720  -0.017  0.00  0.00    -0.076 S 
ATOM     14  C   UNL     1       1.197  -0.645  -0.013  0.00  0.00    +0.160 A 
ATOM     15  C   UNL     1       0.002  -0.004   0.002  0.00  0.00    +0.052 A 
ATOM     16 BR   UNL     1      -1.614  -0.986   0.013  0.00  0.00    -0.048 Br
ENDBRANCH   1  14
TORSDOF 2
