REMARK  Name = ZINC22765308
REMARK  12 active torsions:
REMARK  status: ('A' for Active; 'I' for Inactive)
REMARK    1  A    between atoms: C_1  and  C_2
REMARK    2  A    between atoms: C_3  and  N_15
REMARK    3  A    between atoms: N_6  and  C_9
REMARK    4  A    between atoms: N_7  and  C_8
REMARK    5  A    between atoms: C_16  and  C_18
REMARK    6  A    between atoms: C_18  and  C_19
REMARK    7  A    between atoms: C_19  and  S_20
REMARK    8  A    between atoms: S_20  and  C_21
REMARK    9  A    between atoms: C_24  and  C_31
REMARK   10  A    between atoms: N_25  and  C_26
REMARK   11  A    between atoms: C_26  and  C_27
REMARK   12  A    between atoms: C_27  and  C_28
REMARK                            x       y       z     vdW  Elec       q    Type
REMARK                         _______ _______ _______ _____ _____    ______ ____
ROOT
ATOM      1  C   UNL     1      -2.029   0.203  -0.661  0.00  0.00    +0.107 C 
ENDROOT
BRANCH   1   3
ATOM      2  N   UNL     1      -0.265   1.852  -0.121  0.00  0.00    -0.280 N 
ATOM      3  C   UNL     1      -0.601   0.684  -0.703  0.00  0.00    +0.218 C 
ATOM      4  O   UNL     1       0.246   0.019  -1.262  0.00  0.00    -0.275 OA
ATOM      5  H   UNL     1      -1.046   2.496   0.310  0.00  0.00    +0.155 HD
BRANCH   2   8
ATOM      6  C   UNL     1       1.190   2.734   2.432  0.00  0.00    +0.067 C 
ATOM      7  C   UNL     1       1.760   2.642   1.040  0.00  0.00    +0.059 A 
ATOM      8  C   UNL     1       1.086   2.248  -0.064  0.00  0.00    +0.121 A 
ATOM      9  C   UNL     1       2.018   2.316  -1.189  0.00  0.00    +0.293 A 
ATOM     10  O   UNL     1       1.775   2.041  -2.350  0.00  0.00    -0.264 OA
ATOM     11  N   UNL     1       3.200   2.741  -0.695  0.00  0.00    -0.216 N 
ATOM     12  N   UNL     1       3.048   2.941   0.682  0.00  0.00    -0.282 N 
ATOM     13  C   UNL     1       4.097   3.403   1.594  0.00  0.00    +0.171 C 
BRANCH  11  14
ATOM     14  C   UNL     1       4.371   2.947  -1.430  0.00  0.00    +0.067 A 
ATOM     15  C   UNL     1       5.080   4.133  -1.292  0.00  0.00    +0.028 A 
ATOM     16  C   UNL     1       6.240   4.331  -2.016  0.00  0.00    +0.002 A 
ATOM     17  C   UNL     1       6.689   3.354  -2.885  0.00  0.00    +0.000 A 
ATOM     18  C   UNL     1       5.983   2.174  -3.029  0.00  0.00    +0.002 A 
ATOM     19  C   UNL     1       4.826   1.968  -2.304  0.00  0.00    +0.028 A 
ENDBRANCH  11  14
ENDBRANCH   2   8
ENDBRANCH   1   3
BRANCH   1  20
ATOM     20  C   UNL     1      -2.138  -1.137  -1.390  0.00  0.00    +0.086 C 
BRANCH  20  21
ATOM     21  S   UNL     1      -3.852  -1.714  -1.339  0.00  0.00    -0.086 S 
BRANCH  21  22
ATOM     22  C   UNL     1      -3.692  -3.229  -2.225  0.00  0.00    +0.192 A 
ATOM     23  N   UNL     1      -2.587  -3.714  -2.745  0.00  0.00    -0.122 NA
ATOM     24  N   UNL     1      -2.825  -4.839  -3.318  0.00  0.00    -0.125 NA
ATOM     25  C   UNL     1      -4.101  -5.139  -3.208  0.00  0.00    +0.200 A 
ATOM     26  N   UNL     1      -4.695  -4.115  -2.503  0.00  0.00    -0.299 N 
BRANCH  25  27
ATOM     27  C   UNL     1      -4.767  -6.339  -3.736  0.00  0.00    +0.172 A 
ATOM     28  C   UNL     1      -4.256  -7.193  -4.667  0.00  0.00    +0.053 A 
ATOM     29  C   UNL     1      -5.224  -8.195  -4.873  0.00  0.00    +0.042 A 
ATOM     30  C   UNL     1      -6.270  -7.904  -4.074  0.00  0.00    +0.196 A 
ATOM     31  O   UNL     1      -5.991  -6.783  -3.389  0.00  0.00    -0.460 OA
ENDBRANCH  25  27
BRANCH  26  32
ATOM     32  C   UNL     1      -6.107  -4.000  -2.130  0.00  0.00    +0.135 C 
BRANCH  32  33
ATOM     33  C   UNL     1      -6.869  -3.267  -3.236  0.00  0.00    +0.117 C 
BRANCH  33  34
ATOM     34  C   UNL     1      -8.321  -3.149  -2.852  0.00  0.00    +0.212 C 
ATOM     35  O   UNL     1      -8.709  -3.606  -1.797  0.00  0.00    -0.276 OA
ATOM     36  N   UNL     1      -9.189  -2.535  -3.680  0.00  0.00    -0.329 N 
ATOM     37  H   UNL     1     -10.250  -2.449  -3.400  0.00  0.00    +0.145 HD
ATOM     38  H   UNL     1      -8.838  -2.120  -4.636  0.00  0.00    +0.145 HD
ENDBRANCH  33  34
ENDBRANCH  32  33
ENDBRANCH  26  32
ENDBRANCH  21  22
ENDBRANCH  20  21
ENDBRANCH   1  20
TORSDOF 10
