REMARK  Name = ZINC13305361
REMARK  5 active torsions:
REMARK  status: ('A' for Active; 'I' for Inactive)
REMARK    1  A    between atoms: C_4  and  C_7
REMARK    2  A    between atoms: C_9  and  C_27
REMARK    3  A    between atoms: N_13  and  N_14
REMARK    4  A    between atoms: C_15  and  C_16
REMARK    5  A    between atoms: C_32  and  O_33
REMARK                            x       y       z     vdW  Elec       q    Type
REMARK                         _______ _______ _______ _____ _____    ______ ____
ROOT
ATOM      1  C   UNL     1      -1.198   3.563   0.032  0.00  0.00    +0.077 A 
ATOM      2  C   UNL     1      -1.231   2.169   0.020  0.00  0.00    +0.057 A 
ATOM      3  C   UNL     1      -0.018   1.478   0.010  0.00  0.00    +0.080 A 
ATOM      4  N   UNL     1       1.121   2.169   0.003  0.00  0.00    -0.213 NA
ATOM      5  C   UNL     1       1.111   3.493   0.010  0.00  0.00    +0.236 A 
ATOM      6  N   UNL     1      -0.019   4.183   0.024  0.00  0.00    -0.213 NA
ATOM      7  N   UNL     1       2.316   4.175   0.002  0.00  0.00    -0.205 N 
ATOM      8  H   UNL     1       3.152   3.682  -0.009  0.00  0.00    +0.177 HD
ENDROOT
BRANCH   1  12
ATOM      9  C   UNL     1      -4.811   5.804   0.074  0.00  0.00    +0.000 A 
ATOM     10  C   UNL     1      -3.593   6.461   0.067  0.00  0.00    +0.001 A 
ATOM     11  C   UNL     1      -2.417   5.738   0.053  0.00  0.00    +0.010 A 
ATOM     12  C   UNL     1      -2.458   4.345   0.047  0.00  0.00    +0.001 A 
ATOM     13  C   UNL     1      -3.688   3.689   0.049  0.00  0.00    +0.010 A 
ATOM     14  C   UNL     1      -4.857   4.422   0.068  0.00  0.00    +0.001 A 
ENDBRANCH   1  12
BRANCH   3  15
ATOM     15  C   UNL     1       0.002  -0.004   0.002  0.00  0.00    +0.042 A 
ATOM     16  C   UNL     1      -1.194  -0.721   0.010  0.00  0.00    +0.013 A 
ATOM     17  C   UNL     1      -1.169  -2.100   0.002  0.00  0.00    +0.001 A 
ATOM     18  C   UNL     1       0.039  -2.776  -0.015  0.00  0.00    +0.004 A 
ATOM     19  C   UNL     1       1.230  -2.077  -0.022  0.00  0.00    +0.046 A 
ATOM     20  C   UNL     1       1.221  -0.690  -0.019  0.00  0.00    +0.126 A 
BRANCH  20  21
ATOM     21  O   UNL     1       2.391  -0.001  -0.032  0.00  0.00    -0.506 OA
ATOM     22  H   UNL     1       2.742   0.193   0.848  0.00  0.00    +0.292 HD
ENDBRANCH  20  21
ENDBRANCH   3  15
BRANCH   7  23
ATOM     23  N   UNL     1       2.329   5.575   0.008  0.00  0.00    -0.187 NA
ATOM     24  C   UNL     1       3.458   6.215   0.001  0.00  0.00    +0.144 C 
BRANCH  24  25
ATOM     25  C   UNL     1       3.471   7.689   0.008  0.00  0.00    +0.071 A 
ATOM     26  C   UNL     1       2.268   8.401   0.017  0.00  0.00    +0.173 A 
ATOM     27  C   UNL     1       2.287   9.784   0.029  0.00  0.00    +0.197 A 
ATOM     28  C   UNL     1       3.495  10.464   0.021  0.00  0.00    +0.199 A 
ATOM     29  C   UNL     1       4.692   9.763   0.006  0.00  0.00    +0.197 A 
ATOM     30  C   UNL     1       4.687   8.380  -0.001  0.00  0.00    +0.173 A 
ATOM     31  F   UNL     1       5.853   7.699  -0.015  0.00  0.00    -0.202 F 
ATOM     32  F   UNL     1       5.865  10.433  -0.002  0.00  0.00    -0.199 F 
ATOM     33  F   UNL     1       3.507  11.815   0.026  0.00  0.00    -0.199 F 
ATOM     34  F   UNL     1       1.125  10.474   0.044  0.00  0.00    -0.199 F 
ATOM     35  F   UNL     1       1.089   7.740   0.020  0.00  0.00    -0.202 F 
ENDBRANCH  24  25
ENDBRANCH   7  23
TORSDOF 5
