REMARK  Name = ZINC12541910
REMARK  12 active torsions:
REMARK  status: ('A' for Active; 'I' for Inactive)
REMARK    1  A    between atoms: C_1  and  C_2
REMARK    2  A    between atoms: C_2  and  N_3
REMARK    3  A    between atoms: C_7  and  C_9
REMARK    4  A    between atoms: C_9  and  C_11
REMARK    5  A    between atoms: C_9  and  O_12
REMARK    6  A    between atoms: O_12  and  C_13
REMARK    7  A    between atoms: C_13  and  C_15
REMARK    8  A    between atoms: C_19  and  S_21
REMARK    9  A    between atoms: S_21  and  N_24
REMARK   10  A    between atoms: N_24  and  C_25
REMARK   11  A    between atoms: N_24  and  C_32
REMARK   12  A    between atoms: C_25  and  C_26
REMARK                            x       y       z     vdW  Elec       q    Type
REMARK                         _______ _______ _______ _____ _____    ______ ____
ROOT
ATOM      1  C   UNL     1       0.279  -1.527  -4.346  0.00  0.00    +0.061 A 
ATOM      2  C   UNL     1      -0.770  -1.685  -3.438  0.00  0.00    +0.015 A 
ATOM      3  C   UNL     1      -0.503  -2.066  -2.140  0.00  0.00    +0.003 A 
ATOM      4  C   UNL     1       0.801  -2.298  -1.738  0.00  0.00    +0.029 A 
ATOM      5  C   UNL     1       1.845  -2.139  -2.631  0.00  0.00    +0.110 A 
ATOM      6  C   UNL     1       1.592  -1.758  -3.933  0.00  0.00    +0.043 A 
ENDROOT
BRANCH   5   7
ATOM      7  S   UNL     1       3.502  -2.431  -2.107  0.00  0.00    +0.075 S 
ATOM      8  O   UNL     1       4.275  -2.611  -3.286  0.00  0.00    -0.150 OA
ATOM      9  O   UNL     1       3.437  -3.414  -1.082  0.00  0.00    -0.150 OA
BRANCH   7  10
ATOM     10  N   UNL     1       4.043  -1.038  -1.394  0.00  0.00    -0.199 N 
BRANCH  10  11
ATOM     11  C   UNL     1       4.668  -0.056  -2.165  0.00  0.00    +0.052 A 
ATOM     12  C   UNL     1       4.378   0.056  -3.519  0.00  0.00    +0.025 A 
ATOM     13  C   UNL     1       4.994   1.032  -4.277  0.00  0.00    +0.002 A 
ATOM     14  C   UNL     1       5.908   1.889  -3.693  0.00  0.00    +0.000 A 
ATOM     15  C   UNL     1       6.204   1.777  -2.347  0.00  0.00    +0.002 A 
ATOM     16  C   UNL     1       5.587   0.807  -1.581  0.00  0.00    +0.025 A 
ENDBRANCH  10  11
BRANCH  10  17
ATOM     17  C   UNL     1       3.865  -0.836   0.046  0.00  0.00    +0.166 C 
BRANCH  17  18
ATOM     18  C   UNL     1       2.729   0.125   0.282  0.00  0.00    -0.028 A 
ATOM     19  C   UNL     1       1.460  -0.357   0.549  0.00  0.00    +0.005 A 
ATOM     20  C   UNL     1       0.418   0.525   0.765  0.00  0.00    +0.000 A 
ATOM     21  C   UNL     1       0.643   1.888   0.715  0.00  0.00    +0.000 A 
ATOM     22  C   UNL     1       1.912   2.369   0.449  0.00  0.00    +0.000 A 
ATOM     23  C   UNL     1       2.954   1.488   0.233  0.00  0.00    +0.005 A 
ENDBRANCH  17  18
ENDBRANCH  10  17
ENDBRANCH   7  10
ENDBRANCH   5   7
BRANCH   1  24
ATOM     24  C   UNL     1       0.000  -1.119  -5.738  0.00  0.00    +0.340 C 
ATOM     25  O   UNL     1       0.915  -0.984  -6.526  0.00  0.00    -0.245 OA
BRANCH  24  26
ATOM     26  O   UNL     1      -1.268  -0.898  -6.134  0.00  0.00    -0.449 OA
BRANCH  26  27
ATOM     27  C   UNL     1      -1.468  -0.499  -7.516  0.00  0.00    +0.259 C 
ATOM     28  C   UNL     1      -1.661  -1.745  -8.383  0.00  0.00    +0.062 C 
BRANCH  27  33
ATOM     29  N   UNL     1      -4.547   2.142 -10.095  0.00  0.00    -0.299 N 
ATOM     30  C   UNL     1      -4.165   1.651  -8.900  0.00  0.00    +0.306 C 
ATOM     31  O   UNL     1      -4.807   1.914  -7.902  0.00  0.00    -0.252 OA
ATOM     32  N   UNL     1      -3.072   0.867  -8.811  0.00  0.00    -0.237 N 
ATOM     33  C   UNL     1      -2.690   0.376  -7.615  0.00  0.00    +0.261 C 
ATOM     34  O   UNL     1      -3.330   0.639  -6.620  0.00  0.00    -0.271 OA
ATOM     35  H   UNL     1      -4.035   1.932 -10.892  0.00  0.00    +0.150 HD
ATOM     36  H   UNL     1      -2.560   0.657  -9.607  0.00  0.00    +0.159 HD
BRANCH  29  38
ATOM     37  C   UNL     1      -5.945   3.413 -11.648  0.00  0.00    +0.024 C 
ATOM     38  C   UNL     1      -5.735   2.993 -10.192  0.00  0.00    +0.102 C 
ENDBRANCH  29  38
ENDBRANCH  27  33
ENDBRANCH  26  27
ENDBRANCH  24  26
ENDBRANCH   1  24
TORSDOF 10
