REMARK  Name = ZINC40476479
REMARK  8 active torsions:
REMARK  status: ('A' for Active; 'I' for Inactive)
REMARK    1  A    between atoms: C_1  and  C_2
REMARK    2  A    between atoms: C_2  and  C_3
REMARK    3  A    between atoms: C_2  and  C_4
REMARK    4  A    between atoms: C_4  and  S_5
REMARK    5  A    between atoms: S_5  and  C_6
REMARK    6  A    between atoms: C_17  and  C_19
REMARK    7  A    between atoms: C_30  and  C_32
REMARK    8  A    between atoms: C_30  and  C_33
REMARK                            x       y       z     vdW  Elec       q    Type
REMARK                         _______ _______ _______ _____ _____    ______ ____
ROOT
ATOM      1  C   UNL     1       0.781  -0.698   4.053  0.00  0.00    +0.171 A 
ATOM      2  N   UNL     1       0.355  -0.528   5.336  0.00  0.00    -0.302 N 
ATOM      3  H   UNL     1      -0.472  -0.054   5.513  0.00  0.00    +0.171 HD
ATOM      4  C   UNL     1       1.082  -1.020   6.362  0.00  0.00    +0.258 A 
ATOM      5  O   UNL     1       0.707  -0.877   7.514  0.00  0.00    -0.267 OA
ATOM      6  C   UNL     1       2.274  -1.698   6.079  0.00  0.00    +0.069 A 
ATOM      7  C   UNL     1       2.665  -1.837   4.758  0.00  0.00    +0.135 A 
ATOM      8  N   UNL     1       1.900  -1.339   3.781  0.00  0.00    -0.208 NA
ATOM      9  N   UNL     1       3.842  -2.494   4.460  0.00  0.00    -0.302 N 
ATOM     10  C   UNL     1       4.808  -2.662   5.414  0.00  0.00    +0.017 C 
ATOM     11  C   UNL     1       4.511  -2.562   6.727  0.00  0.00    +0.024 C 
ATOM     12  C   UNL     1       3.107  -2.263   7.190  0.00  0.00    +0.094 C 
ATOM     13  C   UNL     1       5.501  -2.740   7.709  0.00  0.00    +0.162 C 
ATOM     14  O   UNL     1       5.205  -2.624   8.882  0.00  0.00    -0.292 OA
ATOM     15  C   UNL     1       6.920  -3.071   7.337  0.00  0.00    +0.086 C 
ATOM     16  C   UNL     1       6.923  -3.825   6.003  0.00  0.00    -0.023 C 
ATOM     17  C   UNL     1       6.216  -2.959   4.958  0.00  0.00    +0.058 C 
ATOM     18  C   UNL     1       6.180  -5.153   6.159  0.00  0.00    +0.011 C 
ATOM     19  C   UNL     1       8.364  -4.089   5.563  0.00  0.00    +0.011 C 
ATOM     20  H   UNL     1       3.986  -2.839   3.564  0.00  0.00    +0.153 HD
ENDROOT
BRANCH  12  21
ATOM     21  C   UNL     1       2.469  -3.535   7.686  0.00  0.00    -0.015 A 
ATOM     22  C   UNL     1       2.292  -4.601   6.825  0.00  0.00    +0.006 A 
ATOM     23  C   UNL     1       1.708  -5.768   7.279  0.00  0.00    +0.002 A 
ATOM     24  C   UNL     1       1.298  -5.870   8.596  0.00  0.00    +0.021 A 
ATOM     25  C   UNL     1       1.474  -4.804   9.459  0.00  0.00    +0.060 A 
ATOM     26  C   UNL     1       2.066  -3.637   9.005  0.00  0.00    +0.063 A 
ATOM     27 CL   UNL     1       2.295  -2.301  10.090  0.00  0.00    -0.082 Cl
ATOM     28 CL   UNL     1       0.961  -4.931  11.113  0.00  0.00    -0.082 Cl
ENDBRANCH  12  21
BRANCH   1  29
ATOM     29  S   UNL     1      -0.187  -0.052   2.730  0.00  0.00    -0.088 S 
BRANCH  29  30
ATOM     30  C   UNL     1       0.742  -0.511   1.242  0.00  0.00    +0.080 C 
BRANCH  30  32
ATOM     31  C   UNL     1      -0.019   1.526   0.010  0.00  0.00    +0.008 C 
ATOM     32  C   UNL     1       0.002  -0.004   0.002  0.00  0.00    -0.007 C 
ATOM     33  C   UNL     1       0.718  -0.497  -1.257  0.00  0.00    +0.008 C 
ENDBRANCH  30  32
ENDBRANCH  29  30
ENDBRANCH   1  29
TORSDOF 4
