REMARK  Name = ZINC10137402
REMARK  9 active torsions:
REMARK  status: ('A' for Active; 'I' for Inactive)
REMARK    1  A    between atoms: C_1  and  C_2
REMARK    2  A    between atoms: C_2  and  C_3
REMARK    3  A    between atoms: C_2  and  C_4
REMARK    4  A    between atoms: C_4  and  C_6
REMARK    5  A    between atoms: C_4  and  N_44
REMARK    6  A    between atoms: C_13  and  C_14
REMARK    7  A    between atoms: C_13  and  N_44
REMARK    8  A    between atoms: N_16  and  C_17
REMARK    9  A    between atoms: C_20  and  N_24
REMARK                            x       y       z     vdW  Elec       q    Type
REMARK                         _______ _______ _______ _____ _____    ______ ____
ROOT
ATOM      1  C   UNL     1       1.102   1.237   4.683  0.00  0.00    +0.016 C 
ENDROOT
BRANCH   1   2
ATOM      2  C   UNL     1       0.686   1.810   6.014  0.00  0.00    +0.200 C 
ATOM      3  O   UNL     1      -0.488   1.860   6.312  0.00  0.00    -0.278 OA
ATOM      4  N   UNL     1       1.620   2.267   6.872  0.00  0.00    -0.286 N 
ATOM      5  H   UNL     1       2.552   2.296   6.604  0.00  0.00    +0.155 HD
BRANCH   4   6
ATOM      6  C   UNL     1       1.244   2.698   8.150  0.00  0.00    +0.052 A 
ATOM      7  C   UNL     1       0.036   2.287   8.696  0.00  0.00    +0.027 A 
ATOM      8  C   UNL     1      -0.332   2.714   9.957  0.00  0.00    +0.034 A 
ATOM      9  C   UNL     1       0.502   3.550  10.676  0.00  0.00    +0.128 A 
ATOM     10  C   UNL     1       1.706   3.962  10.136  0.00  0.00    +0.054 A 
ATOM     11  C   UNL     1       2.083   3.534   8.877  0.00  0.00    +0.064 A 
ATOM     12 CL   UNL     1       3.598   4.045   8.202  0.00  0.00    -0.082 Cl
BRANCH   9  13
ATOM     13  N   UNL     1       0.104   4.005  12.027  0.00  0.00    +0.056 N 
ATOM     14  O   UNL     1      -0.956   3.643  12.504  0.00  0.00    -0.126 OA
ATOM     15  O   UNL     1       0.837   4.742  12.662  0.00  0.00    -0.126 OA
ENDBRANCH   9  13
ENDBRANCH   4   6
ENDBRANCH   1   2
BRANCH   1  16
ATOM     16  N   UNL     1      -0.101   0.814   3.942  0.00  0.00    +0.389 N 
ATOM     17  H   UNL     1      -0.607   0.110   4.491  0.00  0.00    -0.084 HD
ATOM     18  H   UNL     1      -0.707   1.629   3.787  0.00  0.00    -0.084 HD
BRANCH  16  19
ATOM     19  C   UNL     1       0.278   0.235   2.639  0.00  0.00    -0.038 C 
BRANCH  19  20
ATOM     20  C   UNL     1       0.588  -1.230   2.811  0.00  0.00    -0.061 A 
ATOM     21  C   UNL     1      -0.182  -2.004   3.659  0.00  0.00    +0.003 A 
ATOM     22  C   UNL     1       0.098  -3.349   3.813  0.00  0.00    +0.020 A 
ATOM     23  C   UNL     1       1.157  -3.917   3.127  0.00  0.00    +0.041 A 
ATOM     24  C   UNL     1       1.931  -3.140   2.283  0.00  0.00    +0.020 A 
ATOM     25  C   UNL     1       1.646  -1.797   2.126  0.00  0.00    +0.003 A 
ATOM     26 CL   UNL     1       1.514  -5.604   3.325  0.00  0.00    -0.084 Cl
ENDBRANCH  19  20
BRANCH  19  28
ATOM     27  C   UNL     1      -0.541  -0.292   0.338  0.00  0.00    +0.006 C 
ATOM     28  C   UNL     1      -0.886   0.398   1.659  0.00  0.00    -0.027 C 
ATOM     29  C   UNL     1      -1.136   1.887   1.408  0.00  0.00    +0.006 C 
ENDBRANCH  19  28
ENDBRANCH  16  19
ENDBRANCH   1  16
TORSDOF 7
