REMARK  Name = ZINC34731652
REMARK  6 active torsions:
REMARK  status: ('A' for Active; 'I' for Inactive)
REMARK    1  A    between atoms: C_1  and  C_2
REMARK    2  A    between atoms: C_2  and  C_3
REMARK    3  A    between atoms: C_4  and  C_28
REMARK    4  A    between atoms: N_15  and  C_18
REMARK    5  A    between atoms: C_18  and  C_19
REMARK    6  A    between atoms: C_22  and  N_25
REMARK                            x       y       z     vdW  Elec       q    Type
REMARK                         _______ _______ _______ _____ _____    ______ ____
ROOT
ATOM      1  C   UNL     1       0.731  -0.503   1.223  0.00  0.00    -0.040 C 
ATOM      2  C   UNL     1       0.138  -0.860   2.347  0.00  0.00    -0.064 C 
ATOM      3  C   UNL     1       1.218  -1.295   3.311  0.00  0.00    +0.073 C 
ATOM      4  C   UNL     1       2.500  -1.127   2.553  0.00  0.00    +0.004 A 
ATOM      5  C   UNL     1       2.210  -0.662   1.309  0.00  0.00    +0.003 A 
ATOM      6  C   UNL     1       3.365  -0.440   0.411  0.00  0.00    +0.078 A 
ATOM      7  C   UNL     1       3.355   0.059  -0.980  0.00  0.00    +0.263 A 
ATOM      8  O   UNL     1       2.305   0.344  -1.526  0.00  0.00    -0.267 OA
ATOM      9  N   UNL     1       4.522   0.193  -1.635  0.00  0.00    -0.274 N 
ATOM     10  H   UNL     1       4.515   0.520  -2.548  0.00  0.00    +0.173 HD
ATOM     11  C   UNL     1       5.698  -0.113  -1.061  0.00  0.00    +0.330 A 
ATOM     12  O   UNL     1       6.725   0.027  -1.695  0.00  0.00    -0.246 OA
ATOM     13  N   UNL     1       5.760  -0.571   0.205  0.00  0.00    -0.283 N 
ATOM     14  C   UNL     1       4.617  -0.736   0.938  0.00  0.00    +0.098 A 
ATOM     15  S   UNL     1       4.265  -1.282   2.588  0.00  0.00    -0.074 S 
ATOM     16  C   UNL     1      -1.344  -0.837   2.620  0.00  0.00    +0.039 C 
ENDROOT
BRANCH   1  18
ATOM     17  C   UNL     1      -0.019   1.526   0.010  0.00  0.00    +0.009 C 
ATOM     18  C   UNL     1       0.002  -0.004   0.002  0.00  0.00    +0.032 C 
ENDBRANCH   1  18
BRANCH  13  19
ATOM     19  C   UNL     1       7.059  -0.894   0.800  0.00  0.00    +0.162 C 
BRANCH  19  20
ATOM     20  C   UNL     1       7.619   0.328   1.480  0.00  0.00    -0.027 A 
ATOM     21  C   UNL     1       8.415   1.209   0.773  0.00  0.00    +0.007 A 
ATOM     22  C   UNL     1       8.929   2.331   1.397  0.00  0.00    +0.033 A 
ATOM     23  C   UNL     1       8.645   2.572   2.728  0.00  0.00    +0.126 A 
ATOM     24  C   UNL     1       7.848   1.691   3.435  0.00  0.00    +0.033 A 
ATOM     25  C   UNL     1       7.331   0.572   2.810  0.00  0.00    +0.007 A 
BRANCH  23  26
ATOM     26  N   UNL     1       9.196   3.772   3.397  0.00  0.00    +0.056 N 
ATOM     27  O   UNL     1       9.893   4.542   2.779  0.00  0.00    -0.126 OA
ATOM     28  O   UNL     1       8.948   3.982   4.561  0.00  0.00    -0.126 OA
ENDBRANCH  23  26
ENDBRANCH  19  20
ENDBRANCH  13  19
TORSDOF 4
