REMARK  Name = ZINC41584803
REMARK  11 active torsions:
REMARK  status: ('A' for Active; 'I' for Inactive)
REMARK    1  A    between atoms: C_1  and  C_2
REMARK    2  A    between atoms: C_10  and  C_31
REMARK    3  A    between atoms: C_11  and  O_30
REMARK    4  A    between atoms: C_12  and  C_13
REMARK    5  A    between atoms: C_13  and  N_14
REMARK    6  A    between atoms: C_31  and  C_32
REMARK    7  A    between atoms: C_32  and  C_33
REMARK    8  A    between atoms: C_33  and  O_35
REMARK    9  A    between atoms: O_35  and  C_36
REMARK   10  A    between atoms: C_36  and  C_37
REMARK   11  A    between atoms: C_36  and  C_38
REMARK                            x       y       z     vdW  Elec       q    Type
REMARK                         _______ _______ _______ _____ _____    ______ ____
ROOT
ATOM      1  C   UNL     1      -0.018   1.503   0.010  0.00  0.00    +0.045 C 
ATOM      2  C   UNL     1       0.002  -0.004   0.002  0.00  0.00    -0.033 A 
ATOM      3  C   UNL     1       0.006  -0.695  -1.167  0.00  0.00    +0.096 A 
ATOM      4  C   UNL     1       0.026  -2.105  -1.149  0.00  0.00    +0.337 A 
ATOM      5  O   UNL     1       0.030  -2.712  -2.204  0.00  0.00    -0.245 OA
ATOM      6  O   UNL     1       0.041  -2.795   0.003  0.00  0.00    -0.422 OA
ATOM      7  C   UNL     1       0.038  -2.169   1.199  0.00  0.00    +0.144 A 
ATOM      8  C   UNL     1       0.024  -0.763   1.254  0.00  0.00    +0.021 A 
ATOM      9  C   UNL     1       0.026  -0.111   2.492  0.00  0.00    +0.019 A 
ATOM     10  C   UNL     1       0.046  -0.842   3.644  0.00  0.00    -0.004 A 
ATOM     11  C   UNL     1       0.066  -2.234   3.596  0.00  0.00    +0.125 A 
ATOM     12  C   UNL     1       0.053  -2.897   2.379  0.00  0.00    +0.021 A 
ENDROOT
BRANCH  11  13
ATOM     13  O   UNL     1       0.086  -2.948   4.751  0.00  0.00    -0.506 OA
ATOM     14  H   UNL     1      -0.791  -3.167   5.093  0.00  0.00    +0.292 HD
ENDBRANCH  11  13
BRANCH  12  15
ATOM     15  C   UNL     1       0.074  -4.403   2.338  0.00  0.00    -0.036 C 
BRANCH  15  16
ATOM     16  N   UNL     1       1.465  -4.874   2.319  0.00  0.00    +0.383 N 
ATOM     17  C   UNL     1       1.486  -6.337   2.408  0.00  0.00    -0.073 C 
ATOM     18  C   UNL     1       2.911  -6.869   2.389  0.00  0.00    -0.007 C 
ATOM     19  C   UNL     1       3.652  -6.387   1.137  0.00  0.00    +0.011 C 
ATOM     20  C   UNL     1       3.589  -4.855   1.128  0.00  0.00    +0.020 C 
ATOM     21  C   UNL     1       2.110  -4.441   1.070  0.00  0.00    -0.069 C 
ATOM     22  C   UNL     1       4.170  -4.329   2.421  0.00  0.00    +0.023 A 
ATOM     23  C   UNL     1       4.750  -3.100   2.395  0.00  0.00    +0.022 A 
ATOM     24  C   UNL     1       5.251  -2.526   3.569  0.00  0.00    +0.007 A 
ATOM     25  C   UNL     1       5.124  -3.209   4.743  0.00  0.00    +0.070 A 
ATOM     26  C   UNL     1       4.517  -4.473   4.736  0.00  0.00    +0.251 A 
ATOM     27  O   UNL     1       4.342  -5.065   5.788  0.00  0.00    -0.268 OA
ATOM     28  N   UNL     1       4.122  -5.043   3.571  0.00  0.00    -0.312 N 
ATOM     29  C   UNL     1       3.691  -6.437   3.619  0.00  0.00    +0.126 C 
ATOM     30  H   UNL     1       1.962  -4.484   3.105  0.00  0.00    -0.081 HD
ENDBRANCH  15  16
ENDBRANCH  12  15
BRANCH  10  31
ATOM     31  C   UNL     1       0.049  -0.139   4.978  0.00  0.00    +0.050 C 
BRANCH  31  32
ATOM     32  C   UNL     1       1.489   0.007   5.474  0.00  0.00    +0.125 C 
BRANCH  32  33
ATOM     33  C   UNL     1       1.491   0.710   6.807  0.00  0.00    +0.308 C 
ATOM     34  O   UNL     1       0.449   1.058   7.309  0.00  0.00    -0.251 OA
BRANCH  33  35
ATOM     35  O   UNL     1       2.652   0.949   7.438  0.00  0.00    -0.462 OA
BRANCH  35  36
ATOM     36  C   UNL     1       2.580   1.619   8.698  0.00  0.00    +0.170 C 
ATOM     37  C   UNL     1       2.451   0.586   9.819  0.00  0.00    +0.052 C 
ATOM     38  C   UNL     1       3.849   2.446   8.909  0.00  0.00    +0.052 C 
ENDBRANCH  35  36
ENDBRANCH  33  35
ENDBRANCH  32  33
ENDBRANCH  31  32
ENDBRANCH  10  31
TORSDOF 8
