REMARK  Name = ZINC02627861
REMARK  10 active torsions:
REMARK  status: ('A' for Active; 'I' for Inactive)
REMARK    1  A    between atoms: C_1  and  C_2
REMARK    2  A    between atoms: C_3  and  C_33
REMARK    3  A    between atoms: C_4  and  C_32
REMARK    4  A    between atoms: C_7  and  C_8
REMARK    5  A    between atoms: C_8  and  C_10
REMARK    6  A    between atoms: C_10  and  S_11
REMARK    7  A    between atoms: S_11  and  C_12
REMARK    8  A    between atoms: C_15  and  C_23
REMARK    9  A    between atoms: N_16  and  C_17
REMARK   10  A    between atoms: C_33  and  C_35
REMARK                            x       y       z     vdW  Elec       q    Type
REMARK                         _______ _______ _______ _____ _____    ______ ____
ROOT
ATOM      1  C   UNL     1      -4.510  -2.329   0.143  0.00  0.00    +0.197 A 
ATOM      2  N   UNL     1      -3.455  -3.113   0.128  0.00  0.00    -0.122 NA
ATOM      3  N   UNL     1      -3.815  -4.335  -0.037  0.00  0.00    -0.128 NA
ATOM      4  C   UNL     1      -5.122  -4.410  -0.138  0.00  0.00    +0.169 A 
ATOM      5  N   UNL     1      -5.610  -3.127  -0.020  0.00  0.00    -0.270 N 
ENDROOT
BRANCH   4   6
ATOM      6  C   UNL     1      -5.919  -5.639  -0.335  0.00  0.00    +0.023 A 
ATOM      7  C   UNL     1      -7.236  -5.553  -0.790  0.00  0.00    +0.015 A 
ATOM      8  C   UNL     1      -7.978  -6.701  -0.974  0.00  0.00    +0.050 A 
ATOM      9  C   UNL     1      -7.421  -7.943  -0.707  0.00  0.00    +0.166 A 
ATOM     10  C   UNL     1      -6.106  -8.035  -0.253  0.00  0.00    +0.167 A 
ATOM     11  C   UNL     1      -5.355  -6.888  -0.073  0.00  0.00    +0.061 A 
ATOM     12  O   UNL     1      -5.800  -9.353  -0.068  0.00  0.00    -0.453 OA
ATOM     13  C   UNL     1      -6.799 -10.086  -0.801  0.00  0.00    +0.466 C 
ATOM     14  O   UNL     1      -7.937  -9.203  -0.806  0.00  0.00    -0.453 OA
ENDBRANCH   4   6
BRANCH   5  15
ATOM     15  C   UNL     1      -6.952  -2.723  -0.062  0.00  0.00    +0.051 A 
ATOM     16  C   UNL     1      -7.817  -3.081   0.963  0.00  0.00    +0.026 A 
ATOM     17  C   UNL     1      -9.138  -2.678   0.922  0.00  0.00    +0.002 A 
ATOM     18  C   UNL     1      -9.600  -1.928  -0.144  0.00  0.00    +0.000 A 
ATOM     19  C   UNL     1      -8.741  -1.574  -1.168  0.00  0.00    +0.002 A 
ATOM     20  C   UNL     1      -7.419  -1.970  -1.130  0.00  0.00    +0.026 A 
ENDBRANCH   5  15
BRANCH   1  21
ATOM     21  S   UNL     1      -4.509  -0.578   0.343  0.00  0.00    -0.078 S 
BRANCH  21  22
ATOM     22  C   UNL     1      -2.730  -0.281   0.502  0.00  0.00    +0.158 C 
BRANCH  22  23
ATOM     23  C   UNL     1      -2.482   1.193   0.689  0.00  0.00    +0.190 C 
ATOM     24  O   UNL     1      -3.417   1.968   0.712  0.00  0.00    -0.290 OA
BRANCH  23  31
ATOM     25  C   UNL     1      -1.718   4.178   1.093  0.00  0.00    +0.047 C 
ATOM     26  C   UNL     1      -0.793   2.991   1.017  0.00  0.00    -0.012 A 
ATOM     27  C   UNL     1       0.617   3.014   1.112  0.00  0.00    +0.041 A 
ATOM     28  C   UNL     1       1.055   1.703   0.990  0.00  0.00    +0.024 A 
ATOM     29  N   UNL     1      -0.012   0.908   0.829  0.00  0.00    -0.355 N 
ATOM     30  H   UNL     1       0.018  -0.056   0.720  0.00  0.00    +0.166 HD
ATOM     31  C   UNL     1      -1.159   1.675   0.837  0.00  0.00    +0.087 A 
ATOM     32  C   UNL     1       2.491   1.249   1.031  0.00  0.00    +0.064 C 
BRANCH  27  33
ATOM     33  C   UNL     1       1.458   4.199   1.303  0.00  0.00    +0.162 C 
ATOM     34  O   UNL     1       1.811   4.519   2.419  0.00  0.00    -0.292 OA
ATOM     35  C   UNL     1       1.884   5.021   0.114  0.00  0.00    +0.091 C 
ENDBRANCH  27  33
ENDBRANCH  23  31
ENDBRANCH  22  23
ENDBRANCH  21  22
ENDBRANCH   1  21
TORSDOF 7
