REMARK  Name = ZINC59337541
REMARK  12 active torsions:
REMARK  status: ('A' for Active; 'I' for Inactive)
REMARK    1  A    between atoms: C_1  and  N_2
REMARK    2  A    between atoms: N_2  and  C_3
REMARK    3  A    between atoms: N_2  and  C_26
REMARK    4  A    between atoms: C_3  and  C_4
REMARK    5  A    between atoms: C_9  and  N_10
REMARK    6  A    between atoms: N_13  and  C_14
REMARK    7  A    between atoms: N_13  and  C_17
REMARK    8  A    between atoms: C_14  and  C_15
REMARK    9  A    between atoms: C_15  and  O_16
REMARK   10  A    between atoms: C_17  and  C_18
REMARK   11  A    between atoms: C_23  and  O_24
REMARK   12  A    between atoms: O_24  and  C_25
REMARK                            x       y       z     vdW  Elec       q    Type
REMARK                         _______ _______ _______ _____ _____    ______ ____
ROOT
ATOM      1  N   UNL     1       2.618  -1.907   0.322  0.00  0.00    -0.269 N 
ATOM      2  C   UNL     1       3.306  -2.312   1.407  0.00  0.00    +0.307 C 
ATOM      3  O   UNL     1       4.243  -1.653   1.814  0.00  0.00    -0.252 OA
ATOM      4  N   UNL     1       2.955  -3.449   2.042  0.00  0.00    -0.279 N 
ATOM      5  H   UNL     1       1.822  -2.387   0.045  0.00  0.00    +0.156 HD
ENDROOT
BRANCH   1  11
ATOM      6  C   UNL     1       2.149  -0.066  -1.170  0.00  0.00    -0.043 A 
ATOM      7  C   UNL     1       2.579   1.036  -1.883  0.00  0.00    +0.003 A 
ATOM      8  C   UNL     1       3.909   1.411  -1.842  0.00  0.00    +0.000 A 
ATOM      9  C   UNL     1       4.813   0.684  -1.088  0.00  0.00    +0.002 A 
ATOM     10  C   UNL     1       4.389  -0.418  -0.372  0.00  0.00    +0.023 A 
ATOM     11  C   UNL     1       3.052  -0.794  -0.407  0.00  0.00    +0.036 A 
BRANCH   6  12
ATOM     12  C   UNL     1       0.699  -0.474  -1.215  0.00  0.00    -0.041 C 
BRANCH  12  14
ATOM     13  C   UNL     1       0.006   1.481  -0.010  0.00  0.00    -0.095 C 
ATOM     14  N   UNL     1       0.015   0.012  -0.009  0.00  0.00    +0.382 N 
ATOM     15  H   UNL     1       0.502  -0.320   0.810  0.00  0.00    -0.081 HD
BRANCH  14  16
ATOM     16  C   UNL     1      -1.366  -0.486   0.006  0.00  0.00    -0.069 C 
ATOM     17  C   UNL     1      -2.078   0.020   1.262  0.00  0.00    -0.015 C 
ATOM     18  C   UNL     1      -3.517  -0.499   1.277  0.00  0.00    -0.002 C 
ATOM     19  C   UNL     1      -3.507  -2.029   1.279  0.00  0.00    -0.000 C 
ATOM     20  C   UNL     1      -2.796  -2.536   0.023  0.00  0.00    -0.002 C 
ATOM     21  C   UNL     1      -1.356  -2.016   0.007  0.00  0.00    -0.015 C 
ENDBRANCH  14  16
ENDBRANCH  12  14
ENDBRANCH   6  12
ENDBRANCH   1  11
BRANCH   4  22
ATOM     22  C   UNL     1       1.827  -4.243   1.552  0.00  0.00    +0.137 C 
BRANCH  22  23
ATOM     23  C   UNL     1       2.329  -5.269   0.534  0.00  0.00    +0.175 C 
BRANCH  23  24
ATOM     24  O   UNL     1       3.193  -6.202   1.185  0.00  0.00    -0.393 OA
ATOM     25  H   UNL     1       3.550  -6.883   0.599  0.00  0.00    +0.209 HD
ENDBRANCH  23  24
ENDBRANCH  22  23
ENDBRANCH   4  22
BRANCH   4  26
ATOM     26  C   UNL     1       3.703  -3.889   3.222  0.00  0.00    +0.148 C 
BRANCH  26  27
ATOM     27  C   UNL     1       3.078  -3.302   4.461  0.00  0.00    +0.012 A 
ATOM     28  C   UNL     1       3.632  -2.182   5.051  0.00  0.00    +0.009 A 
ATOM     29  C   UNL     1       3.059  -1.643   6.188  0.00  0.00    +0.001 A 
ATOM     30  C   UNL     1       1.930  -2.223   6.738  0.00  0.00    +0.004 A 
ATOM     31  C   UNL     1       1.372  -3.342   6.152  0.00  0.00    +0.046 A 
ATOM     32  C   UNL     1       1.942  -3.882   5.008  0.00  0.00    +0.125 A 
BRANCH  32  33
ATOM     33  O   UNL     1       1.392  -4.980   4.426  0.00  0.00    -0.495 OA
ATOM     34  C   UNL     1       0.224  -5.524   5.043  0.00  0.00    +0.277 C 
ENDBRANCH  32  33
ENDBRANCH  26  27
ENDBRANCH   4  26
TORSDOF 10
