REMARK  Name = ZINC43049493
REMARK  8 active torsions:
REMARK  status: ('A' for Active; 'I' for Inactive)
REMARK    1  A    between atoms: C_1  and  C_2
REMARK    2  A    between atoms: C_2  and  C_3
REMARK    3  A    between atoms: C_3  and  C_5
REMARK    4  A    between atoms: C_3  and  N_23
REMARK    5  A    between atoms: C_5  and  C_7
REMARK    6  A    between atoms: C_5  and  S_14
REMARK    7  A    between atoms: S_14  and  C_15
REMARK    8  A    between atoms: C_17  and  C_22
REMARK                            x       y       z     vdW  Elec       q    Type
REMARK                         _______ _______ _______ _____ _____    ______ ____
ROOT
ATOM      1  C   UNL     1      -1.427  -2.041  -0.248  0.00  0.00    +0.104 C 
ENDROOT
BRANCH   1   2
ATOM      2  C   UNL     1      -2.890  -2.350  -0.433  0.00  0.00    +0.003 A 
ATOM      3  C   UNL     1      -3.450  -2.317  -1.697  0.00  0.00    +0.007 A 
ATOM      4  C   UNL     1      -4.792  -2.600  -1.866  0.00  0.00    +0.000 A 
ATOM      5  C   UNL     1      -5.577  -2.916  -0.773  0.00  0.00    +0.003 A 
ATOM      6  C   UNL     1      -5.019  -2.950   0.491  0.00  0.00    +0.038 A 
ATOM      7  C   UNL     1      -3.674  -2.672   0.662  0.00  0.00    +0.128 A 
ATOM      8  F   UNL     1      -3.127  -2.709   1.897  0.00  0.00    -0.205 F 
ENDBRANCH   1   2
BRANCH   1   9
ATOM      9  C   UNL     1      -1.259  -0.566   0.120  0.00  0.00    +0.068 C 
BRANCH   9  10
ATOM     10  N   UNL     1      -2.038  -0.272   1.331  0.00  0.00    -0.326 NA
ATOM     11  H   UNL     1      -1.893   0.680   1.632  0.00  0.00    +0.119 HD
ATOM     12  H   UNL     1      -3.018  -0.460   1.185  0.00  0.00    +0.119 HD
ENDBRANCH   9  10
BRANCH   9  14
ATOM     13  C   UNL     1       0.405   1.231   0.614  0.00  0.00    +0.005 C 
ATOM     14  C   UNL     1       0.219  -0.270   0.380  0.00  0.00    +0.016 C 
ENDBRANCH   9  14
ENDBRANCH   1   9
BRANCH   1  15
ATOM     15  S   UNL     1      -0.537  -2.384  -1.792  0.00  0.00    -0.076 S 
BRANCH  15  16
ATOM     16  C   UNL     1      -0.611  -4.137  -1.946  0.00  0.00    +0.192 A 
ATOM     17  N   UNL     1      -0.133  -4.710  -3.042  0.00  0.00    -0.227 NA
ATOM     18  C   UNL     1      -0.172  -6.026  -3.193  0.00  0.00    +0.046 A 
ATOM     19  C   UNL     1      -0.720  -6.805  -2.192  0.00  0.00    +0.095 A 
ATOM     20  C   UNL     1      -1.215  -6.173  -1.051  0.00  0.00    +0.274 A 
ATOM     21  O   UNL     1      -1.760  -6.900  -0.045  0.00  0.00    -0.266 OA
ATOM     22  N   UNL     1      -1.139  -4.851  -0.962  0.00  0.00    -0.183 NA
ATOM     23  C   UNL     1       0.375  -6.665  -4.443  0.00  0.00    +0.066 C 
ENDBRANCH  15  16
ENDBRANCH   1  15
TORSDOF 6
