REMARK  Name = ZINC43209969
REMARK  11 active torsions:
REMARK  status: ('A' for Active; 'I' for Inactive)
REMARK    1  A    between atoms: C_1  and  C_2
REMARK    2  A    between atoms: C_2  and  C_3
REMARK    3  A    between atoms: C_3  and  C_4
REMARK    4  A    between atoms: C_4  and  O_5
REMARK    5  A    between atoms: O_5  and  C_6
REMARK    6  A    between atoms: C_6  and  C_8
REMARK    7  A    between atoms: C_8  and  C_10
REMARK    8  A    between atoms: C_8  and  N_21
REMARK    9  A    between atoms: C_10  and  C_11
REMARK   10  A    between atoms: C_22  and  C_24
REMARK   11  A    between atoms: C_27  and  C_29
REMARK                            x       y       z     vdW  Elec       q    Type
REMARK                         _______ _______ _______ _____ _____    ______ ____
ROOT
ATOM      1  C   UNL     1      -4.296  -4.486   0.019  0.00  0.00    +0.186 C 
ENDROOT
BRANCH   1   2
ATOM      2  N   UNL     1      -4.199  -5.948   0.010  0.00  0.00    -0.297 N 
ATOM      3  C   UNL     1      -4.042  -6.620   1.168  0.00  0.00    +0.266 C 
ATOM      4  O   UNL     1      -3.981  -6.013   2.220  0.00  0.00    -0.268 OA
ATOM      5  H   UNL     1      -4.248  -6.432  -0.829  0.00  0.00    +0.150 HD
BRANCH   3   6
ATOM      6  C   UNL     1      -3.945  -8.091   1.159  0.00  0.00    +0.163 A 
ATOM      7  C   UNL     1      -3.792  -8.897   2.244  0.00  0.00    +0.230 A 
ATOM      8  O   UNL     1      -3.750 -10.160   1.791  0.00  0.00    -0.449 OA
ATOM      9  C   UNL     1      -3.875 -10.131   0.456  0.00  0.00    +0.182 A 
ATOM     10  N   UNL     1      -3.997  -8.898   0.065  0.00  0.00    -0.210 NA
BRANCH   9  11
ATOM     11  C   UNL     1      -3.877 -11.337  -0.447  0.00  0.00    +0.016 C 
ATOM     12  C   UNL     1      -5.212 -12.098  -0.303  0.00  0.00    -0.008 C 
ATOM     13  C   UNL     1      -4.776 -13.585  -0.377  0.00  0.00    -0.020 C 
ATOM     14  C   UNL     1      -3.412 -13.548   0.355  0.00  0.00    -0.082 C 
ATOM     15  N   UNL     1      -2.799 -12.262  -0.052  0.00  0.00    +0.387 N 
ATOM     16  H   UNL     1      -2.177 -12.411  -0.832  0.00  0.00    -0.085 HD
ATOM     17  H   UNL     1      -2.283 -11.871   0.722  0.00  0.00    -0.085 HD
ENDBRANCH   9  11
ENDBRANCH   3   6
ENDBRANCH   1   2
BRANCH   1  18
ATOM     18  C   UNL     1      -2.911  -3.891   0.009  0.00  0.00    +0.328 C 
ATOM     19  O   UNL     1      -1.943  -4.614  -0.004  0.00  0.00    -0.249 OA
BRANCH  18  20
ATOM     20  O   UNL     1      -2.753  -2.558   0.015  0.00  0.00    -0.463 OA
BRANCH  20  21
ATOM     21  C   UNL     1      -1.413  -2.063   0.004  0.00  0.00    +0.232 C 
BRANCH  21  22
ATOM     22  C   UNL     1      -1.433  -0.534   0.013  0.00  0.00    +0.041 C 
BRANCH  22  24
ATOM     23  C   UNL     1      -0.019   1.526   0.010  0.00  0.00    +0.004 C 
ATOM     24  C   UNL     1       0.002  -0.004   0.002  0.00  0.00    -0.000 C 
ENDBRANCH  22  24
ENDBRANCH  21  22
ENDBRANCH  20  21
ENDBRANCH  18  20
ENDBRANCH   1  18
BRANCH   1  25
ATOM     25  C   UNL     1      -5.061  -4.018  -1.220  0.00  0.00    +0.071 C 
BRANCH  25  26
ATOM     26  C   UNL     1      -6.483  -4.512  -1.149  0.00  0.00    -0.020 A 
ATOM     27  C   UNL     1      -6.967  -5.634  -1.705  0.00  0.00    +0.087 A 
ATOM     28  N   UNL     1      -8.302  -5.753  -1.428  0.00  0.00    -0.360 N 
ATOM     29  H   UNL     1      -8.870  -6.482  -1.724  0.00  0.00    +0.165 HD
ATOM     30  C   UNL     1      -8.720  -4.683  -0.669  0.00  0.00    +0.047 A 
ATOM     31  C   UNL     1      -7.597  -3.862  -0.455  0.00  0.00    +0.003 A 
ATOM     32  C   UNL     1      -7.722  -2.693   0.297  0.00  0.00    +0.010 A 
ATOM     33  C   UNL     1      -8.935  -2.353   0.826  0.00  0.00    +0.001 A 
ATOM     34  C   UNL     1     -10.045  -3.161   0.622  0.00  0.00    +0.002 A 
ATOM     35  C   UNL     1      -9.946  -4.315  -0.125  0.00  0.00    +0.026 A 
ENDBRANCH  25  26
ENDBRANCH   1  25
TORSDOF 10
