REMARK  Name = ZINC58733847
REMARK  8 active torsions:
REMARK  status: ('A' for Active; 'I' for Inactive)
REMARK    1  A    between atoms: C_4  and  C_7
REMARK    2  A    between atoms: C_7  and  C_9
REMARK    3  A    between atoms: C_7  and  S_26
REMARK    4  A    between atoms: N_11  and  C_12
REMARK    5  A    between atoms: C_15  and  N_18
REMARK    6  A    between atoms: C_19  and  N_25
REMARK    7  A    between atoms: C_20  and  C_23
REMARK    8  A    between atoms: S_26  and  C_27
REMARK                            x       y       z     vdW  Elec       q    Type
REMARK                         _______ _______ _______ _____ _____    ______ ____
ROOT
ATOM      1  C   UNL     1       3.814  -1.578   1.188  0.00  0.00    +0.235 C 
ATOM      2  O   UNL     1       3.569  -2.764   1.111  0.00  0.00    -0.274 OA
ATOM      3  N   UNL     1       4.172  -1.039   2.370  0.00  0.00    -0.284 N 
ATOM      4  H   UNL     1       4.432  -0.106   2.418  0.00  0.00    +0.155 HD
ENDROOT
BRANCH   3   5
ATOM      5  C   UNL     1       4.168  -1.825   3.528  0.00  0.00    +0.034 A 
ATOM      6  C   UNL     1       3.806  -1.266   4.747  0.00  0.00    +0.025 A 
ATOM      7  C   UNL     1       3.801  -2.041   5.889  0.00  0.00    +0.029 A 
ATOM      8  C   UNL     1       4.159  -3.381   5.819  0.00  0.00    +0.068 A 
ATOM      9  C   UNL     1       4.521  -3.941   4.601  0.00  0.00    +0.029 A 
ATOM     10  C   UNL     1       4.520  -3.167   3.458  0.00  0.00    +0.025 A 
BRANCH   8  11
ATOM     11  N   UNL     1       4.155  -4.169   6.979  0.00  0.00    -0.218 N 
ATOM     12  C   UNL     1       3.826  -5.479   7.044  0.00  0.00    +0.137 A 
ATOM     13  C   UNL     1       3.955  -5.867   8.375  0.00  0.00    +0.111 A 
ATOM     14  C   UNL     1       4.376  -4.728   9.100  0.00  0.00    +0.155 A 
ATOM     15  N   UNL     1       4.496  -3.734   8.264  0.00  0.00    -0.172 NA
BRANCH  12  16
ATOM     16  N   UNL     1       3.436  -6.280   5.989  0.00  0.00    -0.342 N 
ATOM     17  H   UNL     1       3.377  -5.910   5.094  0.00  0.00    +0.144 HD
ATOM     18  H   UNL     1       3.220  -7.214   6.142  0.00  0.00    +0.144 HD
ENDBRANCH  12  16
BRANCH  13  19
ATOM     19  C   UNL     1       3.708  -7.173   8.908  0.00  0.00    +0.104 C 
ATOM     20  N   UNL     1       3.512  -8.209   9.332  0.00  0.00    -0.191 NA
ENDBRANCH  13  19
ENDBRANCH   8  11
ENDBRANCH   3   5
BRANCH   1  21
ATOM     21  C   UNL     1       3.718  -0.708  -0.039  0.00  0.00    +0.167 C 
BRANCH  21  25
ATOM     22  C   UNL     1       0.005   1.404  -0.002  0.00  0.00    +0.000 A 
ATOM     23  C   UNL     1       1.198   2.103  -0.009  0.00  0.00    +0.000 A 
ATOM     24  C   UNL     1       2.399   1.419  -0.020  0.00  0.00    +0.005 A 
ATOM     25  C   UNL     1       2.408   0.037  -0.025  0.00  0.00    -0.025 A 
ATOM     26  C   UNL     1       1.215  -0.662  -0.017  0.00  0.00    +0.005 A 
ATOM     27  C   UNL     1       0.014   0.022  -0.007  0.00  0.00    +0.000 A 
ENDBRANCH  21  25
BRANCH  21  28
ATOM     28  S   UNL     1       3.808  -1.745  -1.524  0.00  0.00    -0.108 S 
BRANCH  28  29
ATOM     29  C   UNL     1       3.832  -0.587  -2.852  0.00  0.00    +0.009 A 
ATOM     30  C   UNL     1       3.790   0.776  -2.588  0.00  0.00    +0.015 A 
ATOM     31  C   UNL     1       3.809   1.681  -3.631  0.00  0.00    +0.001 A 
ATOM     32  C   UNL     1       3.870   1.231  -4.937  0.00  0.00    +0.000 A 
ATOM     33  C   UNL     1       3.911  -0.125  -5.204  0.00  0.00    +0.001 A 
ATOM     34  C   UNL     1       3.899  -1.036  -4.166  0.00  0.00    +0.015 A 
ENDBRANCH  28  29
ENDBRANCH  21  28
ENDBRANCH   1  21
TORSDOF 8
