REMARK  Name = ZINC40780141
REMARK  5 active torsions:
REMARK  status: ('A' for Active; 'I' for Inactive)
REMARK    1  A    between atoms: C_1  and  C_2
REMARK    2  A    between atoms: C_5  and  S_8
REMARK    3  A    between atoms: S_8  and  C_9
REMARK    4  A    between atoms: C_10  and  N_25
REMARK    5  A    between atoms: C_11  and  N_15
REMARK                            x       y       z     vdW  Elec       q    Type
REMARK                         _______ _______ _______ _____ _____    ______ ____
ROOT
ATOM      1  C   UNL     1       0.071  -5.010   1.691  0.00  0.00    +0.127 A 
ATOM      2  C   UNL     1       0.274  -6.332   2.094  0.00  0.00    +0.098 A 
ATOM      3  C   UNL     1       0.559  -6.574   3.439  0.00  0.00    +0.151 A 
ATOM      4  N   UNL     1       0.625  -5.545   4.280  0.00  0.00    -0.218 NA
ATOM      5  C   UNL     1       0.427  -4.312   3.858  0.00  0.00    +0.224 A 
ATOM      6  N   UNL     1       0.162  -4.039   2.597  0.00  0.00    -0.227 NA
ENDROOT
BRANCH   3   7
ATOM      7  N   UNL     1       0.769  -7.872   3.893  0.00  0.00    -0.283 N 
ATOM      8  C   UNL     1       2.123  -8.442   3.923  0.00  0.00    +0.113 C 
ATOM      9  C   UNL     1       2.043  -9.868   3.361  0.00  0.00    +0.024 C 
ATOM     10  C   UNL     1       1.158 -10.712   4.277  0.00  0.00    +0.038 C 
ATOM     11  C   UNL     1      -0.157 -10.021   4.522  0.00  0.00    -0.026 A 
ATOM     12  C   UNL     1      -0.305  -8.654   4.335  0.00  0.00    +0.038 A 
ATOM     13  C   UNL     1      -1.531  -8.045   4.579  0.00  0.00    +0.024 A 
ATOM     14  C   UNL     1      -2.603  -8.799   5.012  0.00  0.00    +0.002 A 
ATOM     15  C   UNL     1      -2.456 -10.161   5.202  0.00  0.00    +0.000 A 
ATOM     16  C   UNL     1      -1.239 -10.772   4.950  0.00  0.00    +0.005 A 
ENDBRANCH   3   7
BRANCH   2  17
ATOM     17  N   UNL     1       0.194  -7.387   1.172  0.00  0.00    -0.353 N 
ATOM     18  H   UNL     1       0.092  -7.198   0.226  0.00  0.00    +0.142 HD
ATOM     19  H   UNL     1       0.240  -8.306   1.481  0.00  0.00    +0.142 HD
ENDBRANCH   2  17
BRANCH   1  20
ATOM     20  S   UNL     1      -0.291  -4.633   0.008  0.00  0.00    -0.068 S 
BRANCH  20  25
ATOM     21  C   UNL     1      -0.783   1.382  -0.069  0.00  0.00    +0.044 C 
ATOM     22  C   UNL     1      -0.660  -0.120  -0.050  0.00  0.00    -0.050 A 
ATOM     23  C   UNL     1       0.583  -0.712  -0.181  0.00  0.00    +0.004 A 
ATOM     24  C   UNL     1       0.699  -2.088  -0.164  0.00  0.00    +0.015 A 
ATOM     25  C   UNL     1      -0.435  -2.877  -0.014  0.00  0.00    +0.014 A 
ATOM     26  C   UNL     1      -1.682  -2.279   0.118  0.00  0.00    +0.015 A 
ATOM     27  C   UNL     1      -1.790  -0.902   0.105  0.00  0.00    +0.004 A 
ENDBRANCH  20  25
ENDBRANCH   1  20
TORSDOF 4
