REMARK  Name = ZINC04833101
REMARK  4 active torsions:
REMARK  status: ('A' for Active; 'I' for Inactive)
REMARK    1  A    between atoms: C_1  and  C_2
REMARK    2  A    between atoms: C_5  and  C_11
REMARK    3  A    between atoms: C_7  and  N_8
REMARK    4  A    between atoms: C_22  and  C_25
REMARK                            x       y       z     vdW  Elec       q    Type
REMARK                         _______ _______ _______ _____ _____    ______ ____
ROOT
ATOM      1  C   UNL     1       0.578  -4.220  -0.099  0.00  0.00    +0.063 C 
ATOM      2  C   UNL     1       1.735  -4.481  -1.066  0.00  0.00    +0.109 C 
ATOM      3  C   UNL     1       1.256  -4.265  -2.478  0.00  0.00    +0.218 C 
ATOM      4  O   UNL     1       2.014  -3.818  -3.312  0.00  0.00    -0.275 OA
ATOM      5  N   UNL     1      -0.010  -4.566  -2.815  0.00  0.00    -0.289 N 
ATOM      6  C   UNL     1      -0.881  -5.098  -1.899  0.00  0.00    +0.018 C 
ATOM      7  C   UNL     1      -0.650  -4.959  -0.576  0.00  0.00    +0.020 C 
ATOM      8  C   UNL     1      -1.532  -5.489   0.381  0.00  0.00    +0.162 C 
ATOM      9  O   UNL     1      -1.285  -5.353   1.562  0.00  0.00    -0.292 OA
ATOM     10  C   UNL     1      -2.779  -6.223  -0.036  0.00  0.00    +0.088 C 
ATOM     11  C   UNL     1      -3.242  -5.685  -1.394  0.00  0.00    +0.032 C 
ATOM     12  C   UNL     1      -2.095  -5.841  -2.398  0.00  0.00    +0.059 C 
ATOM     13  H   UNL     1      -0.313  -4.405  -3.723  0.00  0.00    +0.155 HD
ENDROOT
BRANCH   1  18
ATOM     14  C   UNL     1      -0.537   1.447   0.088  0.00  0.00    +0.046 C 
ATOM     15  C   UNL     1      -0.246  -0.031   0.039  0.00  0.00    -0.020 A 
ATOM     16  C   UNL     1      -0.347  -0.716  -1.157  0.00  0.00    +0.006 A 
ATOM     17  C   UNL     1      -0.080  -2.071  -1.202  0.00  0.00    +0.004 A 
ATOM     18  C   UNL     1       0.288  -2.742  -0.051  0.00  0.00    -0.037 A 
ATOM     19  C   UNL     1       0.390  -2.057   1.145  0.00  0.00    +0.037 A 
ATOM     20  C   UNL     1       0.127  -0.700   1.190  0.00  0.00    +0.129 A 
BRANCH  20  21
ATOM     21  N   UNL     1       0.241   0.035   2.470  0.00  0.00    +0.057 N 
ATOM     22  O   UNL     1       0.674   1.163   2.482  0.00  0.00    -0.126 OA
ATOM     23  O   UNL     1      -0.099  -0.494   3.502  0.00  0.00    -0.126 OA
ENDBRANCH  20  21
ENDBRANCH   1  18
BRANCH  11  24
ATOM     24  C   UNL     1      -4.441  -6.467  -1.866  0.00  0.00    -0.044 A 
ATOM     25  C   UNL     1      -4.343  -7.832  -2.060  0.00  0.00    +0.004 A 
ATOM     26  C   UNL     1      -5.443  -8.549  -2.492  0.00  0.00    +0.000 A 
ATOM     27  C   UNL     1      -6.641  -7.901  -2.730  0.00  0.00    +0.000 A 
ATOM     28  C   UNL     1      -6.738  -6.536  -2.535  0.00  0.00    +0.000 A 
ATOM     29  C   UNL     1      -5.640  -5.820  -2.099  0.00  0.00    +0.004 A 
ENDBRANCH  11  24
TORSDOF 3
