REMARK  Name = ZINC63663998
REMARK  11 active torsions:
REMARK  status: ('A' for Active; 'I' for Inactive)
REMARK    1  A    between atoms: C_1  and  C_2
REMARK    2  A    between atoms: C_4  and  C_13
REMARK    3  A    between atoms: C_13  and  C_14
REMARK    4  A    between atoms: C_14  and  N_15
REMARK    5  A    between atoms: N_15  and  C_16
REMARK    6  A    between atoms: C_16  and  N_18
REMARK    7  A    between atoms: N_18  and  C_19
REMARK    8  A    between atoms: C_21  and  O_27
REMARK    9  A    between atoms: C_24  and  O_25
REMARK   10  A    between atoms: O_25  and  C_26
REMARK   11  A    between atoms: O_27  and  C_28
REMARK                            x       y       z     vdW  Elec       q    Type
REMARK                         _______ _______ _______ _____ _____    ______ ____
ROOT
ATOM      1  N   UNL     1       1.082  -0.509  -5.004  0.00  0.00    -0.326 N 
ATOM      2  H   UNL     1       0.207  -0.148  -5.217  0.00  0.00    +0.148 HD
ENDROOT
BRANCH   1   3
ATOM      3  C   UNL     1       1.855  -1.023  -5.981  0.00  0.00    +0.135 C 
ATOM      4  S   UNL     1       3.399  -1.661  -5.604  0.00  0.00    -0.019 S 
BRANCH   3   5
ATOM      5  N   UNL     1       1.414  -1.035  -7.254  0.00  0.00    -0.294 N 
ATOM      6  H   UNL     1       0.516  -0.731  -7.459  0.00  0.00    +0.154 HD
BRANCH   5   7
ATOM      7  C   UNL     1       2.253  -1.485  -8.282  0.00  0.00    +0.078 A 
ATOM      8  C   UNL     1       2.955  -2.672  -8.136  0.00  0.00    +0.072 A 
ATOM      9  C   UNL     1       3.784  -3.115  -9.155  0.00  0.00    +0.122 A 
ATOM     10  C   UNL     1       3.912  -2.373 -10.319  0.00  0.00    +0.049 A 
ATOM     11  C   UNL     1       3.213  -1.189 -10.467  0.00  0.00    +0.051 A 
ATOM     12  C   UNL     1       2.378  -0.745  -9.455  0.00  0.00    +0.141 A 
BRANCH  12  13
ATOM     13  O   UNL     1       1.686   0.417  -9.604  0.00  0.00    -0.493 OA
ATOM     14  C   UNL     1       1.863   1.125 -10.833  0.00  0.00    +0.277 C 
ENDBRANCH  12  13
BRANCH   9  15
ATOM     15  O   UNL     1       4.473  -4.279  -9.012  0.00  0.00    -0.495 OA
ATOM     16  C   UNL     1       5.308  -4.676 -10.101  0.00  0.00    +0.277 C 
ENDBRANCH   9  15
ENDBRANCH   5   7
ENDBRANCH   3   5
ENDBRANCH   1   3
BRANCH   1  17
ATOM     17  C   UNL     1       1.562  -0.497  -3.620  0.00  0.00    +0.107 C 
BRANCH  17  18
ATOM     18  C   UNL     1       0.500   0.136  -2.717  0.00  0.00    +0.052 C 
BRANCH  18  21
ATOM     19  C   UNL     1      -0.021   2.176  -0.253  0.00  0.00    +0.035 C 
ATOM     20  C   UNL     1       0.262   0.682  -0.083  0.00  0.00    +0.103 C 
ATOM     21  C   UNL     1       0.994   0.149  -1.294  0.00  0.00    -0.037 C 
ATOM     22  C   UNL     1       2.180  -0.315  -0.840  0.00  0.00    +0.001 A 
ATOM     23  C   UNL     1       3.323  -0.946  -1.512  0.00  0.00    +0.030 A 
ATOM     24  C   UNL     1       4.397  -1.312  -0.774  0.00  0.00    +0.042 A 
ATOM     25  C   UNL     1       4.445  -1.103   0.612  0.00  0.00    +0.022 A 
ATOM     26  C   UNL     1       3.434  -0.530   1.298  0.00  0.00    +0.027 A 
ATOM     27  C   UNL     1       2.256  -0.106   0.623  0.00  0.00    +0.043 A 
ATOM     28  N   UNL     1       1.157   0.464   1.059  0.00  0.00    -0.378 N 
ATOM     29 CL   UNL     1       5.751  -2.059  -1.564  0.00  0.00    -0.084 Cl
ATOM     30  H   UNL     1       0.969   0.702   1.980  0.00  0.00    +0.160 HD
ENDBRANCH  18  21
ENDBRANCH  17  18
ENDBRANCH   1  17
TORSDOF 8
