REMARK  Name = ZINC09672345
REMARK  7 active torsions:
REMARK  status: ('A' for Active; 'I' for Inactive)
REMARK    1  A    between atoms: C_1  and  C_2
REMARK    2  A    between atoms: C_2  and  C_4
REMARK    3  A    between atoms: C_2  and  N_14
REMARK    4  A    between atoms: C_15  and  C_17
REMARK    5  A    between atoms: C_20  and  N_23
REMARK    6  A    between atoms: N_23  and  S_24
REMARK    7  A    between atoms: S_24  and  C_27
REMARK                            x       y       z     vdW  Elec       q    Type
REMARK                         _______ _______ _______ _____ _____    ______ ____
ROOT
ATOM      1  C   UNL     1      -6.387   0.097   2.428  0.00  0.00    +0.037 A 
ATOM      2  C   UNL     1      -6.345   1.443   2.803  0.00  0.00    +0.015 A 
ATOM      3  C   UNL     1      -7.320   1.957   3.626  0.00  0.00    +0.025 A 
ATOM      4  C   UNL     1      -8.341   1.136   4.095  0.00  0.00    +0.048 A 
ATOM      5  C   UNL     1      -8.383  -0.206   3.728  0.00  0.00    +0.025 A 
ATOM      6  C   UNL     1      -7.414  -0.725   2.900  0.00  0.00    +0.015 A 
ENDROOT
BRANCH   1   8
ATOM      7  N   UNL     1      -4.357   0.338   1.085  0.00  0.00    -0.305 N 
ATOM      8  C   UNL     1      -5.346  -0.456   1.540  0.00  0.00    +0.245 C 
ATOM      9  O   UNL     1      -5.382  -1.629   1.219  0.00  0.00    -0.270 OA
ATOM     10  H   UNL     1      -4.329   1.273   1.342  0.00  0.00    +0.150 HD
BRANCH   7  12
ATOM     11  C   UNL     1      -3.817  -0.178  -1.244  0.00  0.00    +0.033 C 
ATOM     12  C   UNL     1      -3.324  -0.212   0.204  0.00  0.00    +0.101 C 
BRANCH  12  13
ATOM     13  C   UNL     1      -2.068   0.613   0.326  0.00  0.00    -0.024 A 
ATOM     14  C   UNL     1      -2.154   1.990   0.424  0.00  0.00    +0.009 A 
ATOM     15  C   UNL     1      -1.005   2.750   0.531  0.00  0.00    +0.050 A 
ATOM     16  C   UNL     1       0.237   2.133   0.548  0.00  0.00    +0.162 A 
ATOM     17  C   UNL     1       0.323   0.750   0.453  0.00  0.00    +0.162 A 
ATOM     18  C   UNL     1      -0.834  -0.007   0.341  0.00  0.00    +0.055 A 
ATOM     19  O   UNL     1       1.532   0.124   0.468  0.00  0.00    -0.485 OA
ATOM     20  C   UNL     1       2.680   0.937   0.204  0.00  0.00    +0.270 C 
ATOM     21  C   UNL     1       2.562   2.220   1.038  0.00  0.00    +0.270 C 
ATOM     22  O   UNL     1       1.360   2.895   0.654  0.00  0.00    -0.485 OA
ENDBRANCH  12  13
ENDBRANCH   7  12
ENDBRANCH   1   8
BRANCH   4  23
ATOM     23  N   UNL     1      -9.322   1.657   4.932  0.00  0.00    -0.216 N 
ATOM     24  H   UNL     1     -10.020   2.223   4.567  0.00  0.00    +0.174 HD
BRANCH  23  25
ATOM     25  S   UNL     1      -9.298   1.312   6.551  0.00  0.00    +0.079 S 
ATOM     26  O   UNL     1     -10.385   2.018   7.133  0.00  0.00    -0.149 OA
ATOM     27  O   UNL     1      -9.157  -0.098   6.664  0.00  0.00    -0.149 OA
BRANCH  25  28
ATOM     28  C   UNL     1      -7.826   2.019   7.213  0.00  0.00    +0.147 A 
ATOM     29  C   UNL     1      -7.652   3.223   7.811  0.00  0.00    +0.038 A 
ATOM     30  C   UNL     1      -6.392   3.573   8.260  0.00  0.00    +0.030 A 
ATOM     31  C   UNL     1      -5.368   2.701   8.088  0.00  0.00    +0.080 A 
ATOM     32  S   UNL     1      -6.180   1.333   7.278  0.00  0.00    -0.057 S 
ATOM     33 CL   UNL     1      -3.701   2.868   8.545  0.00  0.00    -0.076 Cl
ENDBRANCH  25  28
ENDBRANCH  23  25
ENDBRANCH   4  23
TORSDOF 6
