REMARK  Name = ZINC28893360
REMARK  8 active torsions:
REMARK  status: ('A' for Active; 'I' for Inactive)
REMARK    1  A    between atoms: C_1  and  C_2
REMARK    2  A    between atoms: C_5  and  N_9
REMARK    3  A    between atoms: C_10  and  C_12
REMARK    4  A    between atoms: C_12  and  C_14
REMARK    5  A    between atoms: C_12  and  N_15
REMARK    6  A    between atoms: N_15  and  C_16
REMARK    7  A    between atoms: C_16  and  C_17
REMARK    8  A    between atoms: C_17  and  N_23
REMARK                            x       y       z     vdW  Elec       q    Type
REMARK                         _______ _______ _______ _____ _____    ______ ____
ROOT
ATOM      1  N   UNL     1       1.542   2.979   2.258  0.00  0.00    +0.388 N 
ATOM      2  H   UNL     1       1.081   3.348   3.186  0.00  0.00    -0.085 HD
ATOM      3  H   UNL     1       1.044   3.440   1.392  0.00  0.00    -0.085 HD
ENDROOT
BRANCH   1   4
ATOM      4  C   UNL     1       2.969   3.331   2.247  0.00  0.00    +0.013 C 
ATOM      5  C   UNL     1       3.464   3.405   0.801  0.00  0.00    -0.004 C 
BRANCH   4   7
ATOM      6  N   UNL     1       4.396   5.198   3.018  0.00  0.00    -0.286 N 
ATOM      7  C   UNL     1       3.161   4.669   2.913  0.00  0.00    +0.203 C 
ATOM      8  O   UNL     1       2.204   5.271   3.353  0.00  0.00    -0.277 OA
ATOM      9  H   UNL     1       5.272   4.618   2.693  0.00  0.00    +0.155 HD
BRANCH   6  14
ATOM     10  C   UNL     1       5.076  10.415   5.143  0.00  0.00    +0.044 C 
ATOM     11  C   UNL     1       4.896   9.029   4.579  0.00  0.00    -0.049 A 
ATOM     12  C   UNL     1       3.661   8.636   4.096  0.00  0.00    +0.005 A 
ATOM     13  C   UNL     1       3.492   7.367   3.578  0.00  0.00    +0.024 A 
ATOM     14  C   UNL     1       4.564   6.485   3.542  0.00  0.00    +0.047 A 
ATOM     15  C   UNL     1       5.802   6.881   4.033  0.00  0.00    +0.039 A 
ATOM     16  C   UNL     1       5.965   8.154   4.545  0.00  0.00    +0.020 A 
ATOM     17 BR   UNL     1       7.263   5.681   3.994  0.00  0.00    -0.048 Br
ENDBRANCH   6  14
ENDBRANCH   4   7
ENDBRANCH   1   4
BRANCH   1  18
ATOM     18  C   UNL     1       1.359   1.523   2.187  0.00  0.00    -0.059 C 
BRANCH  18  19
ATOM     19  C   UNL     1      -0.135   1.200   2.118  0.00  0.00    +0.007 C 
ATOM     20  C   UNL     1      -0.325  -0.313   1.999  0.00  0.00    +0.020 C 
ATOM     21  C   UNL     1       0.290  -1.001   3.220  0.00  0.00    +0.002 C 
ATOM     22  C   UNL     1      -0.400  -0.499   4.490  0.00  0.00    +0.000 C 
ATOM     23  C   UNL     1      -0.211   1.015   4.608  0.00  0.00    +0.002 C 
ATOM     24  C   UNL     1      -0.825   1.703   3.388  0.00  0.00    +0.020 C 
BRANCH  19  25
ATOM     25  N   UNL     1      -0.725   1.861   0.946  0.00  0.00    -0.294 NA
ATOM     26  C   UNL     1      -2.169   1.599   0.864  0.00  0.00    +0.113 C 
ATOM     27  C   UNL     1      -2.753   2.352  -0.334  0.00  0.00    +0.175 C 
ATOM     28  O   UNL     1      -2.063   1.955  -1.522  0.00  0.00    -0.377 OA
ATOM     29  C   UNL     1      -0.654   2.198  -1.478  0.00  0.00    +0.175 C 
ATOM     30  C   UNL     1      -0.049   1.443  -0.291  0.00  0.00    +0.113 C 
ENDBRANCH  19  25
ENDBRANCH  18  19
ENDBRANCH   1  18
TORSDOF 6
