REMARK  Name = ZINC64982837
REMARK  11 active torsions:
REMARK  status: ('A' for Active; 'I' for Inactive)
REMARK    1  A    between atoms: C_1  and  C_2
REMARK    2  A    between atoms: C_2  and  C_4
REMARK    3  A    between atoms: C_2  and  O_17
REMARK    4  A    between atoms: N_6  and  C_7
REMARK    5  A    between atoms: C_10  and  S_13
REMARK    6  A    between atoms: S_13  and  N_16
REMARK    7  A    between atoms: O_17  and  C_18
REMARK    8  A    between atoms: C_23  and  C_24
REMARK    9  A    between atoms: C_24  and  C_25
REMARK   10  A    between atoms: C_24  and  C_26
REMARK   11  A    between atoms: C_24  and  C_27
REMARK                            x       y       z     vdW  Elec       q    Type
REMARK                         _______ _______ _______ _____ _____    ______ ____
ROOT
ATOM      1  C   UNL     1       0.709  -0.480  -1.357  0.00  0.00    +0.258 C 
ATOM      2  O   UNL     1       1.737  -1.098  -1.179  0.00  0.00    -0.271 OA
ATOM      3  N   UNL     1       0.262  -0.262  -2.610  0.00  0.00    -0.282 N 
ATOM      4  H   UNL     1      -0.517   0.297  -2.756  0.00  0.00    +0.155 HD
ENDROOT
BRANCH   3   5
ATOM      5  C   UNL     1       0.921  -0.844  -3.699  0.00  0.00    +0.034 A 
ATOM      6  C   UNL     1       1.011  -0.159  -4.903  0.00  0.00    +0.025 A 
ATOM      7  C   UNL     1       1.663  -0.736  -5.976  0.00  0.00    +0.030 A 
ATOM      8  C   UNL     1       2.224  -1.993  -5.852  0.00  0.00    +0.105 A 
ATOM      9  C   UNL     1       2.135  -2.678  -4.653  0.00  0.00    +0.030 A 
ATOM     10  C   UNL     1       1.490  -2.104  -3.575  0.00  0.00    +0.025 A 
BRANCH   8  11
ATOM     11  S   UNL     1       3.054  -2.725  -7.223  0.00  0.00    +0.056 S 
ATOM     12  O   UNL     1       3.017  -4.131  -7.016  0.00  0.00    -0.153 OA
ATOM     13  O   UNL     1       2.526  -2.113  -8.391  0.00  0.00    -0.153 OA
BRANCH  11  14
ATOM     14  N   UNL     1       4.644  -2.275  -7.130  0.00  0.00    -0.204 NA
ATOM     15  H   UNL     1       4.946  -1.707  -6.403  0.00  0.00    +0.144 HD
ATOM     16  H   UNL     1       5.275  -2.579  -7.801  0.00  0.00    +0.144 HD
ENDBRANCH  11  14
ENDBRANCH   8  11
ENDBRANCH   3   5
BRANCH   1  18
ATOM     17  C   UNL     1      -0.068   1.575  -0.206  0.00  0.00    +0.062 C 
ATOM     18  C   UNL     1      -0.069   0.045  -0.178  0.00  0.00    +0.256 C 
BRANCH  18  19
ATOM     19  O   UNL     1       0.538  -0.409   1.034  0.00  0.00    -0.480 OA
BRANCH  19  20
ATOM     20  C   UNL     1      -0.260  -0.494   2.130  0.00  0.00    +0.125 A 
ATOM     21  C   UNL     1      -1.573  -0.046   2.070  0.00  0.00    +0.046 A 
ATOM     22  C   UNL     1      -2.382  -0.134   3.186  0.00  0.00    +0.004 A 
ATOM     23  C   UNL     1      -1.886  -0.667   4.362  0.00  0.00    +0.001 A 
ATOM     24  C   UNL     1      -0.579  -1.113   4.424  0.00  0.00    +0.008 A 
ATOM     25  C   UNL     1       0.233  -1.033   3.309  0.00  0.00    -0.000 A 
BRANCH  25  26
ATOM     26  C   UNL     1       1.656  -1.525   3.375  0.00  0.00    -0.009 C 
ATOM     27  C   UNL     1       1.943  -2.067   4.777  0.00  0.00    +0.015 C 
ATOM     28  C   UNL     1       1.859  -2.639   2.346  0.00  0.00    +0.015 C 
ATOM     29  C   UNL     1       2.610  -0.369   3.070  0.00  0.00    +0.015 C 
ENDBRANCH  25  26
ENDBRANCH  19  20
ENDBRANCH  18  19
ENDBRANCH   1  18
TORSDOF 7
