REMARK  Name = ZINC35363829
REMARK  13 active torsions:
REMARK  status: ('A' for Active; 'I' for Inactive)
REMARK    1  A    between atoms: C_1  and  C_2
REMARK    2  A    between atoms: C_10  and  C_23
REMARK    3  A    between atoms: C_15  and  C_16
REMARK    4  A    between atoms: C_15  and  O_19
REMARK    5  A    between atoms: C_16  and  C_18
REMARK    6  A    between atoms: O_19  and  C_20
REMARK    7  A    between atoms: C_20  and  C_22
REMARK    8  A    between atoms: C_24  and  C_42
REMARK    9  A    between atoms: C_27  and  O_31
REMARK   10  A    between atoms: O_31  and  C_32
REMARK   11  A    between atoms: C_32  and  C_34
REMARK   12  A    between atoms: C_34  and  C_35
REMARK   13  A    between atoms: C_35  and  N_36
REMARK                            x       y       z     vdW  Elec       q    Type
REMARK                         _______ _______ _______ _____ _____    ______ ____
ROOT
ATOM      1  C   UNL     1      -0.540   1.583  -0.131  0.00  0.00    +0.044 C 
ATOM      2  C   UNL     1      -0.473   0.077  -0.098  0.00  0.00    -0.051 C 
ATOM      3  C   UNL     1      -0.334  -0.603  -1.226  0.00  0.00    -0.019 C 
ATOM      4  C   UNL     1      -0.283  -2.094  -1.285  0.00  0.00    +0.020 C 
ATOM      5  C   UNL     1       0.134  -2.693   0.066  0.00  0.00    +0.006 C 
ATOM      6  C   UNL     1       0.071  -4.214   0.040  0.00  0.00    +0.005 C 
ATOM      7  C   UNL     1       0.936  -4.775  -1.105  0.00  0.00    +0.011 C 
ATOM      8  C   UNL     1       0.440  -4.162  -2.398  0.00  0.00    +0.018 C 
ATOM      9  C   UNL     1       0.709  -2.608  -2.306  0.00  0.00    +0.006 C 
ATOM     10  C   UNL     1       0.463  -2.184  -3.758  0.00  0.00    +0.009 C 
ATOM     11  C   UNL     1       1.189  -3.290  -4.572  0.00  0.00    +0.057 C 
ATOM     12  C   UNL     1       1.163  -4.570  -3.676  0.00  0.00    +0.176 C 
ATOM     13  C   UNL     1      -1.059  -4.427  -2.549  0.00  0.00    +0.016 C 
ATOM     14  C   UNL     1      -0.777  -2.124   1.145  0.00  0.00    -0.003 C 
ATOM     15  C   UNL     1      -0.558  -0.638   1.196  0.00  0.00    -0.039 C 
ATOM     16  C   UNL     1      -0.441   0.045   2.320  0.00  0.00    +0.021 C 
ATOM     17  C   UNL     1      -0.456  -0.656   3.654  0.00  0.00    +0.200 C 
ATOM     18  C   UNL     1       0.212  -2.026   3.464  0.00  0.00    +0.050 C 
ATOM     19  C   UNL     1      -0.632  -2.833   2.469  0.00  0.00    +0.015 C 
ATOM     20  C   UNL     1      -2.216  -2.341   0.673  0.00  0.00    +0.016 C 
ENDROOT
BRANCH  12  21
ATOM     21  C   UNL     1       0.464  -5.739  -4.321  0.00  0.00    +0.174 C 
ATOM     22  O   UNL     1      -0.345  -5.550  -5.198  0.00  0.00    -0.293 OA
ATOM     23  C   UNL     1       0.773  -7.144  -3.872  0.00  0.00    +0.090 C 
ENDBRANCH  12  21
BRANCH  12  24
ATOM     24  O   UNL     1       2.524  -4.902  -3.392  0.00  0.00    -0.450 OA
BRANCH  24  25
ATOM     25  C   UNL     1       3.299  -5.239  -4.434  0.00  0.00    +0.305 C 
ATOM     26  O   UNL     1       2.860  -5.180  -5.558  0.00  0.00    -0.251 OA
ATOM     27  C   UNL     1       4.718  -5.693  -4.202  0.00  0.00    +0.136 C 
ENDBRANCH  24  25
ENDBRANCH  12  24
BRANCH  17  28
ATOM     28  O   UNL     1       0.272   0.112   4.614  0.00  0.00    -0.457 OA
BRANCH  28  29
ATOM     29  C   UNL     1      -0.419   1.021   5.318  0.00  0.00    +0.306 C 
ATOM     30  O   UNL     1      -1.604   1.161   5.126  0.00  0.00    -0.251 OA
BRANCH  29  31
ATOM     31  C   UNL     1       0.282   1.868   6.349  0.00  0.00    +0.102 C 
BRANCH  31  32
ATOM     32  C   UNL     1      -0.727   2.816   7.002  0.00  0.00    -0.068 C 
BRANCH  32  33
ATOM     33  N   UNL     1      -0.043   3.641   8.006  0.00  0.00    +0.380 N 
ATOM     34  C   UNL     1       0.452   2.782   9.088  0.00  0.00    -0.079 C 
ATOM     35  C   UNL     1       1.235   3.626  10.097  0.00  0.00    -0.019 C 
ATOM     36  C   UNL     1       0.313   4.702  10.678  0.00  0.00    -0.004 C 
ATOM     37  C   UNL     1      -0.256   5.545   9.534  0.00  0.00    -0.019 C 
ATOM     38  C   UNL     1      -0.984   4.630   8.547  0.00  0.00    -0.079 C 
ATOM     39  H   UNL     1       0.734   4.119   7.575  0.00  0.00    -0.082 HD
ENDBRANCH  32  33
ENDBRANCH  31  32
ENDBRANCH  29  31
ENDBRANCH  28  29
ENDBRANCH  17  28
TORSDOF 8
