REMARK  Name = ZINC35682769
REMARK  9 active torsions:
REMARK  status: ('A' for Active; 'I' for Inactive)
REMARK    1  A    between atoms: C_4  and  N_34
REMARK    2  A    between atoms: C_5  and  C_7
REMARK    3  A    between atoms: C_10  and  S_12
REMARK    4  A    between atoms: S_12  and  C_13
REMARK    5  A    between atoms: C_13  and  N_23
REMARK    6  A    between atoms: C_14  and  C_15
REMARK    7  A    between atoms: C_14  and  O_22
REMARK    8  A    between atoms: N_24  and  C_25
REMARK    9  A    between atoms: C_28  and  N_31
REMARK                            x       y       z     vdW  Elec       q    Type
REMARK                         _______ _______ _______ _____ _____    ______ ____
ROOT
ATOM      1  C   UNL     1       0.194  -6.967   0.835  0.00  0.00    +0.170 C 
ATOM      2  C   UNL     1       0.035  -8.316   0.288  0.00  0.00    +0.158 C 
ENDROOT
BRANCH   2   3
ATOM      3  C   UNL     1      -1.149  -8.651  -0.501  0.00  0.00    +0.019 A 
ATOM      4  C   UNL     1      -1.587  -7.786  -1.520  0.00  0.00    +0.013 A 
ATOM      5  C   UNL     1      -2.699  -8.109  -2.254  0.00  0.00    +0.021 A 
ATOM      6  C   UNL     1      -3.391  -9.283  -1.995  0.00  0.00    +0.041 A 
ATOM      7  C   UNL     1      -2.966 -10.143  -0.991  0.00  0.00    +0.021 A 
ATOM      8  C   UNL     1      -1.853  -9.841  -0.250  0.00  0.00    +0.013 A 
ATOM      9 CL   UNL     1      -4.798  -9.680  -2.931  0.00  0.00    -0.084 Cl
ENDBRANCH   2   3
BRANCH   2  10
ATOM     10  O   UNL     1       0.979  -9.247   0.512  0.00  0.00    -0.504 OA
ATOM     11  H   UNL     1       1.678  -8.961   1.116  0.00  0.00    +0.292 HD
ENDBRANCH   2  10
BRANCH   1  12
ATOM     12  N   UNL     1       1.348  -6.612   1.429  0.00  0.00    -0.138 NA
ATOM     13  N   UNL     1       2.359  -7.413   1.402  0.00  0.00    -0.149 NA
BRANCH  13  14
ATOM     14  C   UNL     1       3.526  -7.056   2.002  0.00  0.00    +0.086 A 
ATOM     15  C   UNL     1       3.633  -5.820   2.655  0.00  0.00    +0.032 A 
ATOM     16  C   UNL     1       4.819  -5.466   3.260  0.00  0.00    +0.035 A 
ATOM     17  C   UNL     1       5.903  -6.326   3.224  0.00  0.00    +0.126 A 
ATOM     18  C   UNL     1       5.807  -7.549   2.580  0.00  0.00    +0.035 A 
ATOM     19  C   UNL     1       4.627  -7.923   1.975  0.00  0.00    +0.032 A 
BRANCH  17  20
ATOM     20  N   UNL     1       7.173  -5.937   3.876  0.00  0.00    +0.056 N 
ATOM     21  O   UNL     1       7.270  -4.775   4.488  0.00  0.00    -0.126 OA
ATOM     22  O   UNL     1       8.207  -6.752   3.844  0.00  0.00    -0.126 OA
ENDBRANCH  17  20
ENDBRANCH  13  14
ENDBRANCH   1  12
BRANCH   1  23
ATOM     23  S   UNL     1      -1.051  -5.874   0.723  0.00  0.00    -0.004 S 
BRANCH  23  27
ATOM     24  C   UNL     1      -0.256  -2.509   2.249  0.00  0.00    +0.251 A 
ATOM     25  N   UNL     1       0.870  -3.179   2.464  0.00  0.00    -0.106 NA
ATOM     26  N   UNL     1       0.751  -4.369   1.990  0.00  0.00    -0.100 NA
ATOM     27  C   UNL     1      -0.453  -4.508   1.454  0.00  0.00    +0.284 A 
ATOM     28  O   UNL     1      -1.107  -3.340   1.615  0.00  0.00    -0.411 OA
BRANCH  24  33
ATOM     29  C   UNL     1      -0.513   0.618   4.299  0.00  0.00    +0.001 A 
ATOM     30  C   UNL     1      -1.039   1.509   3.373  0.00  0.00    +0.002 A 
ATOM     31  C   UNL     1      -1.312   1.100   2.084  0.00  0.00    +0.023 A 
ATOM     32  C   UNL     1      -1.061  -0.212   1.701  0.00  0.00    +0.037 A 
ATOM     33  C   UNL     1      -0.526  -1.120   2.638  0.00  0.00    +0.059 A 
ATOM     34  C   UNL     1      -0.256  -0.686   3.942  0.00  0.00    +0.015 A 
BRANCH  32  35
ATOM     35  N   UNL     1      -1.335  -0.626   0.406  0.00  0.00    -0.357 N 
ATOM     36  H   UNL     1      -1.802  -0.034  -0.204  0.00  0.00    +0.142 HD
ATOM     37  H   UNL     1      -1.058  -1.507   0.110  0.00  0.00    +0.142 HD
ENDBRANCH  32  35
ENDBRANCH  24  33
ENDBRANCH  23  27
ENDBRANCH   1  23
TORSDOF 9
