REMARK  Name = ZINC04459964
REMARK  4 active torsions:
REMARK  status: ('A' for Active; 'I' for Inactive)
REMARK    1  A    between atoms: N_10  and  N_11
REMARK    2  A    between atoms: C_12  and  C_14
REMARK    3  A    between atoms: C_17  and  C_20
REMARK    4  A    between atoms: C_20  and  N_21
REMARK                            x       y       z     vdW  Elec       q    Type
REMARK                         _______ _______ _______ _____ _____    ______ ____
ROOT
ATOM      1  C   UNL     1       7.995  -2.628  -0.090  0.00  0.00    +0.038 A 
ATOM      2  C   UNL     1       7.540  -3.948  -0.099  0.00  0.00    +0.013 A 
ATOM      3  C   UNL     1       8.447  -4.987  -0.114  0.00  0.00    +0.006 A 
ATOM      4  C   UNL     1       9.805  -4.724  -0.120  0.00  0.00    -0.030 A 
ATOM      5  C   UNL     1      10.263  -3.418  -0.111  0.00  0.00    +0.006 A 
ATOM      6  C   UNL     1       9.367  -2.370  -0.102  0.00  0.00    +0.013 A 
ENDROOT
BRANCH   1   8
ATOM      7  N   UNL     1       5.706  -1.763  -0.063  0.00  0.00    -0.201 N 
ATOM      8  C   UNL     1       7.029  -1.510  -0.074  0.00  0.00    +0.263 C 
ATOM      9  O   UNL     1       7.429  -0.362  -0.072  0.00  0.00    -0.268 OA
ATOM     10  H   UNL     1       5.387  -2.679  -0.065  0.00  0.00    +0.178 HD
BRANCH   7  20
ATOM     11  C   UNL     1      -0.017   1.376   0.010  0.00  0.00    +0.001 A 
ATOM     12  C   UNL     1       1.167   2.098   0.002  0.00  0.00    +0.001 A 
ATOM     13  C   UNL     1       2.386   1.447  -0.013  0.00  0.00    +0.012 A 
ATOM     14  C   UNL     1       2.424   0.061  -0.021  0.00  0.00    +0.029 A 
ATOM     15  C   UNL     1       1.220  -0.677  -0.013  0.00  0.00    +0.023 A 
ATOM     16  C   UNL     1       0.002  -0.004   0.002  0.00  0.00    +0.012 A 
ATOM     17  C   UNL     1       1.614  -2.093  -0.025  0.00  0.00    +0.103 C 
ATOM     18  N   UNL     1       2.922  -2.180  -0.038  0.00  0.00    -0.326 N 
ATOM     19  C   UNL     1       3.502  -0.949  -0.037  0.00  0.00    +0.158 C 
ATOM     20  N   UNL     1       4.790  -0.703  -0.048  0.00  0.00    -0.161 NA
ATOM     21  N   UNL     1       0.742  -3.164  -0.022  0.00  0.00    -0.344 N 
ATOM     22  H   UNL     1      -0.216  -3.010  -0.012  0.00  0.00    +0.144 HD
ATOM     23  H   UNL     1       1.087  -4.070  -0.031  0.00  0.00    +0.144 HD
ATOM     24  H   UNL     1       3.414  -3.016  -0.048  0.00  0.00    +0.169 HD
ENDBRANCH   7  20
ENDBRANCH   1   8
BRANCH   4  25
ATOM     25  C   UNL     1      10.790  -5.864  -0.135  0.00  0.00    +0.149 C 
BRANCH  25  26
ATOM     26  N   UNL     1      11.101  -6.222  -1.521  0.00  0.00    -0.263 N 
ATOM     27  C   UNL     1      10.403  -7.157  -2.275  0.00  0.00    +0.045 A 
ATOM     28  C   UNL     1       9.322  -8.000  -2.093  0.00  0.00    +0.024 A 
ATOM     29  C   UNL     1       8.901  -8.828  -3.133  0.00  0.00    +0.002 A 
ATOM     30  C   UNL     1       9.508  -8.861  -4.359  0.00  0.00    +0.008 A 
ATOM     31  C   UNL     1      10.610  -8.020  -4.584  0.00  0.00    -0.015 A 
ATOM     32  C   UNL     1      11.010  -7.202  -3.526  0.00  0.00    +0.016 A 
ATOM     33  C   UNL     1      12.088  -6.306  -3.583  0.00  0.00    +0.047 A 
ATOM     34  C   UNL     1      12.786  -6.248  -4.777  0.00  0.00    +0.014 A 
ATOM     35  C   UNL     1      12.399  -7.058  -5.844  0.00  0.00    +0.001 A 
ATOM     36  C   UNL     1      11.345  -7.930  -5.778  0.00  0.00    +0.008 A 
ATOM     37  C   UNL     1      12.110  -5.682  -2.255  0.00  0.00    +0.252 C 
ATOM     38  O   UNL     1      12.895  -4.833  -1.876  0.00  0.00    -0.270 OA
ENDBRANCH  25  26
ENDBRANCH   4  25
TORSDOF 4
