REMARK  Name = ZINC40013224
REMARK  4 active torsions:
REMARK  status: ('A' for Active; 'I' for Inactive)
REMARK    1  A    between atoms: C_3  and  C_6
REMARK    2  A    between atoms: C_6  and  C_8
REMARK    3  A    between atoms: C_6  and  N_18
REMARK    4  A    between atoms: C_19  and  C_21
REMARK                            x       y       z     vdW  Elec       q    Type
REMARK                         _______ _______ _______ _____ _____    ______ ____
ROOT
ATOM      1  C   UNL     1       3.761   1.845  -0.024  0.00  0.00    +0.140 C 
ENDROOT
BRANCH   1   2
ATOM      2  C   UNL     1       4.303   1.790  -1.429  0.00  0.00    -0.022 A 
ATOM      3  C   UNL     1       4.761   0.594  -1.950  0.00  0.00    +0.006 A 
ATOM      4  C   UNL     1       5.259   0.552  -3.235  0.00  0.00    +0.004 A 
ATOM      5  C   UNL     1       5.303   1.702  -4.013  0.00  0.00    -0.044 A 
ATOM      6  C   UNL     1       4.843   2.892  -3.497  0.00  0.00    -0.044 A 
ATOM      7  C   UNL     1       4.340   2.932  -2.202  0.00  0.00    +0.009 A 
ATOM      8  C   UNL     1       4.845   4.174  -4.288  0.00  0.00    +0.035 C 
ATOM      9  C   UNL     1       5.790   4.066  -5.483  0.00  0.00    +0.005 C 
ATOM     10  C   UNL     1       5.450   2.785  -6.255  0.00  0.00    +0.005 C 
ATOM     11  C   UNL     1       5.866   1.586  -5.405  0.00  0.00    +0.035 C 
ENDBRANCH   1   2
BRANCH   1  14
ATOM     12  C   UNL     1      -0.016   1.351   0.009  0.00  0.00    +0.008 A 
ATOM     13  C   UNL     1       1.183   2.038   0.002  0.00  0.00    +0.013 A 
ATOM     14  C   UNL     1       2.343   1.336  -0.013  0.00  0.00    +0.014 A 
ATOM     15  S   UNL     1       1.754  -0.349  -0.017  0.00  0.00    -0.099 S 
ATOM     16  C   UNL     1       0.002  -0.004   0.002  0.00  0.00    +0.045 A 
ENDBRANCH   1  14
BRANCH   1  17
ATOM     17  N   UNL     1       4.587   1.010   0.851  0.00  0.00    -0.300 N 
ATOM     18  C   UNL     1       4.641   1.268   2.173  0.00  0.00    +0.245 C 
ATOM     19  O   UNL     1       4.005   2.194   2.639  0.00  0.00    -0.270 OA
ATOM     20  H   UNL     1       5.094   0.272   0.480  0.00  0.00    +0.150 HD
BRANCH  18  21
ATOM     21  C   UNL     1       5.473   0.427   3.055  0.00  0.00    +0.040 A 
ATOM     22  C   UNL     1       6.209  -0.633   2.520  0.00  0.00    +0.015 A 
ATOM     23  C   UNL     1       6.987  -1.419   3.343  0.00  0.00    +0.028 A 
ATOM     24  C   UNL     1       7.039  -1.159   4.705  0.00  0.00    +0.076 A 
ATOM     25  C   UNL     1       6.305  -0.101   5.247  0.00  0.00    +0.143 A 
ATOM     26  C   UNL     1       5.531   0.694   4.426  0.00  0.00    +0.060 A 
ATOM     27  O   UNL     1       6.365   0.140   6.585  0.00  0.00    -0.481 OA
ATOM     28  C   UNL     1       6.531  -0.999   7.434  0.00  0.00    +0.325 C 
ATOM     29  C   UNL     1       7.619  -1.886   6.884  0.00  0.00    +0.255 C 
ATOM     30  O   UNL     1       8.309  -2.540   7.637  0.00  0.00    -0.272 OA
ATOM     31  N   UNL     1       7.824  -1.948   5.551  0.00  0.00    -0.280 N 
ATOM     32  H   UNL     1       8.505  -2.533   5.184  0.00  0.00    +0.155 HD
ENDBRANCH  18  21
ENDBRANCH   1  17
TORSDOF 4
