REMARK  Name = ZINC39668501
REMARK  7 active torsions:
REMARK  status: ('A' for Active; 'I' for Inactive)
REMARK    1  A    between atoms: C_1  and  C_2
REMARK    2  A    between atoms: C_2  and  C_4
REMARK    3  A    between atoms: C_2  and  O_29
REMARK    4  A    between atoms: C_4  and  N_5
REMARK    5  A    between atoms: C_6  and  C_8
REMARK    6  A    between atoms: C_19  and  C_21
REMARK    7  A    between atoms: O_29  and  C_30
REMARK                            x       y       z     vdW  Elec       q    Type
REMARK                         _______ _______ _______ _____ _____    ______ ____
ROOT
ATOM      1  C   UNL     1      -2.491  -3.922   0.217  0.00  0.00    +0.100 C 
ATOM      2  C   UNL     1      -1.691  -4.447  -0.996  0.00  0.00    +0.121 C 
ATOM      3  N   UNL     1      -2.403  -5.679  -1.409  0.00  0.00    -0.296 N 
ATOM      4  C   UNL     1      -3.838  -5.347  -1.249  0.00  0.00    +0.115 C 
ATOM      5  C   UNL     1      -3.900  -4.514   0.047  0.00  0.00    -0.004 C 
ATOM      6  C   UNL     1      -4.929  -3.397  -0.093  0.00  0.00    -0.010 C 
ATOM      7  C   UNL     1      -6.329  -4.009  -0.202  0.00  0.00    -0.082 C 
ATOM      8  N   UNL     1      -6.608  -4.812   0.995  0.00  0.00    +0.379 N 
ATOM      9  C   UNL     1      -5.671  -5.939   1.071  0.00  0.00    -0.082 C 
ATOM     10  C   UNL     1      -4.244  -5.409   1.234  0.00  0.00    -0.010 C 
ATOM     11  C   UNL     1      -1.866  -6.840  -1.834  0.00  0.00    +0.247 C 
ATOM     12  O   UNL     1      -0.661  -6.998  -1.808  0.00  0.00    -0.270 OA
ATOM     13  H   UNL     1      -6.506  -4.235   1.817  0.00  0.00    -0.086 HD
ATOM     14  H   UNL     1      -7.553  -5.164   0.949  0.00  0.00    -0.086 HD
ENDROOT
BRANCH  11  15
ATOM     15  C   UNL     1      -2.743  -7.921  -2.333  0.00  0.00    +0.040 A 
ATOM     16  C   UNL     1      -4.002  -7.618  -2.851  0.00  0.00    +0.033 A 
ATOM     17  C   UNL     1      -4.817  -8.633  -3.315  0.00  0.00    +0.043 A 
ATOM     18  C   UNL     1      -4.386  -9.947  -3.266  0.00  0.00    +0.040 A 
ATOM     19  C   UNL     1      -3.137 -10.254  -2.753  0.00  0.00    +0.043 A 
ATOM     20  C   UNL     1      -2.311  -9.248  -2.292  0.00  0.00    +0.033 A 
ATOM     21 CL   UNL     1      -2.606 -11.905  -2.695  0.00  0.00    -0.083 Cl
ATOM     22 CL   UNL     1      -6.385  -8.258  -3.960  0.00  0.00    -0.083 Cl
ENDBRANCH  11  15
BRANCH   1  24
ATOM     23  N   UNL     1      -2.618  -1.728   1.353  0.00  0.00    -0.312 N 
ATOM     24  C   UNL     1      -2.548  -2.416   0.196  0.00  0.00    +0.218 C 
ATOM     25  O   UNL     1      -2.532  -1.823  -0.862  0.00  0.00    -0.275 OA
ATOM     26  H   UNL     1      -2.631  -2.202   2.199  0.00  0.00    +0.149 HD
BRANCH  23  27
ATOM     27  C   UNL     1      -2.674  -0.264   1.332  0.00  0.00    +0.148 C 
BRANCH  27  29
ATOM     28  C   UNL     1      -2.807   1.792   2.745  0.00  0.00    +0.053 C 
ATOM     29  C   UNL     1      -2.748   0.264   2.766  0.00  0.00    +0.187 C 
BRANCH  29  30
ATOM     30  O   UNL     1      -3.920  -0.249   3.403  0.00  0.00    -0.486 OA
BRANCH  30  31
ATOM     31  C   UNL     1      -3.831  -0.524   4.731  0.00  0.00    +0.139 A 
ATOM     32  C   UNL     1      -2.681  -0.199   5.443  0.00  0.00    +0.049 A 
ATOM     33  C   UNL     1      -2.637  -0.500   6.795  0.00  0.00    +0.023 A 
ATOM     34  C   UNL     1      -3.728  -1.107   7.387  0.00  0.00    +0.111 A 
ATOM     35  N   UNL     1      -4.804  -1.402   6.683  0.00  0.00    -0.260 NA
ATOM     36  C   UNL     1      -4.888  -1.128   5.396  0.00  0.00    +0.156 A 
ENDBRANCH  30  31
ENDBRANCH  29  30
ENDBRANCH  27  29
ENDBRANCH  23  27
ENDBRANCH   1  24
TORSDOF 6
