REMARK  Name = ZINC63453589
REMARK  5 active torsions:
REMARK  status: ('A' for Active; 'I' for Inactive)
REMARK    1  A    between atoms: C_1  and  C_2
REMARK    2  A    between atoms: C_2  and  C_3
REMARK    3  A    between atoms: C_2  and  S_4
REMARK    4  A    between atoms: S_4  and  C_5
REMARK    5  A    between atoms: C_13  and  C_14
REMARK                            x       y       z     vdW  Elec       q    Type
REMARK                         _______ _______ _______ _____ _____    ______ ____
ROOT
ATOM      1  C   UNL     1      -1.367  -3.331  -0.294  0.00  0.00    +0.176 C 
ATOM      2  N   UNL     1      -0.386  -4.149  -0.025  0.00  0.00    -0.185 NA
ATOM      3  S   UNL     1      -1.145  -5.529   0.548  0.00  0.00    +0.048 S 
ATOM      4  C   UNL     1      -2.735  -5.054   0.388  0.00  0.00    +0.183 C 
ATOM      5  N   UNL     1      -3.845  -5.719   0.623  0.00  0.00    -0.152 NA
ATOM      6  C   UNL     1      -5.031  -5.144   0.356  0.00  0.00    +0.273 C 
ATOM      7  O   UNL     1      -6.075  -5.683   0.686  0.00  0.00    -0.268 OA
ATOM      8  C   UNL     1      -5.040  -3.838  -0.350  0.00  0.00    +0.079 C 
ATOM      9  C   UNL     1      -6.122  -3.425  -1.110  0.00  0.00    +0.022 C 
ATOM     10  C   UNL     1      -3.818  -2.997  -0.196  0.00  0.00    +0.137 C 
ATOM     11  N   UNL     1      -3.841  -1.692  -0.186  0.00  0.00    -0.284 NA
ATOM     12  N   UNL     1      -2.635  -3.751  -0.055  0.00  0.00    -0.211 N 
ATOM     13  H   UNL     1      -4.684  -1.221  -0.283  0.00  0.00    +0.188 HD
ENDROOT
BRANCH   9  14
ATOM     14  C   UNL     1      -6.947  -4.371  -1.725  0.00  0.00    -0.018 C 
ATOM     15  C   UNL     1      -8.146  -4.137  -2.392  0.00  0.00    +0.003 A 
ATOM     16  C   UNL     1      -8.883  -2.962  -2.656  0.00  0.00    +0.010 A 
ATOM     17  C   UNL     1     -10.047  -3.026  -3.344  0.00  0.00    +0.001 A 
ATOM     18  C   UNL     1     -10.571  -4.235  -3.820  0.00  0.00    +0.002 A 
ATOM     19  C   UNL     1      -9.941  -5.415  -3.619  0.00  0.00    +0.026 A 
ATOM     20  C   UNL     1      -8.671  -5.430  -2.880  0.00  0.00    +0.043 A 
ATOM     21  N   UNL     1      -7.867  -6.407  -2.548  0.00  0.00    -0.380 N 
ATOM     22  C   UNL     1      -6.721  -5.865  -1.811  0.00  0.00    +0.149 C 
ATOM     23  H   UNL     1      -8.004  -7.343  -2.760  0.00  0.00    +0.160 HD
ENDBRANCH   9  14
BRANCH   1  24
ATOM     24  S   UNL     1      -1.053  -1.723  -0.942  0.00  0.00    -0.086 S 
BRANCH  24  26
ATOM     25  C   UNL     1       1.163  -0.337  -1.749  0.00  0.00    +0.019 C 
ATOM     26  C   UNL     1       0.755  -1.649  -1.076  0.00  0.00    +0.048 C 
ATOM     27  C   UNL     1       1.373  -1.720   0.321  0.00  0.00    +0.019 C 
ENDBRANCH  24  26
ENDBRANCH   1  24
TORSDOF 3
