REMARK  Name = ZINC05208924
REMARK  16 active torsions:
REMARK  status: ('A' for Active; 'I' for Inactive)
REMARK    1  A    between atoms: C_1  and  C_2
REMARK    2  A    between atoms: C_2  and  N_69
REMARK    3  A    between atoms: C_3  and  C_4
REMARK    4  A    between atoms: C_3  and  N_69
REMARK    5  A    between atoms: C_5  and  C_6
REMARK    6  A    between atoms: C_5  and  N_69
REMARK    7  A    between atoms: C_6  and  C_7
REMARK    8  A    between atoms: C_7  and  C_8
REMARK    9  A    between atoms: C_8  and  C_10
REMARK   10  A    between atoms: C_8  and  N_11
REMARK   11  A    between atoms: N_11  and  C_12
REMARK   12  A    between atoms: C_14  and  C_24
REMARK   13  A    between atoms: C_18  and  N_21
REMARK   14  A    between atoms: N_21  and  C_22
REMARK   15  A    between atoms: N_21  and  C_23
REMARK   16  A    between atoms: C_25  and  C_26
REMARK                            x       y       z     vdW  Elec       q    Type
REMARK                         _______ _______ _______ _____ _____    ______ ____
ROOT
ATOM      1  C   UNL     1      -3.581   2.929   2.547  0.00  0.00    +0.039 A 
ATOM      2  C   UNL     1      -4.954   2.828   2.438  0.00  0.00    +0.049 A 
ATOM      3  C   UNL     1      -5.537   2.648   1.175  0.00  0.00    +0.041 A 
ATOM      4  C   UNL     1      -3.468   2.663   0.120  0.00  0.00    +0.049 A 
ATOM      5  C   UNL     1      -2.809   2.845   1.361  0.00  0.00    +0.021 A 
ATOM      6  C   UNL     1      -1.412   2.934   1.399  0.00  0.00    +0.035 A 
ATOM      7  C   UNL     1      -0.693   2.854   0.225  0.00  0.00    +0.030 A 
ATOM      8  C   UNL     1      -1.349   2.674  -0.998  0.00  0.00    +0.025 A 
ATOM      9  C   UNL     1      -2.704   2.579  -1.058  0.00  0.00    +0.028 A 
ATOM     10  N   UNL     1      -4.837   2.561   0.007  0.00  0.00    -0.355 N 
ATOM     11  H   UNL     1      -5.301   2.429  -0.899  0.00  0.00    +0.166 HD
ENDROOT
BRANCH   7  12
ATOM     12  N   UNL     1       0.701   2.947   0.257  0.00  0.00    -0.336 N 
ATOM     13  C   UNL     1       1.470   2.857  -0.987  0.00  0.00    +0.129 C 
ATOM     14  C   UNL     1       1.393   3.136   1.534  0.00  0.00    +0.129 C 
ENDBRANCH   7  12
BRANCH   1  15
ATOM     15  N   UNL     1      -2.973   3.108   3.783  0.00  0.00    -0.341 N 
ATOM     16  H   UNL     1      -2.008   3.178   3.843  0.00  0.00    +0.146 HD
BRANCH  15  17
ATOM     17  C   UNL     1      -3.791   3.192   4.995  0.00  0.00    +0.067 C 
ATOM     18  C   UNL     1      -4.087   1.782   5.509  0.00  0.00    +0.028 C 
BRANCH  17  19
ATOM     19  C   UNL     1      -3.033   3.977   6.068  0.00  0.00    +0.020 C 
BRANCH  19  20
ATOM     20  C   UNL     1      -2.846   5.423   5.605  0.00  0.00    -0.017 C 
BRANCH  20  21
ATOM     21  C   UNL     1      -2.089   6.208   6.677  0.00  0.00    -0.079 C 
BRANCH  21  22
ATOM     22  N   UNL     1      -1.898   7.596   6.207  0.00  0.00    +0.379 N 
ATOM     23  H   UNL     1      -1.482   7.576   5.268  0.00  0.00    -0.082 HD
BRANCH  22  25
ATOM     24  C   UNL     1      -3.866   8.320   7.517  0.00  0.00    -0.017 C 
ATOM     25  C   UNL     1      -3.201   8.291   6.139  0.00  0.00    -0.082 C 
ENDBRANCH  22  25
BRANCH  22  26
ATOM     26  C   UNL     1      -0.987   8.319   7.120  0.00  0.00    -0.082 C 
ATOM     27  C   UNL     1      -0.519   9.603   6.433  0.00  0.00    -0.017 C 
ENDBRANCH  22  26
ENDBRANCH  21  22
ENDBRANCH  20  21
ENDBRANCH  19  20
ENDBRANCH  17  19
ENDBRANCH  15  17
ENDBRANCH   1  15
BRANCH   3  28
ATOM     28  C   UNL     1      -7.002   2.542   1.067  0.00  0.00    +0.026 C 
ATOM     29  C   UNL     1      -7.576   2.369  -0.135  0.00  0.00    +0.010 C 
BRANCH  29  30
ATOM     30  C   UNL     1      -9.042   2.262  -0.243  0.00  0.00    -0.025 A 
ATOM     31  C   UNL     1      -9.837   2.334   0.904  0.00  0.00    +0.009 A 
ATOM     32  C   UNL     1     -11.208   2.239   0.795  0.00  0.00    +0.020 A 
ATOM     33  C   UNL     1     -11.797   2.061  -0.446  0.00  0.00    +0.041 A 
ATOM     34  C   UNL     1     -11.014   1.983  -1.586  0.00  0.00    +0.020 A 
ATOM     35  C   UNL     1      -9.643   2.083  -1.492  0.00  0.00    +0.009 A 
ATOM     36 CL   UNL     1     -13.524   1.934  -0.572  0.00  0.00    -0.084 Cl
ENDBRANCH  29  30
ENDBRANCH   3  28
TORSDOF 11
