REMARK  Name = ZINC36659913
REMARK  7 active torsions:
REMARK  status: ('A' for Active; 'I' for Inactive)
REMARK    1  A    between atoms: C_1  and  C_2
REMARK    2  A    between atoms: N_10  and  C_14
REMARK    3  A    between atoms: C_14  and  C_15
REMARK    4  A    between atoms: N_17  and  C_18
REMARK    5  A    between atoms: C_18  and  C_19
REMARK    6  A    between atoms: C_19  and  C_21
REMARK    7  A    between atoms: C_19  and  N_27
REMARK                            x       y       z     vdW  Elec       q    Type
REMARK                         _______ _______ _______ _____ _____    ______ ____
ROOT
ATOM      1  C   UNL     1       3.690  -6.125  -1.486  0.00  0.00    +0.231 C 
ATOM      2  O   UNL     1       3.632  -5.313  -2.384  0.00  0.00    -0.274 OA
ATOM      3  N   UNL     1       4.016  -7.405  -1.755  0.00  0.00    -0.315 N 
ATOM      4  H   UNL     1       4.062  -8.055  -1.036  0.00  0.00    +0.149 HD
ENDROOT
BRANCH   1   5
ATOM      5  C   UNL     1       3.397  -5.704  -0.069  0.00  0.00    +0.213 C 
BRANCH   5  15
ATOM      6  C   UNL     1       1.085   1.951   0.009  0.00  0.00    +0.007 C 
ATOM      7  C   UNL     1       0.900   0.435  -0.089  0.00  0.00    -0.014 C 
ATOM      8  C   UNL     1       1.707  -0.101  -1.273  0.00  0.00    +0.006 C 
ATOM      9  C   UNL     1       1.513  -1.616  -1.377  0.00  0.00    +0.035 C 
ATOM     10  C   UNL     1       1.975  -2.279  -0.084  0.00  0.00    +0.113 C 
ATOM     11  C   UNL     1       1.194  -1.738   1.108  0.00  0.00    +0.035 C 
ATOM     12  C   UNL     1       1.389  -0.223   1.203  0.00  0.00    +0.006 C 
ATOM     13  C   UNL     1       1.825  -3.780  -0.177  0.00  0.00    +0.247 C 
ATOM     14  O   UNL     1       0.799  -4.406  -0.340  0.00  0.00    -0.273 OA
ATOM     15  N   UNL     1       3.072  -4.276  -0.041  0.00  0.00    -0.215 N 
ATOM     16  C   UNL     1       3.975  -3.301   0.123  0.00  0.00    +0.310 C 
ATOM     17  O   UNL     1       5.165  -3.500   0.266  0.00  0.00    -0.252 OA
ATOM     18  N   UNL     1       3.416  -2.076   0.111  0.00  0.00    -0.285 N 
ATOM     19  H   UNL     1       3.875  -1.227   0.211  0.00  0.00    +0.151 HD
ENDBRANCH   5  15
ENDBRANCH   1   5
BRANCH   3  20
ATOM     20  C   UNL     1       4.300  -7.815  -3.132  0.00  0.00    +0.093 C 
BRANCH  20  21
ATOM     21  C   UNL     1       4.770  -9.271  -3.145  0.00  0.00    -0.020 C 
BRANCH  21  22
ATOM     22  C   UNL     1       6.091  -9.378  -2.427  0.00  0.00    -0.059 A 
ATOM     23  C   UNL     1       7.260  -9.026  -3.076  0.00  0.00    +0.002 A 
ATOM     24  C   UNL     1       8.471  -9.125  -2.418  0.00  0.00    +0.000 A 
ATOM     25  C   UNL     1       8.514  -9.575  -1.111  0.00  0.00    +0.000 A 
ATOM     26  C   UNL     1       7.345  -9.927  -0.463  0.00  0.00    +0.000 A 
ATOM     27  C   UNL     1       6.133  -9.824  -1.120  0.00  0.00    +0.002 A 
ENDBRANCH  21  22
BRANCH  21  28
ATOM     28  N   UNL     1       4.928  -9.722  -4.534  0.00  0.00    +0.385 N 
ATOM     29  C   UNL     1       5.370 -11.140  -4.564  0.00  0.00    -0.078 C 
ATOM     30  C   UNL     1       4.951 -11.612  -5.979  0.00  0.00    -0.020 C 
ATOM     31  C   UNL     1       3.602 -10.890  -6.198  0.00  0.00    -0.020 C 
ATOM     32  C   UNL     1       3.625  -9.691  -5.232  0.00  0.00    -0.078 C 
ATOM     33  H   UNL     1       5.595  -9.138  -5.016  0.00  0.00    -0.081 HD
ENDBRANCH  21  28
ENDBRANCH  20  21
ENDBRANCH   3  20
TORSDOF 6
