REMARK  Name = ZINC24139111
REMARK  6 active torsions:
REMARK  status: ('A' for Active; 'I' for Inactive)
REMARK    1  A    between atoms: C_7  and  C_11
REMARK    2  A    between atoms: C_14  and  S_23
REMARK    3  A    between atoms: N_15  and  C_16
REMARK    4  A    between atoms: S_23  and  C_24
REMARK    5  A    between atoms: C_24  and  C_25
REMARK    6  A    between atoms: C_31  and  C_34
REMARK                            x       y       z     vdW  Elec       q    Type
REMARK                         _______ _______ _______ _____ _____    ______ ____
ROOT
ATOM      1  C   UNL     1       0.002  -0.004   0.002  0.00  0.00    +0.171 A 
ATOM      2  N   UNL     1      -0.016   1.310   0.009  0.00  0.00    -0.128 NA
ATOM      3  N   UNL     1       1.185   1.766   0.000  0.00  0.00    -0.122 NA
ATOM      4  C   UNL     1       2.046   0.776  -0.013  0.00  0.00    +0.197 A 
ATOM      5  N   UNL     1       1.325  -0.389  -0.013  0.00  0.00    -0.270 N 
ENDROOT
BRANCH   1  12
ATOM      6  C   UNL     1      -4.607   0.785   0.069  0.00  0.00    +0.001 A 
ATOM      7  C   UNL     1      -5.349  -0.388   0.069  0.00  0.00    +0.002 A 
ATOM      8  C   UNL     1      -4.724  -1.615   0.041  0.00  0.00    +0.026 A 
ATOM      9  C   UNL     1      -3.334  -1.682   0.027  0.00  0.00    +0.047 A 
ATOM     10  C   UNL     1      -2.588  -0.491   0.031  0.00  0.00    +0.010 A 
ATOM     11  C   UNL     1      -3.240   0.740   0.051  0.00  0.00    +0.011 A 
ATOM     12  C   UNL     1      -1.173  -0.898   0.009  0.00  0.00    +0.045 A 
ATOM     13  C   UNL     1      -1.159  -2.256   0.003  0.00  0.00    +0.095 A 
ATOM     14  N   UNL     1      -2.439  -2.730   0.013  0.00  0.00    -0.360 N 
ATOM     15  H   UNL     1      -2.806  -3.767   0.012  0.00  0.00    +0.165 HD
ENDBRANCH   1  12
BRANCH   5  16
ATOM     16  C   UNL     1       1.827  -1.698  -0.024  0.00  0.00    +0.051 A 
ATOM     17  C   UNL     1       1.618  -2.533   1.065  0.00  0.00    +0.028 A 
ATOM     18  C   UNL     1       2.109  -3.824   1.050  0.00  0.00    +0.022 A 
ATOM     19  C   UNL     1       2.819  -4.281  -0.046  0.00  0.00    +0.041 A 
ATOM     20  C   UNL     1       3.034  -3.449  -1.131  0.00  0.00    +0.022 A 
ATOM     21  C   UNL     1       2.540  -2.160  -1.122  0.00  0.00    +0.028 A 
ATOM     22 CL   UNL     1       3.441  -5.902  -0.061  0.00  0.00    -0.084 Cl
ENDBRANCH   5  16
BRANCH   4  23
ATOM     23  S   UNL     1       3.803   0.918  -0.030  0.00  0.00    -0.076 S 
BRANCH  23  24
ATOM     24  C   UNL     1       3.973   2.720  -0.021  0.00  0.00    +0.173 C 
BRANCH  24  25
ATOM     25  C   UNL     1       5.434   3.087  -0.034  0.00  0.00    +0.226 C 
ATOM     26  O   UNL     1       6.278   2.216  -0.047  0.00  0.00    -0.275 OA
ATOM     27  N   UNL     1       5.804   4.383  -0.030  0.00  0.00    -0.300 N 
ATOM     28  C   UNL     1       4.793   5.449  -0.014  0.00  0.00    +0.108 C 
ATOM     29  C   UNL     1       5.090   6.392   1.156  0.00  0.00    +0.020 C 
ATOM     30  C   UNL     1       6.532   6.894   1.049  0.00  0.00    +0.016 C 
ATOM     31  C   UNL     1       7.494   5.707   1.129  0.00  0.00    +0.092 C 
ATOM     32  C   UNL     1       7.225   4.756  -0.036  0.00  0.00    +0.120 C 
BRANCH  31  33
ATOM     33  C   UNL     1       8.914   6.205   1.056  0.00  0.00    +0.215 C 
ATOM     34  O   UNL     1       9.136   7.393   0.950  0.00  0.00    -0.276 OA
ATOM     35  N   UNL     1       9.939   5.331   1.108  0.00  0.00    -0.329 N 
ATOM     36  H   UNL     1      10.976   5.694   1.054  0.00  0.00    +0.145 HD
ATOM     37  H   UNL     1       9.738   4.254   1.204  0.00  0.00    +0.145 HD
ENDBRANCH  31  33
ENDBRANCH  24  25
ENDBRANCH  23  24
ENDBRANCH   4  23
TORSDOF 6
