REMARK  Name = ZINC13501095
REMARK  12 active torsions:
REMARK  status: ('A' for Active; 'I' for Inactive)
REMARK    1  A    between atoms: C_1  and  C_2
REMARK    2  A    between atoms: C_2  and  C_3
REMARK    3  A    between atoms: C_3  and  C_5
REMARK    4  A    between atoms: C_3  and  N_75
REMARK    5  A    between atoms: N_9  and  C_10
REMARK    6  A    between atoms: C_10  and  C_11
REMARK    7  A    between atoms: C_11  and  C_12
REMARK    8  A    between atoms: C_18  and  C_19
REMARK    9  A    between atoms: C_18  and  N_75
REMARK   10  A    between atoms: C_23  and  C_32
REMARK   11  A    between atoms: C_25  and  C_31
REMARK   12  A    between atoms: C_33  and  N_75
REMARK                            x       y       z     vdW  Elec       q    Type
REMARK                         _______ _______ _______ _____ _____    ______ ____
ROOT
ATOM      1  N   UNL     1       4.273   1.675  -1.074  0.00  0.00    +0.391 N 
ATOM      2  H   UNL     1       4.474   2.615  -0.712  0.00  0.00    -0.080 HD
ENDROOT
BRANCH   1   3
ATOM      3  C   UNL     1       3.457   1.798  -2.300  0.00  0.00    -0.067 C 
ATOM      4  C   UNL     1       3.771   3.142  -2.961  0.00  0.00    -0.015 C 
ATOM      5  C   UNL     1       2.928   3.297  -4.228  0.00  0.00    -0.002 C 
ATOM      6  C   UNL     1       1.443   3.243  -3.861  0.00  0.00    -0.000 C 
ATOM      7  C   UNL     1       1.129   1.899  -3.201  0.00  0.00    -0.002 C 
ATOM      8  C   UNL     1       1.973   1.744  -1.934  0.00  0.00    -0.015 C 
ENDBRANCH   1   3
BRANCH   1   9
ATOM      9  C   UNL     1       3.531   0.914  -0.047  0.00  0.00    +0.003 C 
BRANCH   9  10
ATOM     10  C   UNL     1       4.056   1.300   1.311  0.00  0.00    +0.138 A 
ATOM     11  N   UNL     1       5.312   1.472   1.645  0.00  0.00    -0.115 NA
ATOM     12  N   UNL     1       5.351   1.795   2.892  0.00  0.00    -0.023 NA
ATOM     13  N   UNL     1       4.154   1.834   3.362  0.00  0.00    -0.044 NA
ATOM     14  N   UNL     1       3.326   1.535   2.418  0.00  0.00    -0.231 N 
BRANCH  14  15
ATOM     15  C   UNL     1       1.867   1.463   2.530  0.00  0.00    +0.152 C 
BRANCH  15  16
ATOM     16  C   UNL     1       1.272   2.859   2.335  0.00  0.00    +0.058 C 
BRANCH  16  17
ATOM     17  C   UNL     1      -0.216   2.808   2.569  0.00  0.00    -0.046 A 
ATOM     18  C   UNL     1      -1.073   2.553   1.515  0.00  0.00    +0.004 A 
ATOM     19  C   UNL     1      -2.437   2.501   1.730  0.00  0.00    +0.000 A 
ATOM     20  C   UNL     1      -2.945   2.714   2.998  0.00  0.00    +0.000 A 
ATOM     21  C   UNL     1      -2.088   2.974   4.051  0.00  0.00    +0.000 A 
ATOM     22  C   UNL     1      -0.724   3.021   3.837  0.00  0.00    +0.004 A 
ENDBRANCH  16  17
ENDBRANCH  15  16
ENDBRANCH  14  15
ENDBRANCH   9  10
BRANCH   9  24
ATOM     23  C   UNL     1       3.049  -1.008  -1.569  0.00  0.00    +0.002 C 
ATOM     24  C   UNL     1       3.718  -0.590  -0.258  0.00  0.00    -0.011 C 
ENDBRANCH   9  24
ENDBRANCH   1   9
BRANCH   1  25
ATOM     25  C   UNL     1       5.549   0.996  -1.382  0.00  0.00    -0.036 C 
BRANCH  25  26
ATOM     26  C   UNL     1       6.349   1.864  -2.319  0.00  0.00    +0.001 A 
ATOM     27  C   UNL     1       7.233   2.763  -1.818  0.00  0.00    +0.017 A 
ATOM     28  C   UNL     1       7.998   3.587  -2.755  0.00  0.00    -0.001 A 
ATOM     29  C   UNL     1       8.926   4.529  -2.299  0.00  0.00    +0.013 A 
ATOM     30  C   UNL     1       9.620   5.287  -3.199  0.00  0.00    -0.050 A 
ATOM     31  C   UNL     1       9.412   5.132  -4.562  0.00  0.00    +0.008 A 
ATOM     32  C   UNL     1       8.503   4.210  -5.035  0.00  0.00    -0.026 A 
ATOM     33  C   UNL     1       7.784   3.427  -4.137  0.00  0.00    +0.052 A 
ATOM     34  N   UNL     1       6.868   2.498  -4.582  0.00  0.00    -0.322 N 
ATOM     35  H   UNL     1       6.722   2.389  -5.534  0.00  0.00    +0.169 HD
ATOM     36  C   UNL     1       6.173   1.742  -3.714  0.00  0.00    +0.251 A 
ATOM     37  O   UNL     1       5.370   0.931  -4.142  0.00  0.00    -0.268 OA
ATOM     38  C   UNL     1       8.287   4.051  -6.518  0.00  0.00    +0.046 C 
ATOM     39  C   UNL     1      10.620   6.302  -2.707  0.00  0.00    +0.044 C 
ENDBRANCH  25  26
ENDBRANCH   1  25
TORSDOF 9
