REMARK  Name = ZINC14463954
REMARK  6 active torsions:
REMARK  status: ('A' for Active; 'I' for Inactive)
REMARK    1  A    between atoms: C_1  and  C_2
REMARK    2  A    between atoms: C_5  and  N_9
REMARK    3  A    between atoms: C_6  and  C_8
REMARK    4  A    between atoms: N_9  and  S_10
REMARK    5  A    between atoms: S_10  and  C_13
REMARK    6  A    between atoms: C_26  and  C_29
REMARK                            x       y       z     vdW  Elec       q    Type
REMARK                         _______ _______ _______ _____ _____    ______ ____
ROOT
ATOM      1  C   UNL     1      -0.154  10.668   2.054  0.00  0.00    +0.109 A 
ATOM      2  C   UNL     1      -0.364  10.951   0.716  0.00  0.00    +0.030 A 
ATOM      3  C   UNL     1      -0.818   9.967  -0.138  0.00  0.00    +0.025 A 
ATOM      4  C   UNL     1      -1.067   8.685   0.338  0.00  0.00    +0.031 A 
ATOM      5  C   UNL     1      -0.840   8.402   1.690  0.00  0.00    -0.018 A 
ATOM      6  C   UNL     1      -0.392   9.394   2.536  0.00  0.00    +0.034 A 
ATOM      7  C   UNL     1      -1.095   7.021   2.150  0.00  0.00    +0.049 C 
ATOM      8  C   UNL     1      -1.440   6.712   3.561  0.00  0.00    -0.023 C 
ATOM      9  C   UNL     1      -2.229   5.645   3.581  0.00  0.00    -0.030 C 
ATOM     10  C   UNL     1      -2.504   5.171   2.153  0.00  0.00    +0.033 C 
ATOM     11  C   UNL     1      -2.316   6.468   1.355  0.00  0.00    +0.029 C 
ATOM     12  C   UNL     1      -1.837   6.334  -0.080  0.00  0.00    +0.105 C 
ATOM     13  N   UNL     1      -1.563   7.713  -0.539  0.00  0.00    -0.336 N 
ATOM     14  H   UNL     1      -1.729   7.948  -1.466  0.00  0.00    +0.147 HD
ENDROOT
BRANCH  12  15
ATOM     15  C   UNL     1      -0.579   5.508  -0.134  0.00  0.00    -0.019 A 
ATOM     16  C   UNL     1       0.640   6.115  -0.136  0.00  0.00    +0.006 A 
ATOM     17  C   UNL     1       1.814   5.367  -0.187  0.00  0.00    +0.001 A 
ATOM     18  C   UNL     1       1.778   4.007  -0.234  0.00  0.00    +0.008 A 
ATOM     19  C   UNL     1       0.539   3.345  -0.233  0.00  0.00    -0.018 A 
ATOM     20  C   UNL     1      -0.656   4.106  -0.182  0.00  0.00    -0.013 A 
ATOM     21  C   UNL     1      -1.895   3.443  -0.181  0.00  0.00    +0.009 A 
ATOM     22  C   UNL     1      -1.932   2.083  -0.235  0.00  0.00    +0.001 A 
ATOM     23  C   UNL     1      -0.757   1.335  -0.280  0.00  0.00    +0.001 A 
ATOM     24  C   UNL     1       0.461   1.942  -0.282  0.00  0.00    +0.008 A 
ENDBRANCH  12  15
BRANCH   1  25
ATOM     25  S   UNL     1       0.416  11.930   3.143  0.00  0.00    +0.072 S 
ATOM     26  O   UNL     1       0.041  13.170   2.559  0.00  0.00    -0.150 OA
ATOM     27  O   UNL     1       0.013  11.550   4.451  0.00  0.00    -0.150 OA
BRANCH  25  28
ATOM     28  N   UNL     1       2.072  11.880   3.125  0.00  0.00    -0.216 N 
ATOM     29  H   UNL     1       2.560  11.704   3.945  0.00  0.00    +0.174 HD
BRANCH  28  34
ATOM     30  C   UNL     1       4.884  12.741  -1.723  0.00  0.00    +0.044 C 
ATOM     31  C   UNL     1       4.136  12.511  -0.435  0.00  0.00    -0.050 A 
ATOM     32  C   UNL     1       2.970  13.209  -0.181  0.00  0.00    +0.005 A 
ATOM     33  C   UNL     1       2.283  13.002   0.999  0.00  0.00    +0.025 A 
ATOM     34  C   UNL     1       2.764  12.091   1.931  0.00  0.00    +0.051 A 
ATOM     35  C   UNL     1       3.939  11.396   1.675  0.00  0.00    -0.028 A 
ATOM     36  C   UNL     1       4.619  11.604   0.491  0.00  0.00    +0.008 A 
ATOM     37  C   UNL     1       4.468  10.411   2.685  0.00  0.00    +0.046 C 
ENDBRANCH  28  34
ENDBRANCH  25  28
ENDBRANCH   1  25
TORSDOF 4
