REMARK  Name = ZINC22737750
REMARK  11 active torsions:
REMARK  status: ('A' for Active; 'I' for Inactive)
REMARK    1  A    between atoms: C_1  and  C_2
REMARK    2  A    between atoms: C_2  and  N_3
REMARK    3  A    between atoms: N_3  and  C_4
REMARK    4  A    between atoms: N_3  and  S_6
REMARK    5  A    between atoms: C_4  and  C_5
REMARK    6  A    between atoms: S_6  and  C_9
REMARK    7  A    between atoms: C_13  and  N_15
REMARK    8  A    between atoms: C_16  and  C_18
REMARK    9  A    between atoms: C_18  and  N_19
REMARK   10  A    between atoms: C_22  and  C_27
REMARK   11  A    between atoms: C_27  and  C_28
REMARK                            x       y       z     vdW  Elec       q    Type
REMARK                         _______ _______ _______ _____ _____    ______ ____
ROOT
ATOM      1  C   UNL     1       0.972   2.142  -4.502  0.00  0.00    +0.214 C 
ENDROOT
BRANCH   1   2
ATOM      2  N   UNL     1       0.315   2.436  -3.226  0.00  0.00    -0.216 N 
ATOM      3  C   UNL     1      -0.240   1.503  -2.427  0.00  0.00    +0.244 C 
ATOM      4  O   UNL     1      -0.290   0.307  -2.623  0.00  0.00    -0.273 OA
ATOM      5  C   UNL     1      -0.791   2.259  -1.235  0.00  0.00    +0.165 C 
ATOM      6  N   UNL     1      -0.450   3.662  -1.527  0.00  0.00    -0.287 N 
ATOM      7  C   UNL     1       0.193   3.664  -2.708  0.00  0.00    +0.310 C 
ATOM      8  O   UNL     1       0.615   4.669  -3.246  0.00  0.00    -0.252 OA
ATOM      9  H   UNL     1      -0.732   4.455  -0.819  0.00  0.00    +0.151 HD
BRANCH   5  10
ATOM     10  C   UNL     1      -0.111   1.798   0.056  0.00  0.00    +0.069 C 
BRANCH  10  11
ATOM     11  C   UNL     1      -0.761   2.474   1.236  0.00  0.00    -0.020 A 
ATOM     12  C   UNL     1      -0.346   3.599   1.839  0.00  0.00    +0.087 A 
ATOM     13  N   UNL     1      -1.186   3.911   2.873  0.00  0.00    -0.360 N 
ATOM     14  H   UNL     1      -0.998   4.806   3.484  0.00  0.00    +0.165 HD
ATOM     15  C   UNL     1      -2.188   2.970   2.963  0.00  0.00    +0.047 A 
ATOM     16  C   UNL     1      -1.969   2.032   1.937  0.00  0.00    +0.003 A 
ATOM     17  C   UNL     1      -2.836   0.949   1.787  0.00  0.00    +0.010 A 
ATOM     18  C   UNL     1      -3.901   0.811   2.632  0.00  0.00    +0.001 A 
ATOM     19  C   UNL     1      -4.125   1.736   3.642  0.00  0.00    +0.002 A 
ATOM     20  C   UNL     1      -3.278   2.810   3.811  0.00  0.00    +0.026 A 
ENDBRANCH  10  11
ENDBRANCH   5  10
ENDBRANCH   1   2
BRANCH   1  22
ATOM     21  N   UNL     1       0.336   1.964  -6.886  0.00  0.00    -0.284 N 
ATOM     22  C   UNL     1      -0.043   2.202  -5.614  0.00  0.00    +0.235 C 
ATOM     23  O   UNL     1      -1.201   2.464  -5.366  0.00  0.00    -0.274 OA
ATOM     24  H   UNL     1       1.400   1.812  -7.123  0.00  0.00    +0.155 HD
BRANCH  21  29
ATOM     25  C   UNL     1      -2.838   1.367  -8.643  0.00  0.00    +0.107 A 
ATOM     26  C   UNL     1      -2.518   1.803  -9.916  0.00  0.00    +0.028 A 
ATOM     27  C   UNL     1      -1.253   2.292 -10.185  0.00  0.00    +0.004 A 
ATOM     28  C   UNL     1      -0.304   2.346  -9.182  0.00  0.00    +0.023 A 
ATOM     29  C   UNL     1      -0.622   1.910  -7.903  0.00  0.00    +0.035 A 
ATOM     30  C   UNL     1      -1.892   1.414  -7.637  0.00  0.00    +0.051 A 
BRANCH  25  31
ATOM     31  S   UNL     1      -4.451   0.744  -8.305  0.00  0.00    +0.061 S 
ATOM     32  O   UNL     1      -4.667   0.909  -6.910  0.00  0.00    -0.153 OA
ATOM     33  O   UNL     1      -5.317   1.307  -9.281  0.00  0.00    -0.153 OA
BRANCH  31  34
ATOM     34  N   UNL     1      -4.415  -0.887  -8.588  0.00  0.00    -0.177 NA
BRANCH  34  36
ATOM     35  C   UNL     1      -5.349  -2.324  -6.843  0.00  0.00    +0.022 C 
ATOM     36  C   UNL     1      -4.069  -1.811  -7.506  0.00  0.00    +0.106 C 
ENDBRANCH  34  36
BRANCH  34  37
ATOM     37  C   UNL     1      -4.731  -1.406  -9.922  0.00  0.00    +0.106 C 
ATOM     38  C   UNL     1      -3.435  -1.610 -10.709  0.00  0.00    +0.022 C 
ENDBRANCH  34  37
ENDBRANCH  31  34
ENDBRANCH  25  31
ENDBRANCH  21  29
ENDBRANCH   1  22
TORSDOF 9
