REMARK  Name = ZINC39519929
REMARK  5 active torsions:
REMARK  status: ('A' for Active; 'I' for Inactive)
REMARK    1  A    between atoms: C_6  and  N_7
REMARK    2  A    between atoms: N_7  and  C_8
REMARK    3  A    between atoms: C_8  and  C_9
REMARK    4  A    between atoms: N_11  and  C_12
REMARK    5  A    between atoms: C_12  and  C_18
REMARK                            x       y       z     vdW  Elec       q    Type
REMARK                         _______ _______ _______ _____ _____    ______ ____
ROOT
ATOM      1  N   UNL     1      -1.200  -0.720   0.010  0.00  0.00    -0.335 N 
ATOM      2  H   UNL     1      -1.187  -1.690   0.004  0.00  0.00    +0.147 HD
ENDROOT
BRANCH   1   8
ATOM      3  C   UNL     1      -0.017   1.384   0.010  0.00  0.00    +0.027 A 
ATOM      4  C   UNL     1       1.170   2.093   0.002  0.00  0.00    +0.051 A 
ATOM      5  C   UNL     1       2.381   1.421  -0.013  0.00  0.00    +0.173 A 
ATOM      6  C   UNL     1       2.403   0.028  -0.021  0.00  0.00    +0.174 A 
ATOM      7  C   UNL     1       1.214  -0.682  -0.013  0.00  0.00    +0.072 A 
ATOM      8  C   UNL     1       0.002  -0.004   0.002  0.00  0.00    +0.031 A 
ATOM      9  O   UNL     1       3.703  -0.388  -0.036  0.00  0.00    -0.395 OA
ATOM     10  C   UNL     1       4.469   0.759  -0.450  0.00  0.00    +0.589 C 
ATOM     11  O   UNL     1       3.669   1.877  -0.023  0.00  0.00    -0.395 OA
ATOM     12  F   UNL     1       5.715   0.775   0.187  0.00  0.00    -0.125 F 
ATOM     13  F   UNL     1       4.627   0.769  -1.840  0.00  0.00    -0.125 F 
ENDBRANCH   1   8
BRANCH   1  14
ATOM     14  C   UNL     1      -2.478  -0.005   0.026  0.00  0.00    +0.197 C 
BRANCH  14  15
ATOM     15  C   UNL     1      -3.610  -1.000   0.031  0.00  0.00    +0.231 C 
ATOM     16  O   UNL     1      -3.373  -2.189   0.023  0.00  0.00    -0.274 OA
ATOM     17  N   UNL     1      -4.887  -0.568   0.046  0.00  0.00    -0.296 N 
ATOM     18  H   UNL     1      -5.077   0.383   0.053  0.00  0.00    +0.150 HD
BRANCH  17  19
ATOM     19  C   UNL     1      -5.987  -1.536   0.051  0.00  0.00    +0.121 C 
ATOM     20  C   UNL     1      -5.906  -2.407  -1.204  0.00  0.00    +0.041 C 
ATOM     21  C   UNL     1      -7.056  -3.417  -1.198  0.00  0.00    +0.003 C 
ATOM     22  C   UNL     1      -8.391  -2.671  -1.181  0.00  0.00    +0.000 C 
ATOM     23  C   UNL     1      -8.472  -1.799   0.074  0.00  0.00    +0.003 C 
ATOM     24  C   UNL     1      -7.323  -0.789   0.068  0.00  0.00    +0.041 C 
BRANCH  19  25
ATOM     25  C   UNL     1      -5.886  -2.387   1.248  0.00  0.00    +0.088 C 
ATOM     26  N   UNL     1      -5.808  -3.044   2.171  0.00  0.00    -0.194 NA
ENDBRANCH  19  25
ENDBRANCH  17  19
ENDBRANCH  14  15
ENDBRANCH   1  14
TORSDOF 5
