REMARK  Name = ZINC35591778
REMARK  16 active torsions:
REMARK  status: ('A' for Active; 'I' for Inactive)
REMARK    1  A    between atoms: C_1  and  C_2
REMARK    2  A    between atoms: C_6  and  C_8
REMARK    3  A    between atoms: C_8  and  O_9
REMARK    4  A    between atoms: O_9  and  C_10
REMARK    5  A    between atoms: C_10  and  C_34
REMARK    6  A    between atoms: C_16  and  O_19
REMARK    7  A    between atoms: O_19  and  C_20
REMARK    8  A    between atoms: C_20  and  C_21
REMARK    9  A    between atoms: C_24  and  C_27
REMARK   10  A    between atoms: C_30  and  C_32
REMARK   11  A    between atoms: C_30  and  C_33
REMARK   12  A    between atoms: N_36  and  C_37
REMARK   13  A    between atoms: C_37  and  C_38
REMARK   14  A    between atoms: C_38  and  N_39
REMARK   15  A    between atoms: N_39  and  C_40
REMARK   16  A    between atoms: N_39  and  C_41
REMARK                            x       y       z     vdW  Elec       q    Type
REMARK                         _______ _______ _______ _____ _____    ______ ____
ROOT
ATOM      1  C   UNL     1       1.525  -3.680   4.170  0.00  0.00    +0.150 C 
ATOM      2  C   UNL     1       2.965  -3.709   4.682  0.00  0.00    +0.079 C 
ATOM      3  C   UNL     1       3.549  -2.320   4.771  0.00  0.00    +0.156 C 
ATOM      4  C   UNL     1       2.667  -1.331   5.553  0.00  0.00    +0.179 C 
ATOM      5  C   UNL     1       1.214  -1.403   5.076  0.00  0.00    +0.153 C 
ATOM      6  C   UNL     1       0.691  -2.825   5.131  0.00  0.00    +0.079 C 
ATOM      7  O   UNL     1       3.194  -0.053   5.104  0.00  0.00    -0.341 OA
ATOM      8  C   UNL     1       3.787  -0.278   3.817  0.00  0.00    +0.165 C 
ATOM      9  O   UNL     1       3.663  -1.673   3.493  0.00  0.00    -0.343 OA
ATOM     10  C   UNL     1       5.263   0.124   3.854  0.00  0.00    +0.074 C 
ATOM     11  C   UNL     1       3.057   0.555   2.762  0.00  0.00    +0.074 C 
ENDROOT
BRANCH   1  12
ATOM     12  C   UNL     1       0.972  -5.081   4.126  0.00  0.00    +0.245 C 
ATOM     13  O   UNL     1       0.332  -5.510   5.063  0.00  0.00    -0.273 OA
ATOM     14  N   UNL     1       1.189  -5.858   3.046  0.00  0.00    -0.315 N 
ATOM     15  H   UNL     1       1.645  -5.494   2.271  0.00  0.00    +0.149 HD
BRANCH  14  16
ATOM     16  C   UNL     1       0.737  -7.251   3.043  0.00  0.00    +0.086 C 
BRANCH  16  17
ATOM     17  C   UNL     1       1.105  -7.904   1.709  0.00  0.00    -0.061 C 
BRANCH  17  18
ATOM     18  N   UNL     1       0.651  -9.301   1.706  0.00  0.00    +0.377 N 
ATOM     19  C   UNL     1       0.896  -9.893   0.384  0.00  0.00    -0.097 C 
ATOM     20  C   UNL     1       1.389 -10.058   2.726  0.00  0.00    -0.097 C 
ATOM     21  H   UNL     1      -0.336  -9.335   1.912  0.00  0.00    -0.083 HD
ENDBRANCH  17  18
ENDBRANCH  16  17
ENDBRANCH  14  16
ENDBRANCH   1  12
BRANCH   1  22
ATOM     22  O   UNL     1       1.490  -3.107   2.862  0.00  0.00    -0.359 OA
BRANCH  22  23
ATOM     23  C   UNL     1       0.179  -3.022   2.299  0.00  0.00    +0.196 C 
BRANCH  23  29
ATOM     24  C   UNL     1       0.077   1.113  -0.518  0.00  0.00    +0.044 C 
ATOM     25  C   UNL     1       0.205  -0.384  -0.402  0.00  0.00    -0.050 A 
ATOM     26  C   UNL     1       0.393  -1.152  -1.536  0.00  0.00    +0.003 A 
ATOM     27  C   UNL     1       0.510  -2.525  -1.429  0.00  0.00    +0.001 A 
ATOM     28  C   UNL     1       0.441  -3.131  -0.188  0.00  0.00    +0.006 A 
ATOM     29  C   UNL     1       0.255  -2.363   0.946  0.00  0.00    -0.022 A 
ATOM     30  C   UNL     1       0.142  -0.989   0.840  0.00  0.00    +0.009 A 
ENDBRANCH  23  29
ENDBRANCH  22  23
ENDBRANCH   1  22
BRANCH   5  31
ATOM     31  O   UNL     1       0.403  -0.577   5.912  0.00  0.00    -0.369 OA
BRANCH  31  32
ATOM     32  C   UNL     1      -0.734  -0.018   5.251  0.00  0.00    +0.195 C 
BRANCH  32  33
ATOM     33  C   UNL     1      -1.514   0.831   6.222  0.00  0.00    -0.022 A 
ATOM     34  C   UNL     1      -2.518   0.260   6.983  0.00  0.00    +0.007 A 
ATOM     35  C   UNL     1      -3.236   1.031   7.874  0.00  0.00    +0.019 A 
ATOM     36  C   UNL     1      -2.946   2.390   8.007  0.00  0.00    +0.052 A 
ATOM     37  C   UNL     1      -1.930   2.960   7.236  0.00  0.00    +0.019 A 
ATOM     38  C   UNL     1      -1.217   2.176   6.353  0.00  0.00    +0.007 A 
BRANCH  36  39
ATOM     39  C   UNL     1      -3.687   3.197   8.930  0.00  0.00    +0.099 C 
ATOM     40  N   UNL     1      -4.274   3.837   9.661  0.00  0.00    -0.191 NA
ENDBRANCH  36  39
ENDBRANCH  32  33
ENDBRANCH  31  32
ENDBRANCH   5  31
TORSDOF 11
