REMARK  Name = ZINC39521480
REMARK  4 active torsions:
REMARK  status: ('A' for Active; 'I' for Inactive)
REMARK    1  A    between atoms: C_1  and  S_2
REMARK    2  A    between atoms: S_2  and  C_3
REMARK    3  A    between atoms: N_15  and  C_16
REMARK    4  A    between atoms: C_21  and  O_22
REMARK                            x       y       z     vdW  Elec       q    Type
REMARK                         _______ _______ _______ _____ _____    ______ ____
ROOT
ATOM      1  C   UNL     1      -1.752  -0.467   0.016  0.00  0.00    +0.048 C 
ATOM      2  C   UNL     1      -2.388  -0.015   1.332  0.00  0.00    +0.014 C 
ATOM      3  C   UNL     1      -3.868  -0.404   1.344  0.00  0.00    +0.003 C 
ATOM      4  C   UNL     1      -3.997  -1.923   1.212  0.00  0.00    +0.026 C 
ATOM      5  C   UNL     1      -3.358  -2.376  -0.101  0.00  0.00    +0.037 C 
ATOM      6  C   UNL     1      -1.880  -1.986  -0.116  0.00  0.00    +0.040 C 
ATOM      7  C   UNL     1      -4.076  -1.712  -1.279  0.00  0.00    +0.026 C 
ATOM      8  C   UNL     1      -3.525  -2.276  -2.591  0.00  0.00    +0.005 C 
ATOM      9  C   UNL     1      -3.787  -3.783  -2.649  0.00  0.00    +0.033 C 
ATOM     10  C   UNL     1      -3.064  -4.470  -1.486  0.00  0.00    +0.137 C 
ATOM     11  N   UNL     1      -3.481  -3.834  -0.229  0.00  0.00    -0.309 N 
ATOM     12  I   UNL     1      -3.582  -6.568  -1.449  0.00  0.00    -0.061 I 
ENDROOT
BRANCH  11  13
ATOM     13  C   UNL     1      -3.985  -4.602   0.827  0.00  0.00    +0.073 A 
ATOM     14  C   UNL     1      -5.346  -4.858   0.912  0.00  0.00    +0.027 A 
ATOM     15  C   UNL     1      -5.841  -5.617   1.955  0.00  0.00    +0.002 A 
ATOM     16  C   UNL     1      -4.984  -6.125   2.914  0.00  0.00    +0.004 A 
ATOM     17  C   UNL     1      -3.627  -5.874   2.835  0.00  0.00    +0.047 A 
ATOM     18  C   UNL     1      -3.121  -5.118   1.790  0.00  0.00    +0.138 A 
BRANCH  18  19
ATOM     19  O   UNL     1      -1.785  -4.875   1.708  0.00  0.00    -0.505 OA
ATOM     20  H   UNL     1      -1.502  -4.074   2.168  0.00  0.00    +0.292 HD
ENDBRANCH  18  19
ENDBRANCH  11  13
BRANCH   1  22
ATOM     21  C   UNL     1      -0.022   1.810   0.012  0.00  0.00    +0.084 C 
ATOM     22  S   UNL     1       0.002  -0.004   0.002  0.00  0.00    -0.161 S 
ENDBRANCH   1  22
TORSDOF 3
