REMARK  Name = ZINC61941957
REMARK  11 active torsions:
REMARK  status: ('A' for Active; 'I' for Inactive)
REMARK    1  A    between atoms: C_1  and  C_2
REMARK    2  A    between atoms: N_5  and  C_8
REMARK    3  A    between atoms: C_8  and  C_9
REMARK    4  A    between atoms: C_8  and  C_25
REMARK    5  A    between atoms: C_9  and  N_10
REMARK    6  A    between atoms: N_13  and  C_14
REMARK    7  A    between atoms: N_17  and  C_20
REMARK    8  A    between atoms: C_20  and  C_21
REMARK    9  A    between atoms: N_23  and  C_24
REMARK   10  A    between atoms: C_25  and  C_26
REMARK   11  A    between atoms: C_25  and  C_27
REMARK                            x       y       z     vdW  Elec       q    Type
REMARK                         _______ _______ _______ _____ _____    ______ ____
ROOT
ATOM      1  N   UNL     1       1.881  -3.914   2.386  0.00  0.00    -0.301 N 
ATOM      2  C   UNL     1       2.393  -4.255   3.586  0.00  0.00    +0.300 C 
ATOM      3  O   UNL     1       3.411  -4.918   3.646  0.00  0.00    -0.253 OA
ATOM      4  N   UNL     1       1.776  -3.863   4.718  0.00  0.00    -0.297 N 
ATOM      5  H   UNL     1       1.069  -3.386   2.338  0.00  0.00    +0.150 HD
ATOM      6  H   UNL     1       0.964  -3.335   4.670  0.00  0.00    +0.151 HD
ENDROOT
BRANCH   4   7
ATOM      7  C   UNL     1       2.333  -4.234   6.021  0.00  0.00    +0.071 C 
ATOM      8  C   UNL     1       1.830  -5.625   6.416  0.00  0.00    +0.004 C 
ATOM      9  C   UNL     1       2.350  -5.973   7.812  0.00  0.00    -0.076 C 
ATOM     10  N   UNL     1       1.863  -4.983   8.780  0.00  0.00    +0.385 N 
ATOM     11  C   UNL     1       2.400  -3.658   8.450  0.00  0.00    -0.076 C 
ATOM     12  C   UNL     1       1.882  -3.221   7.078  0.00  0.00    +0.004 C 
ATOM     13  H   UNL     1       0.855  -4.953   8.751  0.00  0.00    -0.081 HD
BRANCH  10  14
ATOM     14  C   UNL     1       2.300  -5.364  10.130  0.00  0.00    +0.019 C 
BRANCH  14  15
ATOM     15  C   UNL     1       1.700  -4.419  11.138  0.00  0.00    +0.196 C 
ATOM     16  O   UNL     1       0.979  -3.516  10.768  0.00  0.00    -0.278 OA
ATOM     17  N   UNL     1       1.964  -4.576  12.450  0.00  0.00    -0.320 N 
ATOM     18  C   UNL     1       1.380  -3.657  13.430  0.00  0.00    +0.128 C 
ATOM     19  H   UNL     1       2.541  -5.298  12.746  0.00  0.00    +0.148 HD
ENDBRANCH  14  15
ENDBRANCH  10  14
ENDBRANCH   4   7
BRANCH   1  20
ATOM     20  C   UNL     1       2.551  -4.341   1.156  0.00  0.00    +0.091 C 
BRANCH  20  21
ATOM     21  C   UNL     1       1.883  -3.673  -0.047  0.00  0.00    -0.048 C 
BRANCH  21  26
ATOM     22  C   UNL     1       3.543   1.677   1.026  0.00  0.00    +0.007 C 
ATOM     23  C   UNL     1       3.296   0.170   1.132  0.00  0.00    -0.018 C 
ATOM     24  C   UNL     1       1.789  -0.104   1.110  0.00  0.00    -0.016 C 
ATOM     25  C   UNL     1       1.551  -1.615   1.137  0.00  0.00    -0.078 C 
ATOM     26  N   UNL     1       2.180  -2.234  -0.036  0.00  0.00    +0.383 N 
ATOM     27  C   UNL     1       3.634  -2.037   0.016  0.00  0.00    -0.078 C 
ATOM     28  C   UNL     1       3.952  -0.542  -0.054  0.00  0.00    -0.016 C 
ATOM     29  H   UNL     1       1.814  -1.811  -0.876  0.00  0.00    -0.081 HD
ENDBRANCH  21  26
BRANCH  21  30
ATOM     30  C   UNL     1       2.418  -4.294  -1.339  0.00  0.00    -0.029 C 
ATOM     31  C   UNL     1       2.003  -5.765  -1.407  0.00  0.00    +0.005 C 
ATOM     32  C   UNL     1       1.842  -3.546  -2.542  0.00  0.00    +0.005 C 
ENDBRANCH  21  30
ENDBRANCH  20  21
ENDBRANCH   1  20
TORSDOF 7
