REMARK  Name = ZINC12218832
REMARK  10 active torsions:
REMARK  status: ('A' for Active; 'I' for Inactive)
REMARK    1  A    between atoms: C_1  and  C_2
REMARK    2  A    between atoms: C_5  and  C_33
REMARK    3  A    between atoms: C_6  and  C_8
REMARK    4  A    between atoms: C_16  and  C_19
REMARK    5  A    between atoms: C_19  and  N_20
REMARK    6  A    between atoms: C_21  and  C_23
REMARK    7  A    between atoms: C_25  and  C_29
REMARK    8  A    between atoms: C_29  and  C_30
REMARK    9  A    between atoms: C_30  and  C_31
REMARK   10  A    between atoms: C_30  and  C_32
REMARK                            x       y       z     vdW  Elec       q    Type
REMARK                         _______ _______ _______ _____ _____    ______ ____
ROOT
ATOM      1  C   UNL     1       3.603   2.080  -0.015  0.00  0.00    +0.005 A 
ATOM      2  C   UNL     1       4.684   1.647   0.755  0.00  0.00    +0.017 A 
ATOM      3  C   UNL     1       5.862   2.356   0.743  0.00  0.00    +0.001 A 
ATOM      4  C   UNL     1       5.995   3.507  -0.026  0.00  0.00    +0.159 A 
ATOM      5  C   UNL     1       4.911   3.941  -0.791  0.00  0.00    +0.166 A 
ATOM      6  C   UNL     1       3.727   3.236  -0.785  0.00  0.00    +0.052 A 
ATOM      7  F   UNL     1       5.024   5.059  -1.541  0.00  0.00    -0.202 F 
ATOM      8  O   UNL     1       7.241   4.042   0.102  0.00  0.00    -0.484 OA
ATOM      9  C   UNL     1       7.859   3.527   1.293  0.00  0.00    +0.195 C 
ATOM     10  C   UNL     1       7.181   2.147   1.462  0.00  0.00    +0.085 C 
ENDROOT
BRANCH   1  16
ATOM     11  C   UNL     1       0.122  -0.318   2.433  0.00  0.00    +0.067 C 
ATOM     12  C   UNL     1       0.694   0.192   1.135  0.00  0.00    +0.057 A 
ATOM     13  C   UNL     1       0.030  -0.051  -0.055  0.00  0.00    +0.134 A 
ATOM     14  N   UNL     1       0.526   0.393  -1.197  0.00  0.00    -0.256 NA
ATOM     15  C   UNL     1       1.659   1.071  -1.207  0.00  0.00    +0.064 A 
ATOM     16  C   UNL     1       2.331   1.319  -0.010  0.00  0.00    +0.092 A 
ATOM     17  N   UNL     1       1.827   0.869   1.136  0.00  0.00    -0.249 NA
ATOM     18  C   UNL     1       2.224   1.577  -2.509  0.00  0.00    +0.068 C 
ENDBRANCH   1  16
BRANCH   9  19
ATOM     19  C   UNL     1       9.368   3.368   1.096  0.00  0.00    +0.149 C 
BRANCH  19  20
ATOM     20  N   UNL     1       9.981   4.689   0.935  0.00  0.00    -0.307 N 
ATOM     21  C   UNL     1      11.311   4.796   0.746  0.00  0.00    +0.262 C 
ATOM     22  O   UNL     1      12.003   3.796   0.710  0.00  0.00    -0.269 OA
ATOM     23  H   UNL     1       9.429   5.487   0.964  0.00  0.00    +0.149 HD
BRANCH  21  24
ATOM     24  C   UNL     1      11.927   6.123   0.585  0.00  0.00    +0.120 A 
ATOM     25  C   UNL     1      13.270   6.398   0.391  0.00  0.00    +0.057 A 
ATOM     26  C   UNL     1      13.352   7.788   0.293  0.00  0.00    +0.064 A 
ATOM     27  N   UNL     1      12.144   8.273   0.431  0.00  0.00    -0.178 NA
ATOM     28  N   UNL     1      11.289   7.331   0.602  0.00  0.00    -0.272 N 
ATOM     29  H   UNL     1      10.305   7.461   0.729  0.00  0.00    +0.189 HD
BRANCH  26  30
ATOM     30  C   UNL     1      14.610   8.589   0.075  0.00  0.00    +0.060 C 
BRANCH  30  31
ATOM     31  C   UNL     1      14.434   9.492  -1.148  0.00  0.00    -0.011 C 
ATOM     32  C   UNL     1      15.660  10.395  -1.297  0.00  0.00    +0.007 C 
ATOM     33  C   UNL     1      14.280   8.629  -2.402  0.00  0.00    +0.007 C 
ENDBRANCH  30  31
ENDBRANCH  26  30
ENDBRANCH  21  24
ENDBRANCH  19  20
ENDBRANCH   9  19
TORSDOF 6
