REMARK  Name = ZINC62497878
REMARK  8 active torsions:
REMARK  status: ('A' for Active; 'I' for Inactive)
REMARK    1  A    between atoms: C_1  and  C_2
REMARK    2  A    between atoms: C_5  and  C_24
REMARK    3  A    between atoms: C_6  and  C_8
REMARK    4  A    between atoms: C_8  and  C_9
REMARK    5  A    between atoms: N_12  and  C_21
REMARK    6  A    between atoms: C_15  and  O_20
REMARK    7  A    between atoms: C_21  and  C_22
REMARK    8  A    between atoms: C_21  and  C_23
REMARK                            x       y       z     vdW  Elec       q    Type
REMARK                         _______ _______ _______ _____ _____    ______ ____
ROOT
ATOM      1  C   UNL     1       2.047  -3.091   2.576  0.00  0.00    +0.195 C 
ATOM      2  C   UNL     1       1.834  -3.871   3.881  0.00  0.00    +0.150 C 
ATOM      3  N   UNL     1       3.156  -4.317   4.354  0.00  0.00    -0.321 N 
ATOM      4  C   UNL     1       4.221  -3.406   4.269  0.00  0.00    +0.076 A 
ATOM      5  C   UNL     1       5.402  -3.655   4.949  0.00  0.00    +0.072 A 
ATOM      6  C   UNL     1       6.453  -2.755   4.859  0.00  0.00    +0.119 A 
ATOM      7  C   UNL     1       6.320  -1.609   4.089  0.00  0.00    +0.049 A 
ATOM      8  C   UNL     1       5.141  -1.360   3.411  0.00  0.00    +0.051 A 
ATOM      9  C   UNL     1       4.086  -2.255   3.498  0.00  0.00    +0.142 A 
ATOM     10  O   UNL     1       2.929  -1.995   2.829  0.00  0.00    -0.485 OA
ENDROOT
BRANCH   3  11
ATOM     11  C   UNL     1       3.352  -5.664   4.896  0.00  0.00    +0.068 C 
ATOM     12  C   UNL     1       2.489  -5.841   6.146  0.00  0.00    +0.027 C 
ATOM     13  C   UNL     1       2.947  -6.700   3.845  0.00  0.00    +0.027 C 
ENDBRANCH   3  11
BRANCH   6  14
ATOM     14  O   UNL     1       7.614  -2.995   5.526  0.00  0.00    -0.507 OA
ATOM     15  H   UNL     1       8.263  -3.500   5.018  0.00  0.00    +0.292 HD
ENDBRANCH   6  14
BRANCH   1  16
ATOM     16  C   UNL     1       0.704  -2.562   2.070  0.00  0.00    +0.081 C 
BRANCH  16  22
ATOM     17  C   UNL     1       1.472   1.570  -0.648  0.00  0.00    +0.044 C 
ATOM     18  C   UNL     1       1.265   0.079  -0.569  0.00  0.00    -0.050 A 
ATOM     19  C   UNL     1       1.252  -0.679  -1.725  0.00  0.00    +0.003 A 
ATOM     20  C   UNL     1       1.062  -2.046  -1.653  0.00  0.00    +0.004 A 
ATOM     21  C   UNL     1       0.884  -2.655  -0.425  0.00  0.00    -0.047 A 
ATOM     22  C   UNL     1       0.898  -1.898   0.731  0.00  0.00    -0.041 A 
ATOM     23  C   UNL     1       1.093  -0.531   0.659  0.00  0.00    +0.007 A 
ATOM     24  C   UNL     1       0.676  -4.146  -0.346  0.00  0.00    +0.044 C 
ENDBRANCH  16  22
ENDBRANCH   1  16
TORSDOF 4
