REMARK  Name = ZINC39015703
REMARK  8 active torsions:
REMARK  status: ('A' for Active; 'I' for Inactive)
REMARK    1  A    between atoms: C_1  and  C_2
REMARK    2  A    between atoms: C_2  and  C_3
REMARK    3  A    between atoms: C_2  and  C_4
REMARK    4  A    between atoms: C_2  and  C_5
REMARK    5  A    between atoms: C_8  and  C_11
REMARK    6  A    between atoms: N_17  and  N_18
REMARK    7  A    between atoms: C_19  and  C_20
REMARK    8  A    between atoms: C_29  and  O_30
REMARK                            x       y       z     vdW  Elec       q    Type
REMARK                         _______ _______ _______ _____ _____    ______ ____
ROOT
ATOM      1  C   UNL     1       2.717  -1.881  -4.759  0.00  0.00    +0.264 C 
ATOM      2  N   UNL     1       1.772  -1.974  -5.883  0.00  0.00    -0.189 NA
ATOM      3  N   UNL     1       2.145  -1.194  -6.763  0.00  0.00    -0.219 N 
ATOM      4  C   UNL     1       3.275  -0.512  -6.436  0.00  0.00    +0.174 C 
ATOM      5  S   UNL     1       4.048   0.642  -7.438  0.00  0.00    -0.015 S 
ATOM      6  N   UNL     1       3.703  -0.879  -5.205  0.00  0.00    -0.172 N 
ATOM      7  H   UNL     1       1.678  -1.078  -7.605  0.00  0.00    +0.176 HD
ENDROOT
BRANCH   1  11
ATOM      8  C   UNL     1       0.721  -0.555  -1.223  0.00  0.00    -0.042 A 
ATOM      9  C   UNL     1       0.052  -1.345  -2.139  0.00  0.00    +0.004 A 
ATOM     10  C   UNL     1       0.698  -1.774  -3.284  0.00  0.00    +0.008 A 
ATOM     11  C   UNL     1       2.013  -1.413  -3.512  0.00  0.00    -0.002 A 
ATOM     12  C   UNL     1       2.681  -0.622  -2.596  0.00  0.00    +0.008 A 
ATOM     13  C   UNL     1       2.034  -0.190  -1.454  0.00  0.00    +0.004 A 
BRANCH   8  15
ATOM     14  C   UNL     1      -0.015   1.442   0.049  0.00  0.00    +0.015 C 
ATOM     15  C   UNL     1       0.017  -0.087   0.024  0.00  0.00    -0.013 C 
ATOM     16  C   UNL     1       0.765  -0.601   1.256  0.00  0.00    +0.015 C 
ATOM     17  C   UNL     1      -1.415  -0.628   0.035  0.00  0.00    +0.015 C 
ENDBRANCH   8  15
ENDBRANCH   1  11
BRANCH   6  18
ATOM     18  N   UNL     1       4.826  -0.413  -4.509  0.00  0.00    -0.183 NA
ATOM     19  C   UNL     1       5.663   0.395  -5.091  0.00  0.00    +0.142 C 
BRANCH  19  20
ATOM     20  C   UNL     1       6.897   0.796  -4.403  0.00  0.00    +0.044 A 
ATOM     21  C   UNL     1       7.845   1.708  -5.040  0.00  0.00    -0.006 A 
ATOM     22  C   UNL     1       7.612   2.229  -6.318  0.00  0.00    +0.009 A 
ATOM     23  C   UNL     1       8.521   3.077  -6.877  0.00  0.00    +0.001 A 
ATOM     24  C   UNL     1       9.681   3.434  -6.193  0.00  0.00    +0.001 A 
ATOM     25  C   UNL     1       9.939   2.945  -4.949  0.00  0.00    +0.008 A 
ATOM     26  C   UNL     1       9.023   2.069  -4.342  0.00  0.00    -0.017 A 
ATOM     27  C   UNL     1       9.256   1.545  -3.058  0.00  0.00    +0.012 A 
ATOM     28  C   UNL     1       8.364   0.698  -2.480  0.00  0.00    +0.046 A 
ATOM     29  C   UNL     1       7.188   0.318  -3.125  0.00  0.00    +0.126 A 
BRANCH  29  30
ATOM     30  O   UNL     1       6.322  -0.526  -2.507  0.00  0.00    -0.506 OA
ATOM     31  H   UNL     1       6.493  -1.462  -2.682  0.00  0.00    +0.292 HD
ENDBRANCH  29  30
ENDBRANCH  19  20
ENDBRANCH   6  18
TORSDOF 5
