REMARK  Name = ZINC16904339
REMARK  6 active torsions:
REMARK  status: ('A' for Active; 'I' for Inactive)
REMARK    1  A    between atoms: C_1  and  C_2
REMARK    2  A    between atoms: C_2  and  N_3
REMARK    3  A    between atoms: C_7  and  C_8
REMARK    4  A    between atoms: C_11  and  C_13
REMARK    5  A    between atoms: N_16  and  C_17
REMARK    6  A    between atoms: C_21  and  O_23
REMARK                            x       y       z     vdW  Elec       q    Type
REMARK                         _______ _______ _______ _____ _____    ______ ____
ROOT
ATOM      1  N   UNL     1       0.888  -2.218  -0.018  0.00  0.00    -0.246 N 
ATOM      2  C   UNL     1       1.152  -0.922  -0.014  0.00  0.00    +0.259 C 
ATOM      3  O   UNL     1       2.297  -0.507  -0.023  0.00  0.00    -0.269 OA
ATOM      4  C   UNL     1       0.002  -0.004   0.002  0.00  0.00    +0.081 C 
ATOM      5  C   UNL     1      -0.016   1.359   0.009  0.00  0.00    +0.066 C 
ATOM      6  S   UNL     1      -1.364  -1.157   0.017  0.00  0.00    -0.049 S 
ATOM      7  C   UNL     1      -0.414  -2.668  -0.009  0.00  0.00    +0.168 C 
ATOM      8  N   UNL     1      -0.850  -3.908  -0.012  0.00  0.00    -0.225 NA
ENDROOT
BRANCH   5   9
ATOM      9  C   UNL     1      -1.251   2.049   0.019  0.00  0.00    +0.129 A 
ATOM     10  C   UNL     1      -1.416   3.420   0.027  0.00  0.00    +0.049 A 
ATOM     11  C   UNL     1      -2.800   3.655   0.035  0.00  0.00    +0.045 A 
ATOM     12  C   UNL     1      -3.410   2.449   0.031  0.00  0.00    +0.103 A 
ATOM     13  O   UNL     1      -2.477   1.486   0.016  0.00  0.00    -0.461 OA
ATOM     14  C   UNL     1      -4.900   2.223   0.036  0.00  0.00    +0.086 C 
ENDBRANCH   5   9
BRANCH   8  15
ATOM     15  C   UNL     1      -2.195  -4.160  -0.001  0.00  0.00    +0.070 A 
ATOM     16  C   UNL     1      -3.034  -3.455   0.866  0.00  0.00    +0.028 A 
ATOM     17  C   UNL     1      -4.389  -3.711   0.874  0.00  0.00    +0.006 A 
ATOM     18  C   UNL     1      -4.921  -4.666   0.026  0.00  0.00    +0.045 A 
ATOM     19  C   UNL     1      -4.096  -5.372  -0.839  0.00  0.00    +0.119 A 
ATOM     20  C   UNL     1      -2.735  -5.120  -0.859  0.00  0.00    +0.073 A 
BRANCH  19  21
ATOM     21  O   UNL     1      -4.625  -6.309  -1.669  0.00  0.00    -0.507 OA
ATOM     22  H   UNL     1      -4.899  -5.962  -2.529  0.00  0.00    +0.292 HD
ENDBRANCH  19  21
ENDBRANCH   8  15
BRANCH   1  24
ATOM     23  C   UNL     1       2.387  -3.527   1.403  0.00  0.00    +0.025 C 
ATOM     24  C   UNL     1       1.990  -3.183  -0.034  0.00  0.00    +0.112 C 
ENDBRANCH   1  24
TORSDOF 4
