REMARK  Name = ZINC09422479
REMARK  4 active torsions:
REMARK  status: ('A' for Active; 'I' for Inactive)
REMARK    1  A    between atoms: C_1  and  C_2
REMARK    2  A    between atoms: N_4  and  C_5
REMARK    3  A    between atoms: C_8  and  N_11
REMARK    4  A    between atoms: C_12  and  C_23
REMARK                            x       y       z     vdW  Elec       q    Type
REMARK                         _______ _______ _______ _____ _____    ______ ____
ROOT
ATOM      1  N   UNL     1      -4.555  -3.208   0.021  0.00  0.00    -0.244 N 
ATOM      2  C   UNL     1      -5.871  -2.586  -0.130  0.00  0.00    +0.198 C 
ATOM      3  N   UNL     1      -6.779  -3.487  -0.849  0.00  0.00    -0.321 N 
ATOM      4  C   UNL     1      -6.788  -4.836  -0.513  0.00  0.00    +0.041 A 
ATOM      5  C   UNL     1      -7.922  -5.617  -0.663  0.00  0.00    +0.024 A 
ATOM      6  C   UNL     1      -7.880  -6.956  -0.326  0.00  0.00    +0.002 A 
ATOM      7  C   UNL     1      -6.713  -7.524   0.160  0.00  0.00    +0.001 A 
ATOM      8  C   UNL     1      -5.576  -6.759   0.320  0.00  0.00    +0.015 A 
ATOM      9  C   UNL     1      -5.606  -5.406  -0.011  0.00  0.00    +0.058 A 
ATOM     10  C   UNL     1      -4.425  -4.542   0.160  0.00  0.00    +0.254 C 
ATOM     11  O   UNL     1      -3.343  -5.029   0.427  0.00  0.00    -0.270 OA
ATOM     12  H   UNL     1      -7.363  -3.147  -1.545  0.00  0.00    +0.148 HD
ENDROOT
BRANCH   1  16
ATOM     13  C   UNL     1      -1.143  -0.810   0.005  0.00  0.00    +0.033 A 
ATOM     14  C   UNL     1      -1.383  -1.670   1.069  0.00  0.00    +0.025 A 
ATOM     15  C   UNL     1      -2.515  -2.460   1.077  0.00  0.00    +0.025 A 
ATOM     16  C   UNL     1      -3.409  -2.402   0.016  0.00  0.00    +0.039 A 
ATOM     17  C   UNL     1      -3.167  -1.546  -1.051  0.00  0.00    +0.025 A 
ATOM     18  C   UNL     1      -2.038  -0.753  -1.056  0.00  0.00    +0.025 A 
BRANCH  13  22
ATOM     19  C   UNL     1       1.883   1.110   1.156  0.00  0.00    +0.109 C 
ATOM     20  C   UNL     1       0.580   0.353   1.163  0.00  0.00    +0.214 C 
ATOM     21  O   UNL     1       0.049   0.071   2.216  0.00  0.00    -0.276 OA
ATOM     22  N   UNL     1       0.003  -0.005  -0.001  0.00  0.00    -0.286 N 
ATOM     23  H   UNL     1       0.381   0.294  -0.842  0.00  0.00    +0.155 HD
ENDBRANCH  13  22
ENDBRANCH   1  16
BRANCH   2  24
ATOM     24  C   UNL     1      -6.440  -2.286   1.233  0.00  0.00    -0.009 A 
ATOM     25  C   UNL     1      -5.593  -2.007   2.289  0.00  0.00    +0.007 A 
ATOM     26  C   UNL     1      -6.116  -1.728   3.538  0.00  0.00    +0.000 A 
ATOM     27  C   UNL     1      -7.485  -1.736   3.732  0.00  0.00    +0.000 A 
ATOM     28  C   UNL     1      -8.331  -2.019   2.677  0.00  0.00    +0.000 A 
ATOM     29  C   UNL     1      -7.809  -2.295   1.427  0.00  0.00    +0.007 A 
ENDBRANCH   2  24
TORSDOF 3
