REMARK  Name = ZINC35575788
REMARK  8 active torsions:
REMARK  status: ('A' for Active; 'I' for Inactive)
REMARK    1  A    between atoms: C_3  and  O_34
REMARK    2  A    between atoms: C_6  and  C_7
REMARK    3  A    between atoms: C_7  and  C_27
REMARK    4  A    between atoms: C_10  and  C_13
REMARK    5  A    between atoms: C_10  and  C_20
REMARK    6  A    between atoms: C_16  and  O_19
REMARK    7  A    between atoms: C_23  and  O_26
REMARK    8  A    between atoms: C_30  and  O_33
REMARK                            x       y       z     vdW  Elec       q    Type
REMARK                         _______ _______ _______ _____ _____    ______ ____
ROOT
ATOM      1  C   UNL     1      -1.655  -0.195  -0.427  0.00  0.00    +0.021 C 
ATOM      2  C   UNL     1      -2.385  -0.103  -1.768  0.00  0.00    +0.017 C 
ATOM      3  C   UNL     1      -1.480  -0.640  -2.879  0.00  0.00    +0.017 C 
ATOM      4  C   UNL     1      -1.127  -2.100  -2.589  0.00  0.00    +0.021 C 
ATOM      5  C   UNL     1      -0.397  -2.191  -1.248  0.00  0.00    +0.017 C 
ATOM      6  C   UNL     1      -1.302  -1.655  -0.137  0.00  0.00    +0.017 C 
ENDROOT
BRANCH   1  12
ATOM      7  C   UNL     1       0.548   0.517   0.523  0.00  0.00    +0.008 A 
ATOM      8  C   UNL     1       1.707   1.268   0.471  0.00  0.00    +0.046 A 
ATOM      9  C   UNL     1       1.927   2.130  -0.593  0.00  0.00    +0.117 A 
ATOM     10  C   UNL     1       0.982   2.236  -1.603  0.00  0.00    +0.046 A 
ATOM     11  C   UNL     1      -0.175   1.484  -1.547  0.00  0.00    +0.008 A 
ATOM     12  C   UNL     1      -0.392   0.625  -0.485  0.00  0.00    -0.037 A 
BRANCH   9  13
ATOM     13  O   UNL     1       3.066   2.870  -0.645  0.00  0.00    -0.507 OA
ATOM     14  H   UNL     1       3.797   2.434  -1.104  0.00  0.00    +0.292 HD
ENDBRANCH   9  13
ENDBRANCH   1  12
BRANCH   4  15
ATOM     15  C   UNL     1      -2.390  -2.920  -2.531  0.00  0.00    -0.037 A 
ATOM     16  C   UNL     1      -3.322  -2.826  -3.548  0.00  0.00    +0.008 A 
ATOM     17  C   UNL     1      -4.480  -3.576  -3.497  0.00  0.00    +0.046 A 
ATOM     18  C   UNL     1      -4.709  -4.425  -2.423  0.00  0.00    +0.117 A 
ATOM     19  C   UNL     1      -3.772  -4.518  -1.404  0.00  0.00    +0.046 A 
ATOM     20  C   UNL     1      -2.613  -3.769  -1.462  0.00  0.00    +0.008 A 
BRANCH  18  21
ATOM     21  O   UNL     1      -5.848  -5.164  -2.370  0.00  0.00    -0.507 OA
ATOM     22  H   UNL     1      -5.773  -6.033  -2.787  0.00  0.00    +0.292 HD
ENDBRANCH  18  21
ENDBRANCH   4  15
BRANCH   4  23
ATOM     23  C   UNL     1      -0.235  -2.628  -3.683  0.00  0.00    -0.037 A 
ATOM     24  C   UNL     1       0.079  -1.826  -4.765  0.00  0.00    +0.008 A 
ATOM     25  C   UNL     1       0.896  -2.308  -5.769  0.00  0.00    +0.046 A 
ATOM     26  C   UNL     1       1.401  -3.598  -5.691  0.00  0.00    +0.117 A 
ATOM     27  C   UNL     1       1.085  -4.400  -4.605  0.00  0.00    +0.046 A 
ATOM     28  C   UNL     1       0.271  -3.912  -3.601  0.00  0.00    +0.008 A 
BRANCH  26  29
ATOM     29  O   UNL     1       2.205  -4.074  -6.678  0.00  0.00    -0.507 OA
ATOM     30  H   UNL     1       3.147  -3.909  -6.533  0.00  0.00    +0.292 HD
ENDBRANCH  26  29
ENDBRANCH   4  23
BRANCH   1  31
ATOM     31  C   UNL     1      -2.546   0.334   0.667  0.00  0.00    -0.037 A 
ATOM     32  C   UNL     1      -2.848  -0.463   1.756  0.00  0.00    +0.008 A 
ATOM     33  C   UNL     1      -3.665   0.019   2.761  0.00  0.00    +0.046 A 
ATOM     34  C   UNL     1      -4.183   1.304   2.676  0.00  0.00    +0.117 A 
ATOM     35  C   UNL     1      -3.878   2.101   1.582  0.00  0.00    +0.046 A 
ATOM     36  C   UNL     1      -3.056   1.616   0.583  0.00  0.00    +0.008 A 
BRANCH  34  37
ATOM     37  O   UNL     1      -4.987   1.780   3.663  0.00  0.00    -0.507 OA
ATOM     38  H   UNL     1      -4.512   2.231   4.374  0.00  0.00    +0.292 HD
ENDBRANCH  34  37
ENDBRANCH   1  31
TORSDOF 8
