REMARK  Name = ZINC39937983
REMARK  8 active torsions:
REMARK  status: ('A' for Active; 'I' for Inactive)
REMARK    1  A    between atoms: C_1  and  C_2
REMARK    2  A    between atoms: C_2  and  C_3
REMARK    3  A    between atoms: C_2  and  C_4
REMARK    4  A    between atoms: C_4  and  C_6
REMARK    5  A    between atoms: C_4  and  N_20
REMARK    6  A    between atoms: N_8  and  N_9
REMARK    7  A    between atoms: C_10  and  C_11
REMARK    8  A    between atoms: C_21  and  C_23
REMARK                            x       y       z     vdW  Elec       q    Type
REMARK                         _______ _______ _______ _____ _____    ______ ____
ROOT
ATOM      1  C   UNL     1      -2.343   0.050   0.861  0.00  0.00    +0.253 C 
ATOM      2  O   UNL     1      -3.358   0.607   0.499  0.00  0.00    -0.272 OA
ATOM      3  N   UNL     1      -2.034  -0.001   2.172  0.00  0.00    -0.205 N 
ATOM      4  H   UNL     1      -1.258  -0.503   2.468  0.00  0.00    +0.177 HD
ENDROOT
BRANCH   3   5
ATOM      5  N   UNL     1      -2.832   0.671   3.107  0.00  0.00    -0.188 NA
ATOM      6  C   UNL     1      -2.531   0.622   4.380  0.00  0.00    +0.136 C 
BRANCH   6   7
ATOM      7  C   UNL     1      -3.330   1.295   5.316  0.00  0.00    +0.000 C 
ATOM      8  C   UNL     1      -3.147   1.347   6.696  0.00  0.00    +0.004 A 
ATOM      9  C   UNL     1      -2.175   0.786   7.552  0.00  0.00    +0.010 A 
ATOM     10  C   UNL     1      -2.246   1.008   8.889  0.00  0.00    +0.001 A 
ATOM     11  C   UNL     1      -3.265   1.784   9.449  0.00  0.00    +0.002 A 
ATOM     12  C   UNL     1      -4.231   2.353   8.689  0.00  0.00    +0.026 A 
ATOM     13  C   UNL     1      -4.223   2.166   7.281  0.00  0.00    +0.043 A 
ATOM     14  N   UNL     1      -5.033   2.603   6.340  0.00  0.00    -0.380 N 
ATOM     15  C   UNL     1      -4.566   2.120   5.037  0.00  0.00    +0.150 C 
ATOM     16  H   UNL     1      -5.814   3.161   6.486  0.00  0.00    +0.160 HD
ENDBRANCH   6   7
ENDBRANCH   3   5
BRANCH   1  17
ATOM     17  C   UNL     1      -1.428  -0.584  -0.154  0.00  0.00    +0.163 C 
BRANCH  17  18
ATOM     18  N   UNL     1      -2.189  -0.905  -1.364  0.00  0.00    -0.300 N 
ATOM     19  C   UNL     1      -1.768  -1.888  -2.184  0.00  0.00    +0.245 C 
ATOM     20  O   UNL     1      -0.758  -2.510  -1.919  0.00  0.00    -0.270 OA
ATOM     21  H   UNL     1      -2.996  -0.409  -1.576  0.00  0.00    +0.150 HD
BRANCH  19  22
ATOM     22  C   UNL     1      -2.537  -2.212  -3.405  0.00  0.00    +0.038 A 
ATOM     23  C   UNL     1      -3.694  -1.496  -3.715  0.00  0.00    +0.013 A 
ATOM     24  C   UNL     1      -4.407  -1.802  -4.856  0.00  0.00    +0.002 A 
ATOM     25  C   UNL     1      -3.976  -2.816  -5.694  0.00  0.00    +0.020 A 
ATOM     26  C   UNL     1      -2.828  -3.529  -5.393  0.00  0.00    +0.042 A 
ATOM     27  C   UNL     1      -2.104  -3.229  -4.256  0.00  0.00    +0.033 A 
ATOM     28 CL   UNL     1      -2.296  -4.800  -6.450  0.00  0.00    -0.084 Cl
ENDBRANCH  19  22
ENDBRANCH  17  18
BRANCH  17  30
ATOM     29  C   UNL     1       0.702  -0.303  -1.429  0.00  0.00    +0.009 C 
ATOM     30  C   UNL     1      -0.300   0.389  -0.503  0.00  0.00    +0.012 C 
ATOM     31  C   UNL     1      -0.885   1.614  -1.209  0.00  0.00    +0.009 C 
ENDBRANCH  17  30
ENDBRANCH   1  17
TORSDOF 6
