REMARK  Name = ZINC63375070
REMARK  14 active torsions:
REMARK  status: ('A' for Active; 'I' for Inactive)
REMARK    1  A    between atoms: C_1  and  C_2
REMARK    2  A    between atoms: C_2  and  C_3
REMARK    3  A    between atoms: C_3  and  O_4
REMARK    4  A    between atoms: O_4  and  C_5
REMARK    5  A    between atoms: C_8  and  C_14
REMARK    6  A    between atoms: C_10  and  O_11
REMARK    7  A    between atoms: O_11  and  C_12
REMARK    8  A    between atoms: C_12  and  C_13
REMARK    9  A    between atoms: N_21  and  C_36
REMARK   10  A    between atoms: C_24  and  C_35
REMARK   11  A    between atoms: C_36  and  C_37
REMARK   12  A    between atoms: C_37  and  C_38
REMARK   13  A    between atoms: C_38  and  C_39
REMARK   14  A    between atoms: C_38  and  C_40
REMARK                            x       y       z     vdW  Elec       q    Type
REMARK                         _______ _______ _______ _____ _____    ______ ____
ROOT
ATOM      1  C   UNL     1       3.349  -4.483   5.547  0.00  0.00    +0.065 C 
ATOM      2  C   UNL     1       2.686  -4.072   6.874  0.00  0.00    +0.121 C 
ATOM      3  N   UNL     1       3.047  -2.675   7.186  0.00  0.00    -0.283 N 
ATOM      4  C   UNL     1       2.057  -1.786   7.324  0.00  0.00    +0.234 C 
ATOM      5  O   UNL     1       0.922  -2.178   7.159  0.00  0.00    -0.274 OA
ATOM      6  C   UNL     1       2.247  -0.346   7.668  0.00  0.00    +0.203 C 
ATOM      7  N   UNL     1       3.648  -0.005   7.850  0.00  0.00    -0.291 N 
ATOM      8  C   UNL     1       4.643  -0.878   7.703  0.00  0.00    +0.242 C 
ATOM      9  O   UNL     1       5.775  -0.481   7.882  0.00  0.00    -0.273 OA
ATOM     10  C   UNL     1       4.458  -2.312   7.332  0.00  0.00    +0.135 C 
ATOM     11  C   UNL     1       5.169  -2.608   6.008  0.00  0.00    +0.139 C 
ATOM     12  C   UNL     1       4.787  -4.035   5.622  0.00  0.00    -0.027 C 
ATOM     13  C   UNL     1       5.925  -4.686   5.418  0.00  0.00    -0.000 A 
ATOM     14  C   UNL     1       6.202  -6.047   4.931  0.00  0.00    +0.010 A 
ATOM     15  C   UNL     1       7.511  -6.405   4.865  0.00  0.00    +0.001 A 
ATOM     16  C   UNL     1       8.561  -5.556   5.230  0.00  0.00    +0.002 A 
ATOM     17  C   UNL     1       8.399  -4.286   5.679  0.00  0.00    +0.026 A 
ATOM     18  C   UNL     1       7.066  -3.792   5.782  0.00  0.00    +0.043 A 
ATOM     19  N   UNL     1       6.625  -2.595   6.148  0.00  0.00    -0.375 N 
ATOM     20  C   UNL     1       5.084  -3.189   8.419  0.00  0.00    +0.044 C 
ATOM     21  H   UNL     1       7.160  -1.847   6.457  0.00  0.00    +0.160 HD
ENDROOT
BRANCH   1  25
ATOM     22  C   UNL     1       1.386  -2.554   2.274  0.00  0.00    +0.162 A 
ATOM     23  C   UNL     1       1.962  -1.799   3.283  0.00  0.00    +0.050 A 
ATOM     24  C   UNL     1       2.595  -2.425   4.340  0.00  0.00    +0.008 A 
ATOM     25  C   UNL     1       2.656  -3.805   4.393  0.00  0.00    -0.035 A 
ATOM     26  C   UNL     1       2.084  -4.565   3.389  0.00  0.00    +0.053 A 
ATOM     27  C   UNL     1       1.442  -3.944   2.330  0.00  0.00    +0.162 A 
BRANCH  22  28
ATOM     28  O   UNL     1       0.761  -1.940   1.234  0.00  0.00    -0.488 OA
BRANCH  28  29
ATOM     29  C   UNL     1       0.742  -0.511   1.242  0.00  0.00    +0.229 C 
BRANCH  29  31
ATOM     30  C   UNL     1      -0.019   1.526   0.010  0.00  0.00    +0.007 C 
ATOM     31  C   UNL     1       0.002  -0.004   0.002  0.00  0.00    +0.038 C 
ENDBRANCH  29  31
ENDBRANCH  28  29
ENDBRANCH  22  28
BRANCH  27  32
ATOM     32  O   UNL     1       0.874  -4.690   1.346  0.00  0.00    -0.489 OA
BRANCH  32  33
ATOM     33  C   UNL     1       0.971  -6.110   1.470  0.00  0.00    +0.226 C 
ATOM     34  C   UNL     1       0.279  -6.774   0.278  0.00  0.00    +0.048 C 
ENDBRANCH  32  33
ENDBRANCH  27  32
ENDBRANCH   1  25
BRANCH   7  35
ATOM     35  C   UNL     1       3.984   1.373   8.214  0.00  0.00    +0.108 C 
BRANCH  35  36
ATOM     36  C   UNL     1       4.004   1.508   9.738  0.00  0.00    +0.022 C 
BRANCH  36  37
ATOM     37  C   UNL     1       4.355   2.948  10.118  0.00  0.00    -0.016 C 
ATOM     38  C   UNL     1       4.253   3.113  11.636  0.00  0.00    +0.007 C 
ATOM     39  C   UNL     1       5.783   3.261   9.666  0.00  0.00    +0.007 C 
ENDBRANCH  36  37
ENDBRANCH  35  36
ENDBRANCH   7  35
TORSDOF 9
