REMARK  Name = ZINC03296120
REMARK  13 active torsions:
REMARK  status: ('A' for Active; 'I' for Inactive)
REMARK    1  A    between atoms: C_1  and  C_2
REMARK    2  A    between atoms: C_2  and  O_3
REMARK    3  A    between atoms: O_3  and  C_4
REMARK    4  A    between atoms: C_4  and  C_6
REMARK    5  A    between atoms: C_10  and  N_11
REMARK    6  A    between atoms: C_12  and  C_14
REMARK    7  A    between atoms: C_14  and  O_15
REMARK    8  A    between atoms: O_15  and  C_16
REMARK    9  A    between atoms: C_16  and  C_18
REMARK   10  A    between atoms: C_23  and  C_24
REMARK   11  A    between atoms: C_24  and  C_26
REMARK   12  A    between atoms: C_29  and  C_32
REMARK   13  A    between atoms: C_34  and  C_38
REMARK                            x       y       z     vdW  Elec       q    Type
REMARK                         _______ _______ _______ _____ _____    ______ ____
ROOT
ATOM      1  N   UNL     1       0.048   0.799  -0.887  0.00  0.00    -0.277 N 
ATOM      2  C   UNL     1       1.181   1.514  -0.744  0.00  0.00    +0.255 C 
ATOM      3  O   UNL     1       1.133   2.726  -0.715  0.00  0.00    -0.272 OA
ATOM      4  H   UNL     1       0.086  -0.170  -0.909  0.00  0.00    +0.155 HD
ENDROOT
BRANCH   1   9
ATOM      5  C   UNL     1      -2.433   0.890  -1.165  0.00  0.00    +0.091 A 
ATOM      6  C   UNL     1      -3.561   1.802  -1.267  0.00  0.00    -0.021 A 
ATOM      7  C   UNL     1      -3.249   3.114  -1.196  0.00  0.00    -0.004 A 
ATOM      8  S   UNL     1      -1.491   3.150  -0.988  0.00  0.00    -0.077 S 
ATOM      9  C   UNL     1      -1.171   1.448  -1.006  0.00  0.00    +0.086 A 
ATOM     10  C   UNL     1      -4.194   4.273  -1.271  0.00  0.00    +0.046 C 
ATOM     11  C   UNL     1      -5.537   3.767  -1.819  0.00  0.00    -0.009 C 
ATOM     12  C   UNL     1      -5.934   2.499  -1.057  0.00  0.00    +0.008 C 
ATOM     13  C   UNL     1      -5.005   1.347  -1.443  0.00  0.00    +0.037 C 
ATOM     14  C   UNL     1      -6.607   4.842  -1.626  0.00  0.00    +0.008 C 
BRANCH   5  15
ATOM     15  C   UNL     1      -2.621  -0.560  -1.226  0.00  0.00    +0.342 C 
ATOM     16  O   UNL     1      -2.817  -1.192  -0.205  0.00  0.00    -0.245 OA
BRANCH  15  17
ATOM     17  O   UNL     1      -2.577  -1.197  -2.415  0.00  0.00    -0.461 OA
BRANCH  17  19
ATOM     18  C   UNL     1      -2.687  -3.176  -3.829  0.00  0.00    +0.048 C 
ATOM     19  C   UNL     1      -2.771  -2.636  -2.400  0.00  0.00    +0.229 C 
ENDBRANCH  17  19
ENDBRANCH  15  17
ENDBRANCH   5  15
ENDBRANCH   1   9
BRANCH   2  20
ATOM     20  C   UNL     1       2.507   0.809  -0.620  0.00  0.00    +0.328 C 
BRANCH  20  21
ATOM     21  O   UNL     1       3.566   1.792  -0.478  0.00  0.00    -0.452 OA
BRANCH  21  22
ATOM     22  C   UNL     1       4.823   1.323  -0.354  0.00  0.00    +0.340 C 
ATOM     23  O   UNL     1       5.028   0.126  -0.365  0.00  0.00    -0.245 OA
BRANCH  22  24
ATOM     24  C   UNL     1       5.952   2.265  -0.206  0.00  0.00    +0.070 A 
ATOM     25  C   UNL     1       5.739   3.636  -0.314  0.00  0.00    +0.016 A 
ATOM     26  C   UNL     1       6.798   4.514  -0.170  0.00  0.00    +0.001 A 
ATOM     27  C   UNL     1       8.075   4.038   0.072  0.00  0.00    +0.001 A 
ATOM     28  C   UNL     1       8.307   2.679   0.177  0.00  0.00    +0.012 A 
ATOM     29  C   UNL     1       7.252   1.780   0.040  0.00  0.00    +0.036 A 
BRANCH  29  30
ATOM     30  C   UNL     1       7.495   0.326   0.150  0.00  0.00    +0.194 C 
ATOM     31  O   UNL     1       8.002  -0.277  -0.774  0.00  0.00    -0.287 OA
BRANCH  30  32
ATOM     32  C   UNL     1       7.120  -0.393   1.385  0.00  0.00    +0.022 A 
ATOM     33  C   UNL     1       6.467   0.281   2.420  0.00  0.00    +0.012 A 
ATOM     34  C   UNL     1       6.117  -0.398   3.568  0.00  0.00    +0.004 A 
ATOM     35  C   UNL     1       6.420  -1.742   3.701  0.00  0.00    -0.050 A 
ATOM     36  C   UNL     1       7.072  -2.415   2.682  0.00  0.00    +0.004 A 
ATOM     37  C   UNL     1       7.424  -1.750   1.526  0.00  0.00    +0.012 A 
ATOM     38  C   UNL     1       6.039  -2.476   4.960  0.00  0.00    +0.044 C 
ENDBRANCH  30  32
ENDBRANCH  29  30
ENDBRANCH  22  24
ENDBRANCH  21  22
ENDBRANCH  20  21
ENDBRANCH   2  20
TORSDOF 10
