REMARK  Name = ZINC12748574
REMARK  6 active torsions:
REMARK  status: ('A' for Active; 'I' for Inactive)
REMARK    1  A    between atoms: C_8  and  N_13
REMARK    2  A    between atoms: C_14  and  C_16
REMARK    3  A    between atoms: C_16  and  C_17
REMARK    4  A    between atoms: C_17  and  C_18
REMARK    5  A    between atoms: C_18  and  C_19
REMARK    6  A    between atoms: C_19  and  C_20
REMARK                            x       y       z     vdW  Elec       q    Type
REMARK                         _______ _______ _______ _____ _____    ______ ____
ROOT
ATOM      1  C   UNL     1      -2.465  -3.075   0.998  0.00  0.00    +0.096 C 
ENDROOT
BRANCH   1   3
ATOM      2  N   UNL     1      -0.047  -2.620   0.737  0.00  0.00    -0.308 N 
ATOM      3  C   UNL     1      -1.274  -2.645   0.180  0.00  0.00    +0.213 C 
ATOM      4  O   UNL     1      -1.421  -2.320  -0.979  0.00  0.00    -0.276 OA
ATOM      5  H   UNL     1       0.070  -2.880   1.664  0.00  0.00    +0.149 HD
BRANCH   2  13
ATOM      6  C   UNL     1       1.172   2.084   0.002  0.00  0.00    +0.021 A 
ATOM      7  C   UNL     1       2.369   1.401  -0.007  0.00  0.00    +0.016 A 
ATOM      8  C   UNL     1       2.391   0.007  -0.009  0.00  0.00    +0.013 A 
ATOM      9  C   UNL     1       1.205  -0.705  -0.013  0.00  0.00    -0.012 A 
ATOM     10  C   UNL     1       0.002  -0.004   0.002  0.00  0.00    +0.026 A 
ATOM     11  C   UNL     1      -0.017   1.375   0.010  0.00  0.00    +0.041 A 
ATOM     12 CL   UNL     1      -1.532   2.222   0.021  0.00  0.00    -0.084 Cl
ATOM     13  C   UNL     1       1.110  -2.201  -0.058  0.00  0.00    +0.105 C 
ATOM     14  C   UNL     1       2.344  -2.909   0.472  0.00  0.00    +0.038 C 
ATOM     15  C   UNL     1       3.554  -2.523  -0.391  0.00  0.00    +0.076 C 
ATOM     16  S   UNL     1       3.963  -0.796   0.000  0.00  0.00    -0.125 S 
ENDBRANCH   2  13
ENDBRANCH   1   3
BRANCH   1  17
ATOM     17  C   UNL     1      -3.726  -3.013   0.134  0.00  0.00    +0.009 C 
BRANCH  17  18
ATOM     18  C   UNL     1      -4.935  -3.451   0.965  0.00  0.00    +0.002 C 
BRANCH  18  19
ATOM     19  C   UNL     1      -6.196  -3.388   0.101  0.00  0.00    +0.028 C 
BRANCH  19  20
ATOM     20  C   UNL     1      -7.405  -3.826   0.931  0.00  0.00    +0.152 C 
ATOM     21  C   UNL     1      -8.706  -3.740   0.105  0.00  0.00    +0.120 C 
ATOM     22  C   UNL     1      -9.906  -3.216   0.899  0.00  0.00    +0.117 C 
ATOM     23  C   UNL     1      -9.577  -2.877   2.369  0.00  0.00    +0.190 C 
ATOM     24  S   UNL     1      -7.752  -2.619   2.284  0.00  0.00    -0.025 S 
ATOM     25  O   UNL     1      -7.154  -3.077   3.489  0.00  0.00    -0.174 OA
ATOM     26  O   UNL     1      -7.484  -1.302   1.819  0.00  0.00    -0.174 OA
ATOM     27  N   UNL     1     -10.288  -1.981   0.195  0.00  0.00    -0.293 N 
ATOM     28  C   UNL     1      -9.461  -1.796  -0.842  0.00  0.00    +0.300 C 
ATOM     29  O   UNL     1      -9.548  -0.848  -1.599  0.00  0.00    -0.253 OA
ATOM     30  N   UNL     1      -8.528  -2.750  -0.969  0.00  0.00    -0.293 N 
ATOM     31  H   UNL     1     -11.021  -1.396   0.443  0.00  0.00    +0.151 HD
ATOM     32  H   UNL     1      -7.846  -2.782  -1.658  0.00  0.00    +0.151 HD
ENDBRANCH  19  20
ENDBRANCH  18  19
ENDBRANCH  17  18
ENDBRANCH   1  17
TORSDOF 6
