REMARK  Name = ZINC04304173
REMARK  11 active torsions:
REMARK  status: ('A' for Active; 'I' for Inactive)
REMARK    1  A    between atoms: C_1  and  C_2
REMARK    2  A    between atoms: C_7  and  C_8
REMARK    3  A    between atoms: C_10  and  C_24
REMARK    4  A    between atoms: C_11  and  N_23
REMARK    5  A    between atoms: C_13  and  C_22
REMARK    6  A    between atoms: C_14  and  C_15
REMARK    7  A    between atoms: C_15  and  O_17
REMARK    8  A    between atoms: O_17  and  C_18
REMARK    9  A    between atoms: C_18  and  C_19
REMARK   10  A    between atoms: C_18  and  C_20
REMARK   11  A    between atoms: C_18  and  C_21
REMARK                            x       y       z     vdW  Elec       q    Type
REMARK                         _______ _______ _______ _____ _____    ______ ____
ROOT
ATOM      1  C   UNL     1      -0.296   5.304  -0.408  0.00  0.00    +0.105 C 
ATOM      2  C   UNL     1      -1.075   5.909   0.729  0.00  0.00    +0.098 C 
ATOM      3  C   UNL     1      -2.373   6.263   0.566  0.00  0.00    +0.198 C 
ATOM      4  O   UNL     1      -3.014   6.091  -0.603  0.00  0.00    -0.445 OA
ATOM      5  C   UNL     1      -2.300   5.923  -1.726  0.00  0.00    +0.115 C 
ATOM      6  C   UNL     1      -1.013   5.552  -1.706  0.00  0.00    +0.087 C 
ATOM      7  C   UNL     1      -2.969   6.160  -3.055  0.00  0.00    +0.087 C 
ENDROOT
BRANCH   1  14
ATOM      8  C   UNL     1       2.309   4.151   0.074  0.00  0.00    +0.044 C 
ATOM      9  C   UNL     1       1.088   3.268   0.043  0.00  0.00    -0.046 A 
ATOM     10  C   UNL     1       1.215   1.906   0.246  0.00  0.00    +0.003 A 
ATOM     11  C   UNL     1       0.095   1.097   0.218  0.00  0.00    +0.000 A 
ATOM     12  C   UNL     1      -1.151   1.647  -0.018  0.00  0.00    +0.000 A 
ATOM     13  C   UNL     1      -1.278   3.010  -0.216  0.00  0.00    +0.005 A 
ATOM     14  C   UNL     1      -0.158   3.820  -0.187  0.00  0.00    -0.032 A 
ENDBRANCH   1  14
BRANCH   3  15
ATOM     15  N   UNL     1      -3.052   6.813   1.625  0.00  0.00    -0.328 N 
ATOM     16  H   UNL     1      -2.603   6.943   2.475  0.00  0.00    +0.145 HD
ATOM     17  H   UNL     1      -3.981   7.072   1.524  0.00  0.00    +0.145 HD
ENDBRANCH   3  15
BRANCH   6  18
ATOM     18  C   UNL     1      -0.317   5.391  -2.929  0.00  0.00    +0.340 C 
ATOM     19  O   UNL     1      -0.887   5.589  -3.985  0.00  0.00    -0.245 OA
BRANCH  18  20
ATOM     20  O   UNL     1       0.980   5.018  -2.923  0.00  0.00    -0.456 OA
BRANCH  20  21
ATOM     21  C   UNL     1       1.620   4.874  -4.192  0.00  0.00    +0.106 C 
ATOM     22  C   UNL     1       1.581   6.210  -4.937  0.00  0.00    +0.055 C 
ATOM     23  C   UNL     1       3.075   4.448  -3.985  0.00  0.00    +0.055 C 
ATOM     24  C   UNL     1       0.890   3.810  -5.014  0.00  0.00    +0.055 C 
ENDBRANCH  20  21
ENDBRANCH  18  20
ENDBRANCH   6  18
BRANCH   2  25
ATOM     25  C   UNL     1      -0.439   6.111   1.996  0.00  0.00    +0.101 C 
ATOM     26  N   UNL     1       0.066   6.271   3.001  0.00  0.00    -0.191 NA
ENDBRANCH   2  25
TORSDOF 6
