REMARK  Name = ZINC02161106
REMARK  5 active torsions:
REMARK  status: ('A' for Active; 'I' for Inactive)
REMARK    1  A    between atoms: C_1  and  C_2
REMARK    2  A    between atoms: C_7  and  C_8
REMARK    3  A    between atoms: C_17  and  C_19
REMARK    4  A    between atoms: C_19  and  C_20
REMARK    5  A    between atoms: N_28  and  C_31
REMARK                            x       y       z     vdW  Elec       q    Type
REMARK                         _______ _______ _______ _____ _____    ______ ____
ROOT
ATOM      1  C   UNL     1      -2.552   3.868   0.043  0.00  0.00    +0.044 C 
ATOM      2  C   UNL     1      -1.236   3.134   0.029  0.00  0.00    -0.046 A 
ATOM      3  C   UNL     1      -1.220   1.751   0.017  0.00  0.00    +0.004 A 
ATOM      4  C   UNL     1      -0.013   1.076   0.008  0.00  0.00    +0.005 A 
ATOM      5  C   UNL     1       1.171   1.780   0.000  0.00  0.00    -0.027 A 
ATOM      6  C   UNL     1       1.167   3.172   0.007  0.00  0.00    +0.039 A 
ATOM      7  C   UNL     1      -0.054   3.843   0.022  0.00  0.00    -0.026 A 
ATOM      8  C   UNL     1      -0.082   5.350   0.030  0.00  0.00    +0.046 C 
ATOM      9  N   UNL     1       2.476   3.659  -0.003  0.00  0.00    -0.286 N 
ATOM     10  C   UNL     1       3.387   2.666  -0.017  0.00  0.00    +0.211 C 
ATOM     11  O   UNL     1       4.593   2.791  -0.029  0.00  0.00    -0.277 OA
ATOM     12  C   UNL     1       2.617   1.374  -0.015  0.00  0.00    +0.050 C 
ATOM     13  C   UNL     1       2.974   0.512   1.202  0.00  0.00    +0.088 C 
ATOM     14  C   UNL     1       4.014  -0.510   0.666  0.00  0.00    +0.073 C 
ATOM     15  C   UNL     1       4.192  -0.149  -0.824  0.00  0.00    -0.053 C 
ATOM     16  C   UNL     1       5.276  -0.149   1.418  0.00  0.00    +0.224 C 
ATOM     17  O   UNL     1       6.345  -0.708   1.299  0.00  0.00    -0.275 OA
ATOM     18  N   UNL     1       5.028   0.882   2.233  0.00  0.00    -0.239 N 
ATOM     19  C   UNL     1       3.769   1.332   2.193  0.00  0.00    +0.225 C 
ATOM     20  O   UNL     1       3.333   2.254   2.849  0.00  0.00    -0.275 OA
ATOM     21  H   UNL     1       2.703   4.602  -0.000  0.00  0.00    +0.155 HD
ATOM     22  N   UNL     1       2.956   0.557  -1.167  0.00  0.00    +0.394 N 
ATOM     23  H   UNL     1       3.103   1.151  -1.992  0.00  0.00    -0.083 HD
ATOM     24  H   UNL     1       2.205  -0.115  -1.359  0.00  0.00    -0.083 HD
ENDROOT
BRANCH  18  25
ATOM     25  C   UNL     1       6.052   1.470   3.100  0.00  0.00    +0.084 C 
ATOM     26  C   UNL     1       7.173   2.060   2.219  0.00  0.00    +0.023 C 
ATOM     27  C   UNL     1       7.931   3.077   3.028  0.00  0.00    +0.002 C 
ATOM     28  C   UNL     1       9.176   2.478   3.712  0.00  0.00    +0.000 C 
ATOM     29  C   UNL     1       8.914   1.084   4.313  0.00  0.00    +0.000 C 
ATOM     30  C   UNL     1       7.582   0.998   5.009  0.00  0.00    +0.002 C 
ATOM     31  C   UNL     1       6.543   0.447   4.011  0.00  0.00    +0.023 C 
ENDBRANCH  18  25
BRANCH  15  32
ATOM     32  C   UNL     1       4.365  -1.417  -1.663  0.00  0.00    +0.020 C 
BRANCH  32  33
ATOM     33  C   UNL     1       4.659  -1.039  -3.091  0.00  0.00    -0.049 A 
ATOM     34  C   UNL     1       3.622  -0.871  -3.990  0.00  0.00    +0.003 A 
ATOM     35  C   UNL     1       3.892  -0.519  -5.299  0.00  0.00    +0.000 A 
ATOM     36  C   UNL     1       5.199  -0.346  -5.713  0.00  0.00    +0.000 A 
ATOM     37  C   UNL     1       6.237  -0.519  -4.816  0.00  0.00    +0.000 A 
ATOM     38  C   UNL     1       5.967  -0.866  -3.505  0.00  0.00    +0.003 A 
ENDBRANCH  32  33
ENDBRANCH  15  32
TORSDOF 3
