REMARK  Name = ZINC09963060
REMARK  10 active torsions:
REMARK  status: ('A' for Active; 'I' for Inactive)
REMARK    1  A    between atoms: C_1  and  C_2
REMARK    2  A    between atoms: C_2  and  C_3
REMARK    3  A    between atoms: N_9  and  C_10
REMARK    4  A    between atoms: C_10  and  C_11
REMARK    5  A    between atoms: C_11  and  C_12
REMARK    6  A    between atoms: C_12  and  N_13
REMARK    7  A    between atoms: C_14  and  C_16
REMARK    8  A    between atoms: C_16  and  N_17
REMARK    9  A    between atoms: C_20  and  S_28
REMARK   10  A    between atoms: S_28  and  N_31
REMARK                            x       y       z     vdW  Elec       q    Type
REMARK                         _______ _______ _______ _____ _____    ______ ____
ROOT
ATOM      1  N   UNL     1      -4.281   6.205  -6.338  0.00  0.00    -0.256 N 
ATOM      2  C   UNL     1      -5.383   6.951  -5.896  0.00  0.00    +0.081 A 
ATOM      3  C   UNL     1      -6.281   6.415  -4.988  0.00  0.00    +0.055 A 
ATOM      4  C   UNL     1      -7.362   7.167  -4.565  0.00  0.00    +0.107 A 
ATOM      5  C   UNL     1      -7.547   8.450  -5.046  0.00  0.00    +0.032 A 
ATOM      6  C   UNL     1      -6.654   8.991  -5.952  0.00  0.00    +0.049 A 
ATOM      7  C   UNL     1      -5.569   8.245  -6.380  0.00  0.00    +0.143 A 
ATOM      8  O   UNL     1      -4.679   8.761  -7.268  0.00  0.00    -0.481 OA
ATOM      9  C   UNL     1      -3.319   8.340  -7.134  0.00  0.00    +0.325 C 
ATOM     10  C   UNL     1      -3.264   6.844  -6.957  0.00  0.00    +0.258 C 
ATOM     11  O   UNL     1      -2.312   6.216  -7.371  0.00  0.00    -0.271 OA
ENDROOT
BRANCH   4  12
ATOM     12  S   UNL     1      -8.506   6.488  -3.410  0.00  0.00    +0.061 S 
ATOM     13  O   UNL     1      -9.729   7.189  -3.589  0.00  0.00    -0.153 OA
ATOM     14  O   UNL     1      -8.413   5.075  -3.529  0.00  0.00    -0.153 OA
BRANCH  12  15
ATOM     15  N   UNL     1      -7.958   6.872  -1.895  0.00  0.00    -0.172 NA
ATOM     16  C   UNL     1      -7.037   5.979  -1.174  0.00  0.00    +0.137 C 
ATOM     17  C   UNL     1      -5.849   6.811  -0.675  0.00  0.00    +0.177 C 
ATOM     18  O   UNL     1      -6.338   7.940   0.052  0.00  0.00    -0.377 OA
ATOM     19  C   UNL     1      -7.126   8.843  -0.729  0.00  0.00    +0.177 C 
ATOM     20  C   UNL     1      -8.374   8.118  -1.232  0.00  0.00    +0.137 C 
ENDBRANCH  12  15
ENDBRANCH   4  12
BRANCH   1  21
ATOM     21  C   UNL     1      -4.230   4.756  -6.128  0.00  0.00    +0.209 C 
BRANCH  21  23
ATOM     22  N   UNL     1      -3.423   3.189  -4.393  0.00  0.00    -0.314 N 
ATOM     23  C   UNL     1      -3.578   4.464  -4.801  0.00  0.00    +0.231 C 
ATOM     24  O   UNL     1      -3.194   5.376  -4.100  0.00  0.00    -0.274 OA
ATOM     25  H   UNL     1      -3.730   2.459  -4.954  0.00  0.00    +0.149 HD
BRANCH  22  26
ATOM     26  C   UNL     1      -2.789   2.905  -3.103  0.00  0.00    +0.102 C 
BRANCH  26  27
ATOM     27  C   UNL     1      -2.736   1.391  -2.884  0.00  0.00    +0.000 C 
BRANCH  27  28
ATOM     28  C   UNL     1      -2.074   1.094  -1.537  0.00  0.00    -0.077 C 
BRANCH  28  34
ATOM     29  C   UNL     1      -1.287  -0.646  -0.089  0.00  0.00    -0.069 C 
ATOM     30  C   UNL     1      -1.161  -2.161   0.093  0.00  0.00    -0.015 C 
ATOM     31  C   UNL     1      -2.561  -2.777   0.175  0.00  0.00    -0.003 C 
ATOM     32  C   UNL     1      -3.345  -2.408  -1.087  0.00  0.00    -0.019 C 
ATOM     33  C   UNL     1      -3.390  -0.884  -1.225  0.00  0.00    -0.078 C 
ATOM     34  N   UNL     1      -2.023  -0.358  -1.326  0.00  0.00    +0.382 N 
ATOM     35  H   UNL     1      -1.553  -0.793  -2.105  0.00  0.00    -0.081 HD
BRANCH  29  37
ATOM     36  C   UNL     1       0.845  -0.248   1.152  0.00  0.00    +0.002 C 
ATOM     37  C   UNL     1       0.109  -0.025  -0.171  0.00  0.00    -0.019 C 
ENDBRANCH  29  37
ENDBRANCH  28  34
ENDBRANCH  27  28
ENDBRANCH  26  27
ENDBRANCH  22  26
ENDBRANCH  21  23
ENDBRANCH   1  21
TORSDOF 9
