REMARK  Name = ZINC63571352
REMARK  7 active torsions:
REMARK  status: ('A' for Active; 'I' for Inactive)
REMARK    1  A    between atoms: C_1  and  C_2
REMARK    2  A    between atoms: C_2  and  O_3
REMARK    3  A    between atoms: O_3  and  C_4
REMARK    4  A    between atoms: C_4  and  C_6
REMARK    5  A    between atoms: C_9  and  C_12
REMARK    6  A    between atoms: C_12  and  N_13
REMARK    7  A    between atoms: C_29  and  C_31
REMARK                            x       y       z     vdW  Elec       q    Type
REMARK                         _______ _______ _______ _____ _____    ______ ____
ROOT
ATOM      1  N   UNL     1       2.086  -6.434   5.733  0.00  0.00    -0.299 N 
ATOM      2  C   UNL     1       2.632  -6.996   6.830  0.00  0.00    +0.303 C 
ATOM      3  O   UNL     1       3.216  -6.304   7.641  0.00  0.00    -0.253 OA
ATOM      4  N   UNL     1       2.530  -8.325   7.027  0.00  0.00    -0.276 N 
ATOM      5  C   UNL     1       1.934  -9.169   5.986  0.00  0.00    +0.114 C 
ATOM      6  C   UNL     1       2.945 -10.251   5.563  0.00  0.00    +0.052 C 
ATOM      7  C   UNL     1       3.527 -10.820   6.833  0.00  0.00    -0.035 C 
ATOM      8  C   UNL     1       3.646 -12.071   7.260  0.00  0.00    -0.001 A 
ATOM      9  C   UNL     1       3.357 -13.360   6.611  0.00  0.00    +0.010 A 
ATOM     10  C   UNL     1       3.581 -14.472   7.361  0.00  0.00    +0.001 A 
ATOM     11  C   UNL     1       4.058 -14.431   8.675  0.00  0.00    +0.002 A 
ATOM     12  C   UNL     1       4.357 -13.291   9.347  0.00  0.00    +0.026 A 
ATOM     13  C   UNL     1       4.171 -12.056   8.660  0.00  0.00    +0.043 A 
ATOM     14  N   UNL     1       4.397 -10.836   9.048  0.00  0.00    -0.375 N 
ATOM     15  C   UNL     1       4.105  -9.936   7.931  0.00  0.00    +0.131 C 
ATOM     16  C   UNL     1       3.023  -8.915   8.282  0.00  0.00    +0.137 C 
ATOM     17  H   UNL     1       1.684  -6.993   5.051  0.00  0.00    +0.150 HD
ATOM     18  H   UNL     1       4.705 -10.568   9.927  0.00  0.00    +0.160 HD
ENDROOT
BRANCH  16  19
ATOM     19  C   UNL     1       1.892  -9.602   9.002  0.00  0.00    +0.010 A 
ATOM     20  C   UNL     1       1.158 -10.582   8.361  0.00  0.00    +0.008 A 
ATOM     21  C   UNL     1       0.120 -11.213   9.021  0.00  0.00    +0.000 A 
ATOM     22  C   UNL     1      -0.185 -10.864  10.324  0.00  0.00    +0.003 A 
ATOM     23  C   UNL     1       0.548  -9.885  10.967  0.00  0.00    +0.039 A 
ATOM     24  C   UNL     1       1.591  -9.256  10.308  0.00  0.00    +0.128 A 
ATOM     25  F   UNL     1       2.311  -8.302  10.938  0.00  0.00    -0.205 F 
ENDBRANCH  16  19
BRANCH   1  26
ATOM     26  C   UNL     1       2.102  -4.978   5.572  0.00  0.00    +0.109 C 
BRANCH  26  30
ATOM     27  C   UNL     1       1.474  -3.251   1.654  0.00  0.00    +0.098 C 
ATOM     28  C   UNL     1       0.650  -2.706   2.822  0.00  0.00    +0.015 C 
ATOM     29  C   UNL     1       1.328  -3.080   4.142  0.00  0.00    +0.006 C 
ATOM     30  C   UNL     1       1.424  -4.603   4.252  0.00  0.00    +0.006 C 
ATOM     31  C   UNL     1       2.247  -5.148   3.084  0.00  0.00    +0.006 C 
ATOM     32  C   UNL     1       1.570  -4.774   1.764  0.00  0.00    +0.015 C 
BRANCH  27  33
ATOM     33  C   UNL     1       0.806  -2.883   0.354  0.00  0.00    +0.310 C 
ATOM     34  O   UNL     1       0.445  -3.749  -0.406  0.00  0.00    -0.251 OA
BRANCH  33  35
ATOM     35  O   UNL     1       0.614  -1.592   0.041  0.00  0.00    -0.465 OA
BRANCH  35  37
ATOM     36  C   UNL     1      -0.156   0.198  -1.389  0.00  0.00    +0.048 C 
ATOM     37  C   UNL     1      -0.025  -1.315  -1.207  0.00  0.00    +0.229 C 
ENDBRANCH  35  37
ENDBRANCH  33  35
ENDBRANCH  27  33
ENDBRANCH  26  30
ENDBRANCH   1  26
TORSDOF 6
