REMARK  Name = ZINC25436300
REMARK  6 active torsions:
REMARK  status: ('A' for Active; 'I' for Inactive)
REMARK    1  A    between atoms: C_1  and  O_2
REMARK    2  A    between atoms: O_2  and  C_3
REMARK    3  A    between atoms: C_8  and  O_9
REMARK    4  A    between atoms: O_9  and  C_10
REMARK    5  A    between atoms: C_18  and  C_20
REMARK    6  A    between atoms: C_25  and  N_26
REMARK                            x       y       z     vdW  Elec       q    Type
REMARK                         _______ _______ _______ _____ _____    ______ ____
ROOT
ATOM      1  C   UNL     1       0.354   2.553  -0.117  0.00  0.00    +0.162 A 
ATOM      2  C   UNL     1      -0.581   1.535  -0.045  0.00  0.00    +0.055 A 
ATOM      3  C   UNL     1      -1.925   1.826   0.135  0.00  0.00    -0.019 A 
ATOM      4  C   UNL     1      -2.333   3.140   0.249  0.00  0.00    -0.031 A 
ATOM      5  C   UNL     1      -1.400   4.163   0.179  0.00  0.00    +0.054 A 
ATOM      6  C   UNL     1      -0.059   3.877  -0.002  0.00  0.00    +0.162 A 
ATOM      7  C   UNL     1      -3.782   3.496   0.441  0.00  0.00    +0.009 C 
ATOM      8  C   UNL     1      -4.363   4.033  -0.881  0.00  0.00    +0.013 C 
ATOM      9  C   UNL     1      -5.326   5.164  -0.440  0.00  0.00    +0.001 C 
ATOM     10  C   UNL     1      -4.569   5.816   0.744  0.00  0.00    +0.001 C 
ATOM     11  C   UNL     1      -3.911   4.625   1.475  0.00  0.00    +0.013 C 
ATOM     12  C   UNL     1      -4.580   2.278   0.897  0.00  0.00    +0.093 C 
ATOM     13  N   UNL     1      -4.270   1.154  -0.002  0.00  0.00    -0.305 NA
ATOM     14  C   UNL     1      -2.901   0.682   0.225  0.00  0.00    +0.117 C 
ATOM     15  H   UNL     1      -4.970   0.328   0.189  0.00  0.00    +0.123 HD
ENDROOT
BRANCH  14  16
ATOM     16  C   UNL     1      -2.550  -0.347  -0.818  0.00  0.00    +0.004 A 
ATOM     17  C   UNL     1      -3.136  -0.291  -2.069  0.00  0.00    +0.008 A 
ATOM     18  C   UNL     1      -2.815  -1.235  -3.026  0.00  0.00    +0.000 A 
ATOM     19  C   UNL     1      -1.907  -2.235  -2.732  0.00  0.00    +0.002 A 
ATOM     20  C   UNL     1      -1.322  -2.292  -1.482  0.00  0.00    +0.033 A 
ATOM     21  C   UNL     1      -1.639  -1.344  -0.526  0.00  0.00    +0.131 A 
BRANCH  21  22
ATOM     22  N   UNL     1      -1.007  -1.401   0.811  0.00  0.00    +0.057 N 
ATOM     23  O   UNL     1      -0.300  -2.346   1.111  0.00  0.00    -0.126 OA
ATOM     24  O   UNL     1      -1.194  -0.502   1.612  0.00  0.00    -0.126 OA
ENDBRANCH  21  22
ENDBRANCH  14  16
BRANCH   1  26
ATOM     25  C   UNL     1       2.018   0.879  -0.409  0.00  0.00    +0.277 C 
ATOM     26  O   UNL     1       1.669   2.260  -0.299  0.00  0.00    -0.491 OA
ENDBRANCH   1  26
BRANCH   6  27
ATOM     27  O   UNL     1       0.852   4.884  -0.068  0.00  0.00    -0.491 OA
ATOM     28  C   UNL     1       0.355   6.218   0.058  0.00  0.00    +0.277 C 
ENDBRANCH   6  27
TORSDOF 4
