REMARK  Name = ZINC25499861
REMARK  6 active torsions:
REMARK  status: ('A' for Active; 'I' for Inactive)
REMARK    1  A    between atoms: C_1  and  C_2
REMARK    2  A    between atoms: C_3  and  C_19
REMARK    3  A    between atoms: N_8  and  C_9
REMARK    4  A    between atoms: C_12  and  C_15
REMARK    5  A    between atoms: C_15  and  C_17
REMARK    6  A    between atoms: C_19  and  C_20
REMARK                            x       y       z     vdW  Elec       q    Type
REMARK                         _______ _______ _______ _____ _____    ______ ____
ROOT
ATOM      1  C   UNL     1      -0.037   1.480  -0.334  0.00  0.00    +0.066 C 
ATOM      2  C   UNL     1      -0.005  -0.013  -0.131  0.00  0.00    +0.050 A 
ATOM      3  C   UNL     1      -1.167  -0.697   0.081  0.00  0.00    +0.042 A 
ATOM      4  C   UNL     1      -1.112  -2.090   0.267  0.00  0.00    +0.256 A 
ATOM      5  N   UNL     1       0.091  -2.702   0.229  0.00  0.00    -0.295 N 
ATOM      6  C   UNL     1       1.216  -1.968   0.013  0.00  0.00    +0.200 A 
ATOM      7  N   UNL     1       1.156  -0.664  -0.165  0.00  0.00    -0.221 NA
ATOM      8  N   UNL     1       2.434  -2.597  -0.025  0.00  0.00    -0.285 N 
ATOM      9  O   UNL     1      -2.131  -2.732   0.460  0.00  0.00    -0.267 OA
ATOM     10  H   UNL     1       2.482  -3.565   0.023  0.00  0.00    +0.155 HD
ATOM     11  H   UNL     1       0.153  -3.662   0.354  0.00  0.00    +0.172 HD
ENDROOT
BRANCH   8  12
ATOM     12  C   UNL     1       3.602  -1.847  -0.131  0.00  0.00    +0.034 A 
ATOM     13  C   UNL     1       3.681  -0.596   0.474  0.00  0.00    +0.024 A 
ATOM     14  C   UNL     1       4.825   0.144   0.372  0.00  0.00    +0.013 A 
ATOM     15  C   UNL     1       5.920  -0.359  -0.343  0.00  0.00    +0.017 A 
ATOM     16  C   UNL     1       5.836  -1.618  -0.951  0.00  0.00    +0.013 A 
ATOM     17  C   UNL     1       4.690  -2.353  -0.839  0.00  0.00    +0.024 A 
BRANCH  15  18
ATOM     18  C   UNL     1       7.151   0.433  -0.456  0.00  0.00    +0.160 C 
ATOM     19  O   UNL     1       7.222   1.523   0.070  0.00  0.00    -0.292 OA
ATOM     20  C   UNL     1       8.327  -0.110  -1.226  0.00  0.00    +0.091 C 
ENDBRANCH  15  18
ENDBRANCH   8  12
BRANCH   3  21
ATOM     21  C   UNL     1      -2.487   0.029   0.117  0.00  0.00    +0.077 C 
BRANCH  21  22
ATOM     22  C   UNL     1      -3.128  -0.027  -1.246  0.00  0.00    -0.043 A 
ATOM     23  C   UNL     1      -2.868   0.961  -2.177  0.00  0.00    +0.004 A 
ATOM     24  C   UNL     1      -3.461   0.904  -3.421  0.00  0.00    +0.004 A 
ATOM     25  C   UNL     1      -4.317  -0.140  -3.747  0.00  0.00    -0.044 A 
ATOM     26  C   UNL     1      -4.572  -1.127  -2.822  0.00  0.00    -0.044 A 
ATOM     27  C   UNL     1      -3.973  -1.069  -1.571  0.00  0.00    +0.008 A 
ATOM     28  C   UNL     1      -5.477  -2.296  -3.113  0.00  0.00    +0.035 C 
ATOM     29  C   UNL     1      -6.365  -2.001  -4.320  0.00  0.00    +0.005 C 
ATOM     30  C   UNL     1      -5.473  -1.522  -5.472  0.00  0.00    +0.005 C 
ATOM     31  C   UNL     1      -4.936  -0.136  -5.120  0.00  0.00    +0.035 C 
ENDBRANCH  21  22
ENDBRANCH   3  21
TORSDOF 4
