REMARK  Name = ZINC00642384
REMARK  4 active torsions:
REMARK  status: ('A' for Active; 'I' for Inactive)
REMARK    1  A    between atoms: C_4  and  C_7
REMARK    2  A    between atoms: C_8  and  C_18
REMARK    3  A    between atoms: N_10  and  C_12
REMARK    4  A    between atoms: C_21  and  C_28
REMARK                            x       y       z     vdW  Elec       q    Type
REMARK                         _______ _______ _______ _____ _____    ______ ____
ROOT
ATOM      1  C   UNL     1       3.677  -0.731  -0.093  0.00  0.00    +0.098 A 
ATOM      2  C   UNL     1       4.002  -1.861   0.682  0.00  0.00    +0.024 A 
ATOM      3  C   UNL     1       5.299  -2.163   0.454  0.00  0.00    +0.121 A 
ATOM      4  N   UNL     1       5.786  -1.258  -0.435  0.00  0.00    -0.239 N 
ATOM      5  N   UNL     1       4.750  -0.376  -0.767  0.00  0.00    -0.166 NA
ENDROOT
BRANCH   2   6
ATOM      6  C   UNL     1       3.069  -2.603   1.604  0.00  0.00    +0.156 C 
ATOM      7  C   UNL     1       2.889  -1.773   2.862  0.00  0.00    +0.030 C 
ATOM      8  C   UNL     1       3.223  -2.344   4.034  0.00  0.00    +0.073 C 
ATOM      9  N   UNL     1       3.703  -3.611   4.105  0.00  0.00    -0.213 NA
ATOM     10  C   UNL     1       3.888  -4.393   3.068  0.00  0.00    +0.237 C 
ATOM     11  N   UNL     1       3.597  -3.958   1.794  0.00  0.00    -0.208 N 
ATOM     12  N   UNL     1       3.905  -5.015   0.934  0.00  0.00    -0.251 N 
ATOM     13  C   UNL     1       4.366  -6.028   1.718  0.00  0.00    +0.203 C 
ATOM     14  N   UNL     1       4.348  -5.658   2.959  0.00  0.00    -0.205 NA
ATOM     15  H   UNL     1       3.810  -5.025  -0.031  0.00  0.00    +0.171 HD
BRANCH   8  16
ATOM     16  C   UNL     1       3.062  -1.564   5.286  0.00  0.00    +0.000 A 
ATOM     17  C   UNL     1       2.565  -0.263   5.241  0.00  0.00    +0.010 A 
ATOM     18  C   UNL     1       2.417   0.457   6.409  0.00  0.00    +0.001 A 
ATOM     19  C   UNL     1       2.760  -0.111   7.623  0.00  0.00    +0.000 A 
ATOM     20  C   UNL     1       3.254  -1.401   7.674  0.00  0.00    +0.001 A 
ATOM     21  C   UNL     1       3.401  -2.133   6.512  0.00  0.00    +0.010 A 
ENDBRANCH   8  16
ENDBRANCH   2   6
BRANCH   1  25
ATOM     22  C   UNL     1      -0.115   1.186  -0.245  0.00  0.00    +0.000 A 
ATOM     23  C   UNL     1       1.039   1.946  -0.179  0.00  0.00    +0.001 A 
ATOM     24  C   UNL     1       2.272   1.329  -0.130  0.00  0.00    +0.010 A 
ATOM     25  C   UNL     1       2.354  -0.062  -0.146  0.00  0.00    +0.002 A 
ATOM     26  C   UNL     1       1.188  -0.822  -0.213  0.00  0.00    +0.010 A 
ATOM     27  C   UNL     1      -0.040  -0.195  -0.262  0.00  0.00    +0.001 A 
ENDBRANCH   1  25
BRANCH   4  28
ATOM     28  C   UNL     1       7.094  -1.218  -0.936  0.00  0.00    +0.065 A 
ATOM     29  C   UNL     1       8.024  -2.166  -0.530  0.00  0.00    +0.028 A 
ATOM     30  C   UNL     1       9.312  -2.125  -1.026  0.00  0.00    +0.002 A 
ATOM     31  C   UNL     1       9.677  -1.140  -1.925  0.00  0.00    +0.000 A 
ATOM     32  C   UNL     1       8.754  -0.195  -2.332  0.00  0.00    +0.002 A 
ATOM     33  C   UNL     1       7.462  -0.235  -1.845  0.00  0.00    +0.028 A 
ENDBRANCH   4  28
TORSDOF 4
