REMARK  Name = ZINC13069623
REMARK  4 active torsions:
REMARK  status: ('A' for Active; 'I' for Inactive)
REMARK    1  A    between atoms: C_8  and  N_9
REMARK    2  A    between atoms: N_9  and  N_10
REMARK    3  A    between atoms: N_24  and  C_27
REMARK    4  A    between atoms: C_31  and  C_33
REMARK                            x       y       z     vdW  Elec       q    Type
REMARK                         _______ _______ _______ _____ _____    ______ ____
ROOT
ATOM      1  C   UNL     1      -2.586   8.205  -5.458  0.00  0.00    +0.001 A 
ATOM      2  C   UNL     1      -2.867   8.825  -6.667  0.00  0.00    +0.001 A 
ATOM      3  C   UNL     1      -2.438   8.277  -7.856  0.00  0.00    +0.014 A 
ATOM      4  C   UNL     1      -1.712   7.085  -7.845  0.00  0.00    +0.046 A 
ATOM      5  C   UNL     1      -1.433   6.455  -6.614  0.00  0.00    +0.000 A 
ATOM      6  C   UNL     1      -1.869   7.026  -5.425  0.00  0.00    +0.009 A 
ATOM      7  C   UNL     1      -0.658   5.197  -6.635  0.00  0.00    +0.061 C 
ATOM      8  C   UNL     1      -0.348   4.535  -5.467  0.00  0.00    +0.102 C 
ATOM      9  C   UNL     1      -0.233   4.670  -7.936  0.00  0.00    +0.259 C 
ATOM     10  O   UNL     1       0.403   3.633  -7.989  0.00  0.00    -0.269 OA
ATOM     11  N   UNL     1      -0.538   5.320  -9.071  0.00  0.00    -0.202 N 
ATOM     12  C   UNL     1      -1.236   6.467  -9.089  0.00  0.00    +0.258 C 
ATOM     13  O   UNL     1      -1.479   7.004 -10.154  0.00  0.00    -0.269 OA
ENDROOT
BRANCH  11  14
ATOM     14  C   UNL     1      -0.110   4.778 -10.290  0.00  0.00    +0.045 A 
ATOM     15  C   UNL     1      -1.033   4.496 -11.289  0.00  0.00    +0.024 A 
ATOM     16  C   UNL     1      -0.608   3.962 -12.489  0.00  0.00    +0.002 A 
ATOM     17  C   UNL     1       0.736   3.708 -12.697  0.00  0.00    +0.012 A 
ATOM     18  C   UNL     1       1.657   3.988 -11.705  0.00  0.00    +0.057 A 
ATOM     19  C   UNL     1       1.238   4.527 -10.504  0.00  0.00    +0.036 A 
BRANCH  18  20
ATOM     20  C   UNL     1       3.120   3.709 -11.936  0.00  0.00    +0.417 C 
ATOM     21  F   UNL     1       3.296   3.175 -13.217  0.00  0.00    -0.166 F 
ATOM     22  F   UNL     1       3.845   4.901 -11.824  0.00  0.00    -0.166 F 
ATOM     23  F   UNL     1       3.577   2.794 -10.982  0.00  0.00    -0.166 F 
ENDBRANCH  18  20
ENDBRANCH  11  14
BRANCH   8  24
ATOM     24  N   UNL     1      -0.235   5.228  -4.303  0.00  0.00    -0.260 N 
ATOM     25  H   UNL     1      -0.265   6.197  -4.311  0.00  0.00    +0.170 HD
BRANCH  24  26
ATOM     26  N   UNL     1      -0.077   4.542  -3.092  0.00  0.00    -0.140 N 
ATOM     27  C   UNL     1      -1.053   4.391  -2.173  0.00  0.00    +0.263 C 
ATOM     28  O   UNL     1      -2.190   4.807  -2.234  0.00  0.00    -0.271 OA
ATOM     29  C   UNL     1      -0.429   3.594  -1.050  0.00  0.00    +0.114 C 
ATOM     30  C   UNL     1      -1.161   2.269  -0.868  0.00  0.00    +0.035 C 
ATOM     31  C   UNL     1      -0.491   1.464   0.249  0.00  0.00    +0.003 C 
ATOM     32  C   UNL     1      -0.529   2.270   1.550  0.00  0.00    +0.000 C 
ATOM     33  C   UNL     1       0.226   3.587   1.358  0.00  0.00    +0.003 C 
ATOM     34  C   UNL     1      -0.441   4.399   0.245  0.00  0.00    +0.035 C 
ATOM     35  N   UNL     1       0.949   3.363  -1.499  0.00  0.00    -0.284 N 
ATOM     36  C   UNL     1       1.062   3.954  -2.704  0.00  0.00    +0.326 C 
ATOM     37  O   UNL     1       2.082   3.954  -3.364  0.00  0.00    -0.251 OA
ATOM     38  H   UNL     1       1.642   2.880  -1.022  0.00  0.00    +0.151 HD
ENDBRANCH  24  26
ENDBRANCH   8  24
TORSDOF 4
