REMARK  Name = ZINC06738938
REMARK  4 active torsions:
REMARK  status: ('A' for Active; 'I' for Inactive)
REMARK    1  A    between atoms: C_4  and  C_7
REMARK    2  A    between atoms: C_11  and  S_13
REMARK    3  A    between atoms: S_13  and  C_14
REMARK    4  A    between atoms: C_14  and  C_15
REMARK                            x       y       z     vdW  Elec       q    Type
REMARK                         _______ _______ _______ _____ _____    ______ ____
ROOT
ATOM      1  C   UNL     1       0.719   9.987   1.151  0.00  0.00    +0.165 A 
ATOM      2  N   UNL     1      -0.331   9.266   0.784  0.00  0.00    -0.193 NA
ATOM      3  C   UNL     1      -0.189   7.996   0.412  0.00  0.00    +0.228 A 
ATOM      4  C   UNL     1       1.078   7.434   0.413  0.00  0.00    +0.051 A 
ATOM      5  C   UNL     1       2.160   8.218   0.805  0.00  0.00    +0.108 A 
ATOM      6  N   UNL     1       1.943   9.481   1.164  0.00  0.00    -0.221 NA
ATOM      7  C   UNL     1       1.284   6.005  -0.001  0.00  0.00    +0.082 C 
ATOM      8  C   UNL     1      -0.022   5.257   0.020  0.00  0.00    +0.007 A 
ATOM      9  C   UNL     1      -0.005   3.850   0.020  0.00  0.00    -0.011 A 
ATOM     10  C   UNL     1       1.208   3.140   0.007  0.00  0.00    +0.009 A 
ATOM     11  C   UNL     1       1.191   1.779   0.000  0.00  0.00    +0.001 A 
ATOM     12  C   UNL     1      -0.013   1.076   0.008  0.00  0.00    +0.001 A 
ATOM     13  C   UNL     1      -1.206   1.730   0.017  0.00  0.00    +0.008 A 
ATOM     14  C   UNL     1      -1.228   3.135   0.031  0.00  0.00    -0.017 A 
ATOM     15  C   UNL     1      -2.440   3.847   0.050  0.00  0.00    +0.012 A 
ATOM     16  C   UNL     1      -2.422   5.204   0.054  0.00  0.00    +0.047 A 
ATOM     17  C   UNL     1      -1.214   5.918   0.038  0.00  0.00    +0.134 A 
ATOM     18  O   UNL     1      -1.265   7.274   0.039  0.00  0.00    -0.437 OA
ENDROOT
BRANCH   1  22
ATOM     19  C   UNL     1       0.140  14.034   2.319  0.00  0.00    +0.000 A 
ATOM     20  C   UNL     1      -0.944  13.267   1.933  0.00  0.00    +0.001 A 
ATOM     21  C   UNL     1      -0.762  11.953   1.552  0.00  0.00    +0.011 A 
ATOM     22  C   UNL     1       0.517  11.399   1.558  0.00  0.00    +0.019 A 
ATOM     23  C   UNL     1       1.605  12.175   1.954  0.00  0.00    +0.011 A 
ATOM     24  C   UNL     1       1.412  13.490   2.326  0.00  0.00    +0.001 A 
ENDBRANCH   1  22
BRANCH   5  25
ATOM     25  S   UNL     1       3.790   7.549   0.823  0.00  0.00    -0.096 S 
BRANCH  25  26
ATOM     26  C   UNL     1       4.717   8.994   1.397  0.00  0.00    +0.171 C 
BRANCH  26  27
ATOM     27  C   UNL     1       6.180   8.648   1.493  0.00  0.00    +0.221 C 
ATOM     28  O   UNL     1       6.559   7.533   1.201  0.00  0.00    -0.275 OA
ATOM     29  N   UNL     1       7.067   9.576   1.902  0.00  0.00    -0.329 N 
ATOM     30  H   UNL     1       6.764  10.467   2.135  0.00  0.00    +0.145 HD
ATOM     31  H   UNL     1       8.009   9.353   1.963  0.00  0.00    +0.145 HD
ENDBRANCH  26  27
ENDBRANCH  25  26
ENDBRANCH   5  25
TORSDOF 4
