REMARK  Name = ZINC65382641
REMARK  6 active torsions:
REMARK  status: ('A' for Active; 'I' for Inactive)
REMARK    1  A    between atoms: C_1  and  O_2
REMARK    2  A    between atoms: O_2  and  C_3
REMARK    3  A    between atoms: C_8  and  C_9
REMARK    4  A    between atoms: C_11  and  C_26
REMARK    5  A    between atoms: N_15  and  C_16
REMARK    6  A    between atoms: C_16  and  C_17
REMARK                            x       y       z     vdW  Elec       q    Type
REMARK                         _______ _______ _______ _____ _____    ______ ____
ROOT
ATOM      1  C   UNL     1      -0.009  -2.871  -0.056  0.00  0.00    -0.008 C 
ATOM      2  C   UNL     1       0.146  -3.668  -1.369  0.00  0.00    +0.073 C 
ATOM      3  N   UNL     1       0.753  -4.951  -0.924  0.00  0.00    -0.327 NA
ATOM      4  C   UNL     1       0.085  -5.205   0.378  0.00  0.00    +0.006 C 
ATOM      5  N   UNL     1      -0.027  -3.878   1.026  0.00  0.00    +0.395 N 
ATOM      6  H   UNL     1       0.557  -5.691  -1.581  0.00  0.00    +0.120 HD
ATOM      7  H   UNL     1       0.754  -3.730   1.647  0.00  0.00    -0.079 HD
ENDROOT
BRANCH   1  13
ATOM      8  C   UNL     1      -1.301  -0.741   0.227  0.00  0.00    +0.124 A 
ATOM      9  C   UNL     1      -2.492  -0.029   0.209  0.00  0.00    +0.046 A 
ATOM     10  C   UNL     1      -3.677  -0.671  -0.095  0.00  0.00    +0.006 A 
ATOM     11  C   UNL     1      -3.678  -2.023  -0.382  0.00  0.00    +0.039 A 
ATOM     12  C   UNL     1      -2.491  -2.737  -0.365  0.00  0.00    +0.129 A 
ATOM     13  C   UNL     1      -1.302  -2.096  -0.067  0.00  0.00    +0.018 A 
ATOM     14  F   UNL     1      -2.494  -4.059  -0.646  0.00  0.00    -0.205 F 
BRANCH   8  16
ATOM     15  C   UNL     1      -0.210   1.287   0.818  0.00  0.00    +0.277 C 
ATOM     16  O   UNL     1      -0.136  -0.110   0.526  0.00  0.00    -0.495 OA
ENDBRANCH   8  16
ENDBRANCH   1  13
BRANCH   2  17
ATOM     17  C   UNL     1       1.062  -2.946  -2.323  0.00  0.00    -0.032 A 
ATOM     18  C   UNL     1       2.433  -3.038  -2.168  0.00  0.00    +0.005 A 
ATOM     19  C   UNL     1       3.273  -2.375  -3.044  0.00  0.00    +0.000 A 
ATOM     20  C   UNL     1       2.743  -1.621  -4.074  0.00  0.00    +0.000 A 
ATOM     21  C   UNL     1       1.372  -1.530  -4.229  0.00  0.00    +0.000 A 
ATOM     22  C   UNL     1       0.532  -2.196  -3.356  0.00  0.00    +0.005 A 
ENDBRANCH   2  17
BRANCH   5  23
ATOM     23  C   UNL     1      -1.289  -3.789   1.772  0.00  0.00    -0.043 C 
BRANCH  23  24
ATOM     24  C   UNL     1      -1.224  -4.706   2.996  0.00  0.00    +0.139 C 
ATOM     25  C   UNL     1      -2.433  -4.500   3.885  0.00  0.00    -0.023 C 
ATOM     26  C   UNL     1      -1.934  -4.074   5.043  0.00  0.00    +0.064 C 
ATOM     27  C   UNL     1      -3.061  -3.831   6.031  0.00  0.00    +0.057 C 
ATOM     28  C   UNL     1      -4.342  -3.760   5.171  0.00  0.00    +0.011 C 
ATOM     29  C   UNL     1      -3.936  -4.597   3.937  0.00  0.00    +0.035 C 
ATOM     30  N   UNL     1      -0.578  -3.996   4.963  0.00  0.00    -0.159 NA
ATOM     31  N   UNL     1      -0.102  -4.327   3.872  0.00  0.00    -0.181 NA
ENDBRANCH  23  24
ENDBRANCH   5  23
TORSDOF 5
