REMARK  Name = ZINC63491004
REMARK  10 active torsions:
REMARK  status: ('A' for Active; 'I' for Inactive)
REMARK    1  A    between atoms: C_1  and  C_2
REMARK    2  A    between atoms: C_7  and  O_32
REMARK    3  A    between atoms: C_13  and  C_15
REMARK    4  A    between atoms: C_15  and  C_16
REMARK    5  A    between atoms: N_18  and  C_19
REMARK    6  A    between atoms: C_19  and  C_20
REMARK    7  A    between atoms: C_20  and  C_21
REMARK    8  A    between atoms: C_24  and  O_30
REMARK    9  A    between atoms: O_30  and  C_31
REMARK   10  A    between atoms: O_32  and  C_33
REMARK                            x       y       z     vdW  Elec       q    Type
REMARK                         _______ _______ _______ _____ _____    ______ ____
ROOT
ATOM      1  C   UNL     1       1.951  -2.440   2.228  0.00  0.00    +0.214 C 
ATOM      2  O   UNL     1       2.227  -1.662   3.117  0.00  0.00    -0.276 OA
ATOM      3  N   UNL     1       2.393  -3.712   2.284  0.00  0.00    -0.315 N 
ATOM      4  H   UNL     1       2.173  -4.334   1.574  0.00  0.00    +0.149 HD
ENDROOT
BRANCH   1   5
ATOM      5  C   UNL     1       1.114  -1.984   1.061  0.00  0.00    +0.111 C 
BRANCH   5  17
ATOM      6  C   UNL     1      -0.019   1.526   0.010  0.00  0.00    +0.013 C 
ATOM      7  C   UNL     1       0.002  -0.004   0.002  0.00  0.00    +0.034 C 
ATOM      8  C   UNL     1      -1.413  -0.524   0.009  0.00  0.00    +0.000 A 
ATOM      9  C   UNL     1      -2.113  -0.549  -1.188  0.00  0.00    +0.031 A 
ATOM     10  C   UNL     1      -3.413  -1.010  -1.230  0.00  0.00    +0.083 A 
ATOM     11  C   UNL     1      -4.029  -1.452  -0.066  0.00  0.00    +0.142 A 
ATOM     12  C   UNL     1      -3.333  -1.432   1.131  0.00  0.00    +0.093 A 
ATOM     13  C   UNL     1      -2.021  -0.971   1.169  0.00  0.00    +0.139 A 
ATOM     14  O   UNL     1      -1.367  -0.986   2.362  0.00  0.00    -0.425 OA
ATOM     15  C   UNL     1      -0.179  -0.353   2.429  0.00  0.00    +0.316 C 
ATOM     16  O   UNL     1       0.133   0.308   3.392  0.00  0.00    -0.250 OA
ATOM     17  C   UNL     1       0.747  -0.510   1.241  0.00  0.00    +0.114 C 
ATOM     18 CL   UNL     1      -4.279  -1.037  -2.734  0.00  0.00    -0.080 Cl
BRANCH  11  19
ATOM     19  O   UNL     1      -5.311  -1.903  -0.101  0.00  0.00    -0.494 OA
ATOM     20  C   UNL     1      -5.878  -2.342   1.135  0.00  0.00    +0.277 C 
ENDBRANCH  11  19
ENDBRANCH   5  17
ENDBRANCH   1   5
BRANCH   3  21
ATOM     21  C   UNL     1       3.207  -4.155   3.419  0.00  0.00    +0.108 C 
BRANCH  21  22
ATOM     22  C   UNL     1       3.574  -5.629   3.239  0.00  0.00    +0.052 C 
BRANCH  22  23
ATOM     23  C   UNL     1       4.411  -6.085   4.406  0.00  0.00    -0.040 C 
ATOM     24  C   UNL     1       3.976  -6.709   5.524  0.00  0.00    +0.002 A 
ATOM     25  C   UNL     1       2.646  -7.134   5.973  0.00  0.00    +0.055 A 
ATOM     26  C   UNL     1       2.512  -7.751   7.171  0.00  0.00    +0.121 A 
ATOM     27  C   UNL     1       3.610  -8.005   8.012  0.00  0.00    +0.047 A 
ATOM     28  C   UNL     1       4.871  -7.651   7.686  0.00  0.00    +0.029 A 
ATOM     29  C   UNL     1       5.132  -6.976   6.411  0.00  0.00    +0.043 A 
ATOM     30  N   UNL     1       6.237  -6.535   5.863  0.00  0.00    -0.380 N 
ATOM     31  C   UNL     1       5.909  -5.943   4.561  0.00  0.00    +0.144 C 
ATOM     32  H   UNL     1       7.124  -6.594   6.251  0.00  0.00    +0.160 HD
BRANCH  26  33
ATOM     33  O   UNL     1       1.273  -8.139   7.574  0.00  0.00    -0.495 OA
ATOM     34  C   UNL     1       1.178  -8.787   8.845  0.00  0.00    +0.277 C 
ENDBRANCH  26  33
ENDBRANCH  22  23
ENDBRANCH  21  22
ENDBRANCH   3  21
TORSDOF 7
