REMARK  Name = ZINC54580866
REMARK  9 active torsions:
REMARK  status: ('A' for Active; 'I' for Inactive)
REMARK    1  A    between atoms: C_1  and  C_2
REMARK    2  A    between atoms: C_2  and  C_3
REMARK    3  A    between atoms: C_2  and  N_14
REMARK    4  A    between atoms: C_6  and  S_9
REMARK    5  A    between atoms: S_9  and  N_12
REMARK    6  A    between atoms: N_12  and  C_13
REMARK    7  A    between atoms: N_17  and  C_18
REMARK    8  A    between atoms: C_18  and  C_19
REMARK    9  A    between atoms: C_18  and  C_20
REMARK                            x       y       z     vdW  Elec       q    Type
REMARK                         _______ _______ _______ _____ _____    ______ ____
ROOT
ATOM      1  N   UNL     1       0.688  -0.476  -1.203  0.00  0.00    -0.293 N 
ATOM      2  C   UNL     1       0.006  -0.608  -2.358  0.00  0.00    +0.301 C 
ATOM      3  O   UNL     1      -1.178  -0.335  -2.400  0.00  0.00    -0.253 OA
ATOM      4  N   UNL     1       0.637  -1.043  -3.467  0.00  0.00    -0.293 N 
ATOM      5  H   UNL     1       1.632  -0.695  -1.170  0.00  0.00    +0.151 HD
ATOM      6  H   UNL     1       1.582  -1.261  -3.434  0.00  0.00    +0.151 HD
ENDROOT
BRANCH   1   8
ATOM      7  C   UNL     1      -0.019   1.526   0.010  0.00  0.00    +0.033 C 
ATOM      8  C   UNL     1       0.002  -0.004   0.002  0.00  0.00    +0.102 C 
BRANCH   8   9
ATOM      9  C   UNL     1       0.731  -0.503   1.223  0.00  0.00    -0.027 A 
ATOM     10  C   UNL     1       2.113  -0.514   1.247  0.00  0.00    +0.007 A 
ATOM     11  C   UNL     1       2.782  -0.972   2.366  0.00  0.00    +0.029 A 
ATOM     12  C   UNL     1       2.068  -1.419   3.463  0.00  0.00    +0.105 A 
ATOM     13  C   UNL     1       0.686  -1.407   3.439  0.00  0.00    +0.029 A 
ATOM     14  C   UNL     1       0.017  -0.945   2.321  0.00  0.00    +0.007 A 
BRANCH  12  15
ATOM     15  S   UNL     1       2.920  -2.003   4.890  0.00  0.00    +0.058 S 
ATOM     16  O   UNL     1       2.026  -2.874   5.569  0.00  0.00    -0.153 OA
ATOM     17  O   UNL     1       4.206  -2.422   4.452  0.00  0.00    -0.153 OA
BRANCH  15  18
ATOM     18  N   UNL     1       3.159  -0.702   5.885  0.00  0.00    -0.193 NA
ATOM     19  C   UNL     1       2.011  -0.018   6.486  0.00  0.00    +0.127 C 
ATOM     20  H   UNL     1       4.060  -0.392   6.070  0.00  0.00    +0.148 HD
ENDBRANCH  15  18
ENDBRANCH  12  15
ENDBRANCH   8   9
ENDBRANCH   1   8
BRANCH   4  21
ATOM     21  C   UNL     1      -0.104  -1.186  -4.723  0.00  0.00    +0.102 C 
ATOM     22  C   UNL     1      -0.792  -2.552  -4.757  0.00  0.00    +0.033 C 
BRANCH  21  23
ATOM     23  C   UNL     1       0.850  -1.075  -5.885  0.00  0.00    -0.026 A 
ATOM     24  C   UNL     1       2.095  -1.671  -5.815  0.00  0.00    +0.005 A 
ATOM     25  C   UNL     1       2.971  -1.570  -6.880  0.00  0.00    +0.002 A 
ATOM     26  C   UNL     1       2.602  -0.873  -8.015  0.00  0.00    +0.020 A 
ATOM     27  C   UNL     1       1.356  -0.276  -8.085  0.00  0.00    +0.041 A 
ATOM     28  C   UNL     1       0.477  -0.383  -7.021  0.00  0.00    +0.025 A 
ATOM     29 CL   UNL     1       0.891   0.601  -9.509  0.00  0.00    -0.084 Cl
ENDBRANCH  21  23
ENDBRANCH   4  21
TORSDOF 6
