REMARK  Name = ZINC19369548
REMARK  5 active torsions:
REMARK  status: ('A' for Active; 'I' for Inactive)
REMARK    1  A    between atoms: C_4  and  C_7
REMARK    2  A    between atoms: C_7  and  C_8
REMARK    3  A    between atoms: C_7  and  N_14
REMARK    4  A    between atoms: C_15  and  C_17
REMARK    5  A    between atoms: C_17  and  N_18
REMARK                            x       y       z     vdW  Elec       q    Type
REMARK                         _______ _______ _______ _____ _____    ______ ____
ROOT
ATOM      1  C   UNL     1       1.280   1.980   0.001  0.00  0.00    +0.019 C 
ENDROOT
BRANCH   1   2
ATOM      2  N   UNL     1       2.463   1.114  -0.094  0.00  0.00    +0.389 N 
ATOM      3  C   UNL     1       3.686   1.911  -0.287  0.00  0.00    -0.072 C 
ATOM      4  C   UNL     1       4.896   1.013  -0.030  0.00  0.00    +0.037 C 
ATOM      5  C   UNL     1       4.767  -0.264  -0.819  0.00  0.00    +0.050 A 
ATOM      6  C   UNL     1       3.578  -0.664  -1.342  0.00  0.00    +0.022 A 
ATOM      7  C   UNL     1       3.522  -1.873  -2.065  0.00  0.00    +0.254 A 
ATOM      8  O   UNL     1       2.469  -2.262  -2.542  0.00  0.00    -0.268 OA
ATOM      9  N   UNL     1       4.652  -2.593  -2.220  0.00  0.00    -0.295 N 
ATOM     10  H   UNL     1       4.629  -3.539  -2.782  0.00  0.00    +0.172 HD
ATOM     11  C   UNL     1       5.816  -2.142  -1.679  0.00  0.00    +0.198 A 
ATOM     12  N   UNL     1       5.858  -1.014  -1.002  0.00  0.00    -0.221 NA
ATOM     13  N   UNL     1       6.962  -2.874  -1.840  0.00  0.00    -0.301 N 
ATOM     14  C   UNL     1       7.394  -2.880  -3.261  0.00  0.00    +0.108 C 
ATOM     15  C   UNL     1       8.893  -3.260  -3.174  0.00  0.00    +0.020 C 
ATOM     16  C   UNL     1       9.363  -2.522  -1.900  0.00  0.00    +0.020 C 
ATOM     17  C   UNL     1       8.082  -2.278  -1.081  0.00  0.00    +0.108 C 
ATOM     18  C   UNL     1       2.317   0.141  -1.182  0.00  0.00    -0.035 C 
ATOM     19  H   UNL     1       2.549   0.563   0.854  0.00  0.00    -0.081 HD
ENDBRANCH   1   2
BRANCH   1  21
ATOM     20  N   UNL     1       0.444   3.764   1.496  0.00  0.00    -0.306 N 
ATOM     21  C   UNL     1       1.363   2.807   1.257  0.00  0.00    +0.197 C 
ATOM     22  O   UNL     1       2.253   2.608   2.057  0.00  0.00    -0.278 OA
ATOM     23  H   UNL     1      -0.364   3.944   0.771  0.00  0.00    +0.150 HD
BRANCH  20  24
ATOM     24  C   UNL     1       0.520   4.564   2.721  0.00  0.00    +0.133 C 
BRANCH  24  28
ATOM     25  C   UNL     1       3.183   7.848   2.112  0.00  0.00    +0.000 A 
ATOM     26  C   UNL     1       3.189   7.167   3.315  0.00  0.00    +0.000 A 
ATOM     27  C   UNL     1       2.327   6.104   3.512  0.00  0.00    +0.006 A 
ATOM     28  C   UNL     1       1.460   5.722   2.506  0.00  0.00    -0.023 A 
ATOM     29  C   UNL     1       1.458   6.400   1.301  0.00  0.00    +0.006 A 
ATOM     30  C   UNL     1       2.316   7.465   1.106  0.00  0.00    +0.000 A 
ENDBRANCH  24  28
BRANCH  24  31
ATOM     31  C   UNL     1      -0.851   5.086   3.066  0.00  0.00    -0.023 A 
ATOM     32  C   UNL     1      -1.689   5.542   2.066  0.00  0.00    +0.006 A 
ATOM     33  C   UNL     1      -2.948   6.017   2.382  0.00  0.00    +0.000 A 
ATOM     34  C   UNL     1      -3.365   6.044   3.699  0.00  0.00    +0.000 A 
ATOM     35  C   UNL     1      -2.525   5.593   4.700  0.00  0.00    +0.000 A 
ATOM     36  C   UNL     1      -1.268   5.114   4.383  0.00  0.00    +0.006 A 
ENDBRANCH  24  31
ENDBRANCH  20  24
ENDBRANCH   1  21
TORSDOF 5
