REMARK  Name = ZINC21775504
REMARK  3 active torsions:
REMARK  status: ('A' for Active; 'I' for Inactive)
REMARK    1  A    between atoms: C_1  and  N_2
REMARK    2  A    between atoms: C_5  and  C_6
REMARK    3  A    between atoms: C_16  and  C_24
REMARK                            x       y       z     vdW  Elec       q    Type
REMARK                         _______ _______ _______ _____ _____    ______ ____
ROOT
ATOM      1  C   UNL     1      -4.575   0.055   1.364  0.00  0.00    -0.095 C 
ATOM      2  N   UNL     1      -3.313  -0.665   1.144  0.00  0.00    +0.383 N 
ATOM      3  C   UNL     1      -2.486   0.015   0.137  0.00  0.00    -0.041 C 
ATOM      4  C   UNL     1      -1.148  -0.693   0.111  0.00  0.00    -0.042 C 
ATOM      5  C   UNL     1       0.002  -0.004   0.002  0.00  0.00    +0.011 C 
ATOM      6  C   UNL     1      -1.150  -2.167   0.216  0.00  0.00    +0.035 C 
ATOM      7  C   UNL     1      -2.276  -2.811   0.533  0.00  0.00    -0.036 C 
ATOM      8  C   UNL     1      -3.563  -2.055   0.761  0.00  0.00    -0.043 C 
ATOM      9  C   UNL     1      -2.323  -4.317   0.669  0.00  0.00    +0.167 C 
ATOM     10  N   UNL     1      -1.127  -4.917   0.093  0.00  0.00    -0.221 N 
ATOM     11  C   UNL     1      -0.012  -4.214  -0.228  0.00  0.00    +0.219 A 
ATOM     12  N   UNL     1       0.868  -5.048  -0.710  0.00  0.00    -0.201 NA
ATOM     13  C   UNL     1       0.354  -6.283  -0.718  0.00  0.00    +0.247 A 
ATOM     14  N   UNL     1      -0.863  -6.246  -0.237  0.00  0.00    -0.156 NA
ATOM     15  N   UNL     1       0.054  -2.844  -0.036  0.00  0.00    -0.284 N 
ATOM     16  H   UNL     1       1.002  -2.287  -0.074  0.00  0.00    +0.155 HD
ATOM     17  H   UNL     1      -2.759  -0.674   2.094  0.00  0.00    -0.081 HD
ENDROOT
BRANCH   5  18
ATOM     18  C   UNL     1      -0.029   1.444  -0.270  0.00  0.00    -0.025 A 
ATOM     19  C   UNL     1      -1.053   1.990  -1.049  0.00  0.00    +0.009 A 
ATOM     20  C   UNL     1      -1.079   3.346  -1.295  0.00  0.00    +0.020 A 
ATOM     21  C   UNL     1      -0.087   4.165  -0.782  0.00  0.00    +0.041 A 
ATOM     22  C   UNL     1       0.933   3.630  -0.014  0.00  0.00    +0.020 A 
ATOM     23  C   UNL     1       0.968   2.276   0.245  0.00  0.00    +0.009 A 
ATOM     24 CL   UNL     1      -0.124   5.871  -1.103  0.00  0.00    -0.084 Cl
ENDBRANCH   5  18
BRANCH   9  25
ATOM     25  C   UNL     1      -2.411  -4.683   2.128  0.00  0.00    -0.019 A 
ATOM     26  C   UNL     1      -1.405  -4.303   2.998  0.00  0.00    +0.007 A 
ATOM     27  C   UNL     1      -1.488  -4.633   4.337  0.00  0.00    +0.020 A 
ATOM     28  C   UNL     1      -2.571  -5.355   4.806  0.00  0.00    +0.041 A 
ATOM     29  C   UNL     1      -3.574  -5.740   3.934  0.00  0.00    +0.020 A 
ATOM     30  C   UNL     1      -3.494  -5.404   2.596  0.00  0.00    +0.007 A 
ATOM     31 CL   UNL     1      -2.672  -5.777   6.487  0.00  0.00    -0.084 Cl
ENDBRANCH   9  25
TORSDOF 2
