REMARK  Name = ZINC00989259
REMARK  4 active torsions:
REMARK  status: ('A' for Active; 'I' for Inactive)
REMARK    1  A    between atoms: C_9  and  C_26
REMARK    2  A    between atoms: C_10  and  C_18
REMARK    3  A    between atoms: C_12  and  C_16
REMARK    4  A    between atoms: C_13  and  N_15
REMARK                            x       y       z     vdW  Elec       q    Type
REMARK                         _______ _______ _______ _____ _____    ______ ____
ROOT
ATOM      1  C   UNL     1       2.917  10.594  -1.649  0.00  0.00    +0.002 A 
ATOM      2  C   UNL     1       2.903  10.486  -0.269  0.00  0.00    +0.002 A 
ATOM      3  C   UNL     1       2.822   9.244   0.331  0.00  0.00    +0.026 A 
ATOM      4  C   UNL     1       2.756   8.103  -0.454  0.00  0.00    +0.062 A 
ATOM      5  C   UNL     1       2.771   8.210  -1.843  0.00  0.00    +0.054 A 
ATOM      6  C   UNL     1       2.852   9.462  -2.437  0.00  0.00    +0.025 A 
ATOM      7  N   UNL     1       2.693   6.921  -2.360  0.00  0.00    -0.300 N 
ATOM      8  C   UNL     1       2.631   6.037  -1.308  0.00  0.00    +0.115 C 
ATOM      9  C   UNL     1       2.546   4.668  -1.323  0.00  0.00    +0.078 C 
ATOM     10  C   UNL     1       2.492   3.936   0.001  0.00  0.00    +0.107 C 
ATOM     11  C   UNL     1       2.538   4.787   1.253  0.00  0.00    +0.078 C 
ATOM     12  C   UNL     1       2.624   6.137   1.105  0.00  0.00    +0.108 C 
ATOM     13  N   UNL     1       2.669   6.741  -0.134  0.00  0.00    -0.242 N 
ATOM     14  H   UNL     1       2.684   6.686  -3.301  0.00  0.00    +0.153 HD
ENDROOT
BRANCH  10  15
ATOM     15  C   UNL     1       1.221   3.127   0.034  0.00  0.00    -0.016 A 
ATOM     16  C   UNL     1      -0.004   3.766   0.075  0.00  0.00    +0.007 A 
ATOM     17  C   UNL     1      -1.170   3.025   0.106  0.00  0.00    +0.020 A 
ATOM     18  C   UNL     1      -1.112   1.643   0.090  0.00  0.00    +0.042 A 
ATOM     19  C   UNL     1       0.114   1.002   0.055  0.00  0.00    +0.040 A 
ATOM     20  C   UNL     1       1.281   1.745   0.024  0.00  0.00    +0.046 A 
ATOM     21 CL   UNL     1       2.819   0.942  -0.027  0.00  0.00    -0.083 Cl
ATOM     22 CL   UNL     1      -2.577   0.712   0.121  0.00  0.00    -0.083 Cl
ENDBRANCH  10  15
BRANCH  12  23
ATOM     23  N   UNL     1       2.667   6.926   2.229  0.00  0.00    -0.345 N 
ATOM     24  H   UNL     1       2.968   6.552   3.072  0.00  0.00    +0.144 HD
ATOM     25  H   UNL     1       2.397   7.856   2.179  0.00  0.00    +0.144 HD
ENDBRANCH  12  23
BRANCH  11  26
ATOM     26  C   UNL     1       2.494   4.190   2.553  0.00  0.00    +0.099 C 
ATOM     27  N   UNL     1       2.459   3.716   3.585  0.00  0.00    -0.191 NA
ENDBRANCH  11  26
BRANCH   9  28
ATOM     28  C   UNL     1       2.507   3.950  -2.561  0.00  0.00    +0.099 C 
ATOM     29  N   UNL     1       2.477   3.379  -3.543  0.00  0.00    -0.191 NA
ENDBRANCH   9  28
TORSDOF 4
