REMARK  Name = ZINC12242642
REMARK  8 active torsions:
REMARK  status: ('A' for Active; 'I' for Inactive)
REMARK    1  A    between atoms: C_1  and  C_2
REMARK    2  A    between atoms: C_2  and  C_3
REMARK    3  A    between atoms: C_2  and  C_4
REMARK    4  A    between atoms: C_2  and  N_6
REMARK    5  A    between atoms: C_4  and  O_5
REMARK    6  A    between atoms: C_7  and  C_9
REMARK    7  A    between atoms: N_14  and  C_16
REMARK    8  A    between atoms: N_24  and  C_27
REMARK                            x       y       z     vdW  Elec       q    Type
REMARK                         _______ _______ _______ _____ _____    ______ ____
ROOT
ATOM      1  C   UNL     1       7.148   0.652   0.028  0.00  0.00    +0.043 A 
ATOM      2  C   UNL     1       8.217   1.542   0.154  0.00  0.00    +0.024 A 
ATOM      3  C   UNL     1       8.032   2.890  -0.065  0.00  0.00    +0.003 A 
ATOM      4  C   UNL     1       6.782   3.384  -0.413  0.00  0.00    +0.014 A 
ATOM      5  C   UNL     1       5.709   2.520  -0.544  0.00  0.00    +0.051 A 
ATOM      6  C   UNL     1       5.889   1.137  -0.322  0.00  0.00    +0.070 A 
ATOM      7  C   UNL     1       4.570   0.518  -0.535  0.00  0.00    +0.256 C 
ATOM      8  O   UNL     1       4.318  -0.666  -0.431  0.00  0.00    -0.269 OA
ATOM      9  N   UNL     1       3.691   1.481  -0.867  0.00  0.00    -0.231 N 
ATOM     10  C   UNL     1       4.283   2.689  -0.890  0.00  0.00    +0.254 C 
ATOM     11  O   UNL     1       3.736   3.742  -1.153  0.00  0.00    -0.270 OA
ENDROOT
BRANCH   9  12
ATOM     12  C   UNL     1       2.275   1.246  -1.159  0.00  0.00    +0.085 C 
ATOM     13  C   UNL     1       1.413   2.029  -0.166  0.00  0.00    +0.023 C 
ATOM     14  C   UNL     1      -0.019   1.491  -0.200  0.00  0.00    +0.002 C 
ATOM     15  C   UNL     1       0.009  -0.038  -0.214  0.00  0.00    +0.000 C 
ATOM     16  C   UNL     1      -0.516  -0.546  -1.558  0.00  0.00    +0.000 C 
ATOM     17  C   UNL     1       0.559  -0.355  -2.630  0.00  0.00    +0.000 C 
ATOM     18  C   UNL     1       0.625   1.120  -3.030  0.00  0.00    +0.002 C 
ATOM     19  C   UNL     1       1.963   1.711  -2.582  0.00  0.00    +0.023 C 
ENDBRANCH   9  12
BRANCH   1  24
ATOM     20  C   UNL     1       8.944  -2.544   0.441  0.00  0.00    +0.092 C 
ATOM     21  C   UNL     1       8.200  -3.062   1.675  0.00  0.00    +0.016 C 
ATOM     22  C   UNL     1       6.723  -2.671   1.572  0.00  0.00    +0.020 C 
ATOM     23  C   UNL     1       6.610  -1.150   1.443  0.00  0.00    +0.105 C 
ATOM     24  N   UNL     1       7.338  -0.704   0.248  0.00  0.00    -0.329 N 
ATOM     25  C   UNL     1       8.767  -1.026   0.345  0.00  0.00    +0.117 C 
BRANCH  20  27
ATOM     26  N   UNL     1      10.805  -4.158   0.664  0.00  0.00    -0.308 N 
ATOM     27  C   UNL     1      10.409  -2.874   0.562  0.00  0.00    +0.218 C 
ATOM     28  O   UNL     1      11.233  -1.983   0.567  0.00  0.00    -0.275 OA
ATOM     29  H   UNL     1      10.146  -4.870   0.660  0.00  0.00    +0.149 HD
BRANCH  26  31
ATOM     30  C   UNL     1      12.972  -3.961  -0.451  0.00  0.00    +0.033 C 
ATOM     31  C   UNL     1      12.229  -4.479   0.782  0.00  0.00    +0.052 C 
ATOM     32  C   UNL     1      12.799  -3.815   2.037  0.00  0.00    +0.033 C 
BRANCH  31  33
ATOM     33  C   UNL     1      12.404  -5.995   0.883  0.00  0.00    +0.181 C 
BRANCH  33  34
ATOM     34  O   UNL     1      13.793  -6.309   0.997  0.00  0.00    -0.393 OA
ATOM     35  H   UNL     1      13.979  -7.255   1.065  0.00  0.00    +0.209 HD
ENDBRANCH  33  34
ENDBRANCH  31  33
ENDBRANCH  26  31
ENDBRANCH  20  27
ENDBRANCH   1  24
TORSDOF 6
