REMARK  Name = ZINC13636575
REMARK  7 active torsions:
REMARK  status: ('A' for Active; 'I' for Inactive)
REMARK    1  A    between atoms: C_4  and  C_7
REMARK    2  A    between atoms: C_7  and  C_8
REMARK    3  A    between atoms: C_8  and  N_9
REMARK    4  A    between atoms: N_9  and  S_10
REMARK    5  A    between atoms: S_10  and  C_13
REMARK    6  A    between atoms: C_26  and  C_29
REMARK    7  A    between atoms: C_32  and  O_35
REMARK                            x       y       z     vdW  Elec       q    Type
REMARK                         _______ _______ _______ _____ _____    ______ ____
ROOT
ATOM      1  C   UNL     1      -0.982   3.850   0.283  0.00  0.00    +0.106 A 
ATOM      2  C   UNL     1      -1.165   2.481   0.209  0.00  0.00    +0.030 A 
ATOM      3  C   UNL     1      -0.076   1.639   0.126  0.00  0.00    +0.025 A 
ATOM      4  C   UNL     1       1.213   2.159   0.099  0.00  0.00    +0.031 A 
ATOM      5  C   UNL     1       1.390   3.546   0.160  0.00  0.00    -0.018 A 
ATOM      6  C   UNL     1       0.296   4.378   0.257  0.00  0.00    +0.034 A 
ATOM      7  C   UNL     1       2.776   4.060   0.106  0.00  0.00    +0.049 C 
ATOM      8  C   UNL     1       3.154   5.364   0.709  0.00  0.00    -0.023 C 
ATOM      9  C   UNL     1       4.411   5.290   1.127  0.00  0.00    -0.030 C 
ATOM     10  C   UNL     1       4.970   3.891   0.859  0.00  0.00    +0.033 C 
ATOM     11  C   UNL     1       3.691   3.043   0.853  0.00  0.00    +0.029 C 
ATOM     12  C   UNL     1       3.692   1.792  -0.007  0.00  0.00    +0.105 C 
ATOM     13  N   UNL     1       2.303   1.284   0.027  0.00  0.00    -0.336 N 
ATOM     14  H   UNL     1       2.146   0.327  -0.000  0.00  0.00    +0.147 HD
ENDROOT
BRANCH  12  15
ATOM     15  C   UNL     1       4.087   2.133  -1.421  0.00  0.00    -0.027 A 
ATOM     16  C   UNL     1       3.116   2.464  -2.348  0.00  0.00    +0.009 A 
ATOM     17  C   UNL     1       3.476   2.782  -3.643  0.00  0.00    +0.046 A 
ATOM     18  C   UNL     1       4.812   2.758  -4.017  0.00  0.00    +0.117 A 
ATOM     19  C   UNL     1       5.784   2.420  -3.086  0.00  0.00    +0.046 A 
ATOM     20  C   UNL     1       5.419   2.109  -1.790  0.00  0.00    +0.009 A 
BRANCH  18  21
ATOM     21  O   UNL     1       5.168   3.064  -5.292  0.00  0.00    -0.507 OA
ATOM     22  H   UNL     1       5.193   2.303  -5.887  0.00  0.00    +0.292 HD
ENDBRANCH  18  21
ENDBRANCH  12  15
BRANCH   1  23
ATOM     23  S   UNL     1      -2.376   4.921   0.403  0.00  0.00    +0.058 S 
ATOM     24  O   UNL     1      -3.433   4.151   0.959  0.00  0.00    -0.153 OA
ATOM     25  O   UNL     1      -1.913   6.123   1.002  0.00  0.00    -0.153 OA
BRANCH  23  26
ATOM     26  N   UNL     1      -2.832   5.306  -1.141  0.00  0.00    -0.190 NA
ATOM     27  H   UNL     1      -2.765   6.223  -1.452  0.00  0.00    +0.148 HD
BRANCH  26  28
ATOM     28  C   UNL     1      -3.337   4.264  -2.038  0.00  0.00    +0.110 C 
BRANCH  28  29
ATOM     29  C   UNL     1      -4.026   4.914  -3.239  0.00  0.00    +0.052 C 
BRANCH  29  33
ATOM     30  C   UNL     1      -5.499   1.874  -5.854  0.00  0.00    +0.000 A 
ATOM     31  C   UNL     1      -6.300   2.359  -4.837  0.00  0.00    +0.000 A 
ATOM     32  C   UNL     1      -5.824   3.343  -3.991  0.00  0.00    +0.003 A 
ATOM     33  C   UNL     1      -4.546   3.841  -4.161  0.00  0.00    -0.046 A 
ATOM     34  C   UNL     1      -3.746   3.360  -5.181  0.00  0.00    +0.003 A 
ATOM     35  C   UNL     1      -4.221   2.372  -6.024  0.00  0.00    +0.000 A 
ENDBRANCH  29  33
ENDBRANCH  28  29
ENDBRANCH  26  28
ENDBRANCH  23  26
ENDBRANCH   1  23
TORSDOF 7
