REMARK  Name = ZINC26836512
REMARK  9 active torsions:
REMARK  status: ('A' for Active; 'I' for Inactive)
REMARK    1  A    between atoms: C_1  and  C_2
REMARK    2  A    between atoms: C_2  and  C_3
REMARK    3  A    between atoms: C_3  and  C_4
REMARK    4  A    between atoms: C_4  and  S_5
REMARK    5  A    between atoms: S_5  and  C_6
REMARK    6  A    between atoms: C_13  and  C_16
REMARK    7  A    between atoms: N_14  and  C_15
REMARK    8  A    between atoms: C_19  and  C_22
REMARK    9  A    between atoms: N_23  and  N_24
REMARK                            x       y       z     vdW  Elec       q    Type
REMARK                         _______ _______ _______ _____ _____    ______ ____
ROOT
ATOM      1  C   UNL     1       0.209  -9.607  -0.084  0.00  0.00    -0.000 A 
ATOM      2  C   UNL     1       0.525 -10.873  -0.577  0.00  0.00    +0.010 A 
ATOM      3  C   UNL     1       0.169 -11.998   0.132  0.00  0.00    +0.010 A 
ATOM      4  C   UNL     1      -0.510 -11.871   1.348  0.00  0.00    -0.005 A 
ATOM      5  C   UNL     1      -0.825 -10.601   1.841  0.00  0.00    +0.010 A 
ATOM      6  C   UNL     1      -0.463  -9.478   1.132  0.00  0.00    +0.010 A 
ENDROOT
BRANCH   1  14
ATOM      7  C   UNL     1       1.718  -4.411  -2.617  0.00  0.00    +0.024 A 
ATOM      8  C   UNL     1       1.786  -5.188  -3.791  0.00  0.00    +0.020 A 
ATOM      9  C   UNL     1       1.512  -6.518  -3.735  0.00  0.00    +0.046 A 
ATOM     10  C   UNL     1       1.163  -7.103  -2.501  0.00  0.00    +0.118 A 
ATOM     11  N   UNL     1       1.103  -6.327  -1.373  0.00  0.00    -0.306 N 
ATOM     12  C   UNL     1       1.385  -4.990  -1.437  0.00  0.00    +0.107 A 
ATOM     13  C   UNL     1       0.745  -7.142  -0.338  0.00  0.00    +0.119 A 
ATOM     14  C   UNL     1       0.594  -8.397  -0.850  0.00  0.00    +0.067 A 
ATOM     15  N   UNL     1       0.853  -8.348  -2.166  0.00  0.00    -0.328 N 
ATOM     16  C   UNL     1       0.800  -9.488  -3.085  0.00  0.00    +0.151 C 
BRANCH   7  17
ATOM     17  S   UNL     1       2.072  -2.687  -2.682  0.00  0.00    -0.124 S 
BRANCH  17  18
ATOM     18  C   UNL     1       1.866  -2.131  -0.967  0.00  0.00    +0.074 C 
BRANCH  18  19
ATOM     19  C   UNL     1       2.148  -0.630  -0.880  0.00  0.00    +0.011 C 
BRANCH  19  21
ATOM     20  C   UNL     1       2.256   1.339   0.654  0.00  0.00    +0.004 C 
ATOM     21  C   UNL     1       1.974  -0.162   0.566  0.00  0.00    -0.003 C 
ENDBRANCH  19  21
ENDBRANCH  18  19
ENDBRANCH  17  18
ENDBRANCH   7  17
ENDBRANCH   1  14
BRANCH   4  22
ATOM     22  C   UNL     1      -0.892 -13.073   2.108  0.00  0.00    +0.138 C 
ATOM     23  N   UNL     1      -1.522 -12.955   3.237  0.00  0.00    -0.188 NA
BRANCH  23  24
ATOM     24  N   UNL     1      -1.886 -14.098   3.960  0.00  0.00    -0.210 N 
ATOM     25  C   UNL     1      -2.554 -13.972   5.157  0.00  0.00    +0.174 C 
ATOM     26  N   UNL     1      -2.848 -12.789   5.618  0.00  0.00    -0.374 N 
ATOM     27  N   UNL     1      -2.912 -15.095   5.867  0.00  0.00    -0.304 N 
ATOM     28  C   UNL     1      -2.638 -16.484   5.468  0.00  0.00    +0.108 C 
ATOM     29  C   UNL     1      -3.243 -17.399   6.553  0.00  0.00    +0.020 C 
ATOM     30  C   UNL     1      -4.316 -16.493   7.213  0.00  0.00    +0.020 C 
ATOM     31  C   UNL     1      -3.626 -15.105   7.156  0.00  0.00    +0.108 C 
ATOM     32  H   UNL     1      -1.667 -14.979   3.617  0.00  0.00    +0.177 HD
ATOM     33  H   UNL     1      -3.319 -12.700   6.461  0.00  0.00    +0.158 HD
ATOM     34  H   UNL     1      -2.596 -11.997   5.117  0.00  0.00    +0.158 HD
ENDBRANCH  23  24
ENDBRANCH   4  22
TORSDOF 7
