REMARK  Name = ZINC32936857
REMARK  13 active torsions:
REMARK  status: ('A' for Active; 'I' for Inactive)
REMARK    1  A    between atoms: C_1  and  C_2
REMARK    2  A    between atoms: C_2  and  O_3
REMARK    3  A    between atoms: O_3  and  C_4
REMARK    4  A    between atoms: C_4  and  C_6
REMARK    5  A    between atoms: C_7  and  C_22
REMARK    6  A    between atoms: C_12  and  C_14
REMARK    7  A    between atoms: C_17  and  O_20
REMARK    8  A    between atoms: O_20  and  C_21
REMARK    9  A    between atoms: C_22  and  N_23
REMARK   10  A    between atoms: N_23  and  C_24
REMARK   11  A    between atoms: N_23  and  C_32
REMARK   12  A    between atoms: C_24  and  C_25
REMARK   13  A    between atoms: C_28  and  O_31
REMARK                            x       y       z     vdW  Elec       q    Type
REMARK                         _______ _______ _______ _____ _____    ______ ____
ROOT
ATOM      1  C   UNL     1      -5.447   1.023   3.308  0.00  0.00    +0.076 C 
ATOM      2  C   UNL     1      -4.500   0.155   2.893  0.00  0.00    +0.008 C 
ATOM      3  N   UNL     1      -3.845  -0.650   3.781  0.00  0.00    -0.274 N 
ATOM      4  C   UNL     1      -4.071  -0.639   5.100  0.00  0.00    +0.304 C 
ATOM      5  O   UNL     1      -3.433  -1.390   5.812  0.00  0.00    -0.252 OA
ATOM      6  N   UNL     1      -4.986   0.173   5.664  0.00  0.00    -0.288 N 
ATOM      7  C   UNL     1      -5.753   1.078   4.791  0.00  0.00    +0.143 C 
ATOM      8  H   UNL     1      -3.083  -1.358   3.422  0.00  0.00    +0.156 HD
ATOM      9  H   UNL     1      -5.168   0.171   6.749  0.00  0.00    +0.151 HD
ENDROOT
BRANCH   7  10
ATOM     10  C   UNL     1      -7.217   0.770   4.976  0.00  0.00    -0.022 A 
ATOM     11  C   UNL     1      -7.656  -0.540   4.943  0.00  0.00    +0.009 A 
ATOM     12  C   UNL     1      -8.996  -0.826   5.118  0.00  0.00    +0.046 A 
ATOM     13  C   UNL     1      -9.904   0.205   5.314  0.00  0.00    +0.120 A 
ATOM     14  C   UNL     1      -9.461   1.520   5.340  0.00  0.00    +0.046 A 
ATOM     15  C   UNL     1      -8.119   1.799   5.171  0.00  0.00    +0.009 A 
BRANCH  13  16
ATOM     16  O   UNL     1     -11.224  -0.072   5.479  0.00  0.00    -0.495 OA
ATOM     17  C   UNL     1     -11.607  -1.448   5.440  0.00  0.00    +0.277 C 
ENDBRANCH  13  16
ENDBRANCH   7  10
BRANCH   1  18
ATOM     18  C   UNL     1      -6.131   1.853   2.389  0.00  0.00    +0.339 C 
ATOM     19  O   UNL     1      -5.784   3.010   2.240  0.00  0.00    -0.245 OA
BRANCH  18  20
ATOM     20  O   UNL     1      -7.168   1.363   1.679  0.00  0.00    -0.462 OA
BRANCH  20  22
ATOM     21  C   UNL     1      -8.955   1.528   0.060  0.00  0.00    +0.048 C 
ATOM     22  C   UNL     1      -7.812   2.258   0.769  0.00  0.00    +0.229 C 
ENDBRANCH  20  22
ENDBRANCH  18  20
ENDBRANCH   1  18
BRANCH   2  23
ATOM     23  C   UNL     1      -4.165   0.068   1.427  0.00  0.00    -0.026 C 
BRANCH  23  24
ATOM     24  N   UNL     1      -2.801   0.567   1.205  0.00  0.00    +0.388 N 
ATOM     25  H   UNL     1      -2.724   1.559   1.673  0.00  0.00    -0.080 HD
BRANCH  24  26
ATOM     26  C   UNL     1      -1.810  -0.311   1.843  0.00  0.00    -0.068 C 
ATOM     27  C   UNL     1      -1.119   0.205   3.107  0.00  0.00    -0.017 C 
ATOM     28  C   UNL     1      -0.344   0.124   1.789  0.00  0.00    -0.017 C 
ENDBRANCH  24  26
BRANCH  24  29
ATOM     29  C   UNL     1      -2.523   0.721  -0.229  0.00  0.00    -0.042 C 
BRANCH  29  30
ATOM     30  C   UNL     1      -3.203   1.964  -0.742  0.00  0.00    -0.064 A 
ATOM     31  C   UNL     1      -2.586   3.194  -0.604  0.00  0.00    +0.005 A 
ATOM     32  C   UNL     1      -3.205   4.335  -1.078  0.00  0.00    +0.045 A 
ATOM     33  C   UNL     1      -4.448   4.246  -1.688  0.00  0.00    +0.117 A 
ATOM     34  C   UNL     1      -5.066   3.012  -1.820  0.00  0.00    +0.045 A 
ATOM     35  C   UNL     1      -4.444   1.874  -1.344  0.00  0.00    +0.005 A 
BRANCH  33  36
ATOM     36  O   UNL     1      -5.058   5.367  -2.155  0.00  0.00    -0.507 OA
ATOM     37  H   UNL     1      -6.044   5.296  -2.638  0.00  0.00    +0.292 HD
ENDBRANCH  33  36
ENDBRANCH  29  30
ENDBRANCH  24  29
ENDBRANCH  23  24
ENDBRANCH   2  23
TORSDOF 11
