REMARK  Name = ZINC39920313
REMARK  6 active torsions:
REMARK  status: ('A' for Active; 'I' for Inactive)
REMARK    1  A    between atoms: C_3  and  O_32
REMARK    2  A    between atoms: C_6  and  C_7
REMARK    3  A    between atoms: N_18  and  N_19
REMARK    4  A    between atoms: C_20  and  C_22
REMARK    5  A    between atoms: C_22  and  O_23
REMARK    6  A    between atoms: O_23  and  C_24
REMARK                            x       y       z     vdW  Elec       q    Type
REMARK                         _______ _______ _______ _____ _____    ______ ____
ROOT
ATOM      1  C   UNL     1      -1.293  -0.774   0.011  0.00  0.00    +0.212 C 
ATOM      2  N   UNL     1      -2.333   0.016  -0.660  0.00  0.00    -0.320 N 
ATOM      3  C   UNL     1      -2.317   0.092  -2.049  0.00  0.00    +0.041 A 
ATOM      4  C   UNL     1      -2.797   1.198  -2.728  0.00  0.00    +0.025 A 
ATOM      5  C   UNL     1      -2.755   1.224  -4.109  0.00  0.00    +0.022 A 
ATOM      6  C   UNL     1      -2.235   0.152  -4.819  0.00  0.00    +0.042 A 
ATOM      7  C   UNL     1      -1.753  -0.959  -4.157  0.00  0.00    +0.035 A 
ATOM      8  C   UNL     1      -1.792  -0.999  -2.765  0.00  0.00    +0.061 A 
ATOM      9  C   UNL     1      -1.299  -2.163  -2.008  0.00  0.00    +0.267 C 
ATOM     10  O   UNL     1      -1.071  -3.214  -2.576  0.00  0.00    -0.268 OA
ATOM     11  N   UNL     1      -1.104  -2.049  -0.681  0.00  0.00    -0.191 N 
ATOM     12 CL   UNL     1      -2.191   0.208  -6.554  0.00  0.00    -0.084 Cl
ATOM     13  H   UNL     1      -3.016   0.475  -0.147  0.00  0.00    +0.148 HD
ENDROOT
BRANCH   1  19
ATOM     14  C   UNL     1      -0.017   1.378   0.010  0.00  0.00    +0.011 A 
ATOM     15  C   UNL     1       1.169   2.087   0.002  0.00  0.00    +0.046 A 
ATOM     16  C   UNL     1       2.380   1.409  -0.013  0.00  0.00    +0.117 A 
ATOM     17  C   UNL     1       2.396   0.022  -0.021  0.00  0.00    +0.046 A 
ATOM     18  C   UNL     1       1.207  -0.681  -0.013  0.00  0.00    +0.011 A 
ATOM     19  C   UNL     1       0.002  -0.004   0.002  0.00  0.00    -0.008 A 
BRANCH  16  20
ATOM     20  O   UNL     1       3.548   2.104  -0.021  0.00  0.00    -0.507 OA
ATOM     21  H   UNL     1       3.895   2.300   0.860  0.00  0.00    +0.292 HD
ENDBRANCH  16  20
ENDBRANCH   1  19
BRANCH  11  22
ATOM     22  N   UNL     1      -0.709  -3.176   0.051  0.00  0.00    -0.227 N 
ATOM     23  C   UNL     1      -1.604  -4.144   0.332  0.00  0.00    +0.267 C 
ATOM     24  O   UNL     1      -2.751  -4.038  -0.048  0.00  0.00    -0.271 OA
ATOM     25  H   UNL     1       0.208  -3.261   0.355  0.00  0.00    +0.173 HD
BRANCH  23  26
ATOM     26  C   UNL     1      -1.180  -5.357   1.120  0.00  0.00    +0.326 C 
BRANCH  26  27
ATOM     27  O   UNL     1      -2.298  -6.231   1.287  0.00  0.00    -0.483 OA
BRANCH  27  28
ATOM     28  C   UNL     1      -2.084  -7.380   1.980  0.00  0.00    +0.121 A 
ATOM     29  C   UNL     1      -0.826  -7.658   2.493  0.00  0.00    +0.047 A 
ATOM     30  C   UNL     1      -0.610  -8.827   3.198  0.00  0.00    +0.019 A 
ATOM     31  C   UNL     1      -1.649  -9.720   3.391  0.00  0.00    +0.018 A 
ATOM     32  C   UNL     1      -2.905  -9.445   2.880  0.00  0.00    +0.019 A 
ATOM     33  C   UNL     1      -3.126  -8.275   2.180  0.00  0.00    +0.047 A 
ATOM     34 BR   UNL     1      -1.351 -11.319   4.356  0.00  0.00    -0.050 Br
ENDBRANCH  27  28
ENDBRANCH  26  27
ENDBRANCH  23  26
ENDBRANCH  11  22
TORSDOF 6
