REMARK  Name = ZINC00725253
REMARK  8 active torsions:
REMARK  status: ('A' for Active; 'I' for Inactive)
REMARK    1  A    between atoms: C_1  and  C_2
REMARK    2  A    between atoms: C_5  and  C_8
REMARK    3  A    between atoms: C_8  and  C_25
REMARK    4  A    between atoms: C_10  and  C_12
REMARK    5  A    between atoms: N_14  and  C_15
REMARK    6  A    between atoms: C_17  and  N_22
REMARK    7  A    between atoms: C_20  and  C_21
REMARK    8  A    between atoms: C_28  and  C_31
REMARK                            x       y       z     vdW  Elec       q    Type
REMARK                         _______ _______ _______ _____ _____    ______ ____
ROOT
ATOM      1  C   UNL     1      -1.379   6.350  -0.163  0.00  0.00    +0.032 C 
ATOM      2  C   UNL     1      -0.701   6.596   1.186  0.00  0.00    +0.031 C 
ATOM      3  C   UNL     1       0.047   5.852   0.078  0.00  0.00    +0.091 C 
ENDROOT
BRANCH   1   8
ATOM      4  C   UNL     1      -2.063  10.890  -3.672  0.00  0.00    +0.044 C 
ATOM      5  C   UNL     1      -1.885   9.706  -2.757  0.00  0.00    -0.050 A 
ATOM      6  C   UNL     1      -2.969   9.195  -2.069  0.00  0.00    +0.003 A 
ATOM      7  C   UNL     1      -2.806   8.109  -1.230  0.00  0.00    +0.005 A 
ATOM      8  C   UNL     1      -1.558   7.534  -1.078  0.00  0.00    -0.036 A 
ATOM      9  C   UNL     1      -0.472   8.048  -1.762  0.00  0.00    +0.005 A 
ATOM     10  C   UNL     1      -0.637   9.131  -2.606  0.00  0.00    +0.003 A 
ENDBRANCH   1   8
BRANCH   1  11
ATOM     11  C   UNL     1      -2.478   5.319  -0.211  0.00  0.00    -0.036 A 
ATOM     12  C   UNL     1      -2.423   4.294  -1.137  0.00  0.00    +0.005 A 
ATOM     13  C   UNL     1      -3.428   3.346  -1.178  0.00  0.00    +0.003 A 
ATOM     14  C   UNL     1      -4.493   3.429  -0.300  0.00  0.00    -0.050 A 
ATOM     15  C   UNL     1      -4.550   4.456   0.622  0.00  0.00    +0.003 A 
ATOM     16  C   UNL     1      -3.542   5.402   0.667  0.00  0.00    +0.005 A 
ATOM     17  C   UNL     1      -5.591   2.398  -0.350  0.00  0.00    +0.044 C 
ENDBRANCH   1  11
BRANCH   3  18
ATOM     18  C   UNL     1       0.246   4.368   0.249  0.00  0.00    +0.222 C 
ATOM     19  O   UNL     1      -0.477   3.741   0.993  0.00  0.00    -0.275 OA
ATOM     20  N   UNL     1       1.228   3.738  -0.426  0.00  0.00    -0.285 N 
ATOM     21  H   UNL     1       1.851   4.249  -0.966  0.00  0.00    +0.155 HD
BRANCH  20  22
ATOM     22  C   UNL     1       1.350   2.346  -0.346  0.00  0.00    +0.038 A 
ATOM     23  C   UNL     1       0.299   1.583   0.145  0.00  0.00    +0.056 A 
ATOM     24  C   UNL     1       0.423   0.209   0.222  0.00  0.00    +0.128 A 
ATOM     25  C   UNL     1       1.591  -0.406  -0.190  0.00  0.00    +0.033 A 
ATOM     26  C   UNL     1       2.639   0.352  -0.679  0.00  0.00    +0.007 A 
ATOM     27  C   UNL     1       2.522   1.726  -0.758  0.00  0.00    -0.029 A 
ATOM     28  C   UNL     1       3.665   2.551  -1.292  0.00  0.00    +0.045 C 
BRANCH  24  29
ATOM     29  N   UNL     1      -0.697  -0.606   0.746  0.00  0.00    +0.056 N 
ATOM     30  O   UNL     1      -1.726  -0.065   1.108  0.00  0.00    -0.126 OA
ATOM     31  O   UNL     1      -0.588  -1.817   0.814  0.00  0.00    -0.126 OA
ENDBRANCH  24  29
ENDBRANCH  20  22
ENDBRANCH   3  18
TORSDOF 5
