REMARK  Name = ZINC08783207
REMARK  4 active torsions:
REMARK  status: ('A' for Active; 'I' for Inactive)
REMARK    1  A    between atoms: C_5  and  C_7
REMARK    2  A    between atoms: C_15  and  N_28
REMARK    3  A    between atoms: C_16  and  C_26
REMARK    4  A    between atoms: C_17  and  C_19
REMARK                            x       y       z     vdW  Elec       q    Type
REMARK                         _______ _______ _______ _____ _____    ______ ____
ROOT
ATOM      1  C   UNL     1       2.414   3.942   0.000  0.00  0.00    +0.018 C 
ATOM      2  C   UNL     1       2.389   5.283  -0.094  0.00  0.00    -0.004 C 
ATOM      3  C   UNL     1       1.078   6.038  -0.087  0.00  0.00    +0.039 C 
ATOM      4  C   UNL     1       1.188   7.142  -1.145  0.00  0.00    +0.009 C 
ATOM      5  C   UNL     1       2.316   8.091  -0.753  0.00  0.00    +0.036 C 
ATOM      6  C   UNL     1       3.610   7.352  -0.527  0.00  0.00    -0.014 C 
ATOM      7  C   UNL     1       3.640   6.058  -0.214  0.00  0.00    +0.133 C 
ATOM      8  O   UNL     1       4.811   5.406   0.005  0.00  0.00    -0.441 OA
ATOM      9  C   UNL     1       5.917   6.097   0.330  0.00  0.00    +0.199 C 
ATOM     10  C   UNL     1       6.020   7.418   0.035  0.00  0.00    +0.098 C 
ATOM     11  C   UNL     1       4.897   8.134  -0.658  0.00  0.00    +0.097 C 
ENDROOT
BRANCH   1  16
ATOM     12  C   UNL     1      -0.951   3.047   1.397  0.00  0.00    +0.001 A 
ATOM     13  C   UNL     1      -1.164   1.809   0.816  0.00  0.00    +0.003 A 
ATOM     14  C   UNL     1      -0.212   1.258  -0.023  0.00  0.00    +0.039 A 
ATOM     15  C   UNL     1       0.955   1.946  -0.296  0.00  0.00    +0.131 A 
ATOM     16  C   UNL     1       1.173   3.201   0.284  0.00  0.00    +0.011 A 
ATOM     17  C   UNL     1       0.208   3.747   1.135  0.00  0.00    +0.011 A 
ATOM     18  F   UNL     1       1.882   1.409  -1.119  0.00  0.00    -0.205 F 
ENDBRANCH   1  16
BRANCH  11  19
ATOM     19  C   UNL     1       5.234   8.291  -2.119  0.00  0.00    +0.000 A 
ATOM     20  C   UNL     1       5.454   7.173  -2.902  0.00  0.00    +0.007 A 
ATOM     21  C   UNL     1       5.762   7.317  -4.242  0.00  0.00    +0.000 A 
ATOM     22  C   UNL     1       5.850   8.579  -4.801  0.00  0.00    +0.003 A 
ATOM     23  C   UNL     1       5.631   9.697  -4.020  0.00  0.00    +0.038 A 
ATOM     24  C   UNL     1       5.317   9.555  -2.679  0.00  0.00    +0.127 A 
ATOM     25  F   UNL     1       5.097  10.648  -1.916  0.00  0.00    -0.205 F 
ENDBRANCH  11  19
BRANCH   9  26
ATOM     26  N   UNL     1       6.954   5.460   0.966  0.00  0.00    -0.328 N 
ATOM     27  H   UNL     1       6.886   4.517   1.179  0.00  0.00    +0.145 HD
ATOM     28  H   UNL     1       7.754   5.954   1.202  0.00  0.00    +0.145 HD
ENDBRANCH   9  26
BRANCH  10  29
ATOM     29  C   UNL     1       7.208   8.134   0.389  0.00  0.00    +0.101 C 
ATOM     30  N   UNL     1       8.151   8.702   0.670  0.00  0.00    -0.191 NA
ENDBRANCH  10  29
TORSDOF 4
