REMARK  Name = ZINC63383740
REMARK  6 active torsions:
REMARK  status: ('A' for Active; 'I' for Inactive)
REMARK    1  A    between atoms: C_1  and  O_2
REMARK    2  A    between atoms: O_2  and  C_3
REMARK    3  A    between atoms: C_3  and  C_4
REMARK    4  A    between atoms: C_4  and  N_5
REMARK    5  A    between atoms: C_10  and  C_28
REMARK    6  A    between atoms: C_28  and  C_29
REMARK                            x       y       z     vdW  Elec       q    Type
REMARK                         _______ _______ _______ _____ _____    ______ ____
ROOT
ATOM      1  N   UNL     1       1.401  -2.532  -0.162  0.00  0.00    -0.239 N 
ATOM      2  C   UNL     1       0.854  -2.664  -1.376  0.00  0.00    +0.227 C 
ATOM      3  O   UNL     1      -0.309  -2.459  -1.646  0.00  0.00    -0.275 OA
ATOM      4  C   UNL     1       1.914  -3.107  -2.358  0.00  0.00    +0.107 C 
ATOM      5  C   UNL     1       1.605  -4.544  -2.830  0.00  0.00    +0.072 C 
ATOM      6  N   UNL     1       2.243  -5.425  -1.817  0.00  0.00    -0.295 NA
ATOM      7  C   UNL     1       3.509  -4.742  -1.491  0.00  0.00    +0.136 C 
ATOM      8  C   UNL     1       3.191  -3.226  -1.480  0.00  0.00    +0.122 C 
ATOM      9  C   UNL     1       2.708  -2.812  -0.108  0.00  0.00    +0.228 C 
ATOM     10  O   UNL     1       3.398  -2.748   0.887  0.00  0.00    -0.275 OA
ATOM     11  C   UNL     1       4.585  -5.066  -2.488  0.00  0.00    +0.005 A 
ATOM     12  C   UNL     1       4.696  -4.900  -3.851  0.00  0.00    +0.008 A 
ATOM     13  C   UNL     1       5.842  -5.311  -4.508  0.00  0.00    +0.002 A 
ATOM     14  C   UNL     1       6.876  -5.888  -3.793  0.00  0.00    +0.022 A 
ATOM     15  C   UNL     1       6.769  -6.057  -2.427  0.00  0.00    +0.062 A 
ATOM     16  C   UNL     1       5.617  -5.647  -1.758  0.00  0.00    +0.057 A 
ATOM     17  N   UNL     1       5.277  -5.709  -0.405  0.00  0.00    -0.282 N 
ATOM     18  C   UNL     1       4.053  -5.198  -0.165  0.00  0.00    +0.243 C 
ATOM     19  O   UNL     1       3.499  -5.121   0.911  0.00  0.00    -0.273 OA
ATOM     20 CL   UNL     1       8.073  -6.784  -1.541  0.00  0.00    -0.082 Cl
ATOM     21  H   UNL     1       1.661  -5.516  -0.999  0.00  0.00    +0.124 HD
ATOM     22  H   UNL     1       5.854  -6.077   0.282  0.00  0.00    +0.155 HD
ENDROOT
BRANCH   1  23
ATOM     23  C   UNL     1       0.633  -2.108   1.011  0.00  0.00    +0.144 C 
BRANCH  23  24
ATOM     24  C   UNL     1       0.673  -0.582   1.123  0.00  0.00    +0.179 C 
BRANCH  24  26
ATOM     25  C   UNL     1      -0.017   1.425   0.010  0.00  0.00    +0.194 C 
ATOM     26  O   UNL     1       0.002  -0.004   0.002  0.00  0.00    -0.381 OA
ENDBRANCH  24  26
ENDBRANCH  23  24
ENDBRANCH   1  23
BRANCH   5  27
ATOM     27  C   UNL     1       0.093  -4.778  -2.866  0.00  0.00    +0.052 C 
BRANCH  27  28
ATOM     28  C   UNL     1      -0.191  -6.140  -3.444  0.00  0.00    -0.040 C 
ATOM     29  C   UNL     1      -0.398  -7.288  -2.759  0.00  0.00    -0.001 A 
ATOM     30  C   UNL     1      -0.420  -7.599  -1.325  0.00  0.00    +0.010 A 
ATOM     31  C   UNL     1      -0.660  -8.871  -0.934  0.00  0.00    +0.001 A 
ATOM     32  C   UNL     1      -0.887  -9.898  -1.861  0.00  0.00    +0.002 A 
ATOM     33  C   UNL     1      -0.882  -9.689  -3.195  0.00  0.00    +0.026 A 
ATOM     34  C   UNL     1      -0.642  -8.389  -3.718  0.00  0.00    +0.043 A 
ATOM     35  N   UNL     1      -0.587  -7.939  -4.949  0.00  0.00    -0.380 N 
ATOM     36  C   UNL     1      -0.308  -6.500  -4.909  0.00  0.00    +0.144 C 
ATOM     37  H   UNL     1      -0.713  -8.470  -5.751  0.00  0.00    +0.160 HD
ENDBRANCH  27  28
ENDBRANCH   5  27
TORSDOF 5
