REMARK  Name = ZINC25488890
REMARK  8 active torsions:
REMARK  status: ('A' for Active; 'I' for Inactive)
REMARK    1  A    between atoms: C_1  and  C_2
REMARK    2  A    between atoms: C_2  and  C_3
REMARK    3  A    between atoms: C_2  and  C_4
REMARK    4  A    between atoms: C_2  and  O_21
REMARK    5  A    between atoms: N_6  and  N_7
REMARK    6  A    between atoms: C_8  and  C_10
REMARK    7  A    between atoms: C_10  and  C_11
REMARK    8  A    between atoms: O_21  and  C_22
REMARK                            x       y       z     vdW  Elec       q    Type
REMARK                         _______ _______ _______ _____ _____    ______ ____
ROOT
ATOM      1  C   UNL     1       2.405   5.524   0.045  0.00  0.00    +0.272 C 
ATOM      2  O   UNL     1       1.334   6.083   0.148  0.00  0.00    -0.270 OA
ATOM      3  N   UNL     1       3.543   6.247   0.019  0.00  0.00    -0.231 N 
ATOM      4  H   UNL     1       4.514   5.740  -0.075  0.00  0.00    +0.173 HD
ENDROOT
BRANCH   3   5
ATOM      5  N   UNL     1       3.487   7.644   0.111  0.00  0.00    -0.234 N 
ATOM      6  C   UNL     1       4.624   8.367   0.085  0.00  0.00    +0.233 C 
ATOM      7  O   UNL     1       5.696   7.808  -0.018  0.00  0.00    -0.274 OA
ATOM      8  H   UNL     1       2.515   8.151   0.204  0.00  0.00    +0.173 HD
BRANCH   6   9
ATOM      9  C   UNL     1       4.564   9.870   0.184  0.00  0.00    +0.134 C 
BRANCH   9  10
ATOM     10  C   UNL     1       5.961  10.433   0.131  0.00  0.00    -0.014 A 
ATOM     11  C   UNL     1       6.732  10.756   1.181  0.00  0.00    +0.087 A 
ATOM     12  N   UNL     1       7.937  11.234   0.746  0.00  0.00    -0.360 N 
ATOM     13  H   UNL     1       8.702  11.544   1.474  0.00  0.00    +0.165 HD
ATOM     14  C   UNL     1       7.969  11.239  -0.631  0.00  0.00    +0.047 A 
ATOM     15  C   UNL     1       6.733  10.737  -1.076  0.00  0.00    +0.003 A 
ATOM     16  C   UNL     1       6.478  10.626  -2.444  0.00  0.00    +0.010 A 
ATOM     17  C   UNL     1       7.433  11.005  -3.345  0.00  0.00    +0.001 A 
ATOM     18  C   UNL     1       8.654  11.502  -2.911  0.00  0.00    +0.002 A 
ATOM     19  C   UNL     1       8.927  11.620  -1.565  0.00  0.00    +0.026 A 
ENDBRANCH   9  10
ENDBRANCH   6   9
ENDBRANCH   3   5
BRANCH   1  21
ATOM     20  C   UNL     1       3.284   3.466   1.113  0.00  0.00    +0.065 C 
ATOM     21  C   UNL     1       2.465   4.022  -0.054  0.00  0.00    +0.181 C 
ATOM     22  C   UNL     1       3.126   3.623  -1.375  0.00  0.00    +0.065 C 
BRANCH  21  23
ATOM     23  O   UNL     1       1.141   3.488  -0.004  0.00  0.00    -0.477 OA
BRANCH  23  24
ATOM     24  C   UNL     1       0.288   3.858  -0.996  0.00  0.00    +0.122 A 
ATOM     25  C   UNL     1      -0.974   3.287  -1.076  0.00  0.00    +0.047 A 
ATOM     26  C   UNL     1      -1.839   3.666  -2.084  0.00  0.00    +0.023 A 
ATOM     27  C   UNL     1      -1.447   4.613  -3.014  0.00  0.00    +0.041 A 
ATOM     28  C   UNL     1      -0.189   5.183  -2.936  0.00  0.00    +0.023 A 
ATOM     29  C   UNL     1       0.679   4.807  -1.929  0.00  0.00    +0.047 A 
ATOM     30 CL   UNL     1      -2.536   5.087  -4.280  0.00  0.00    -0.084 Cl
ENDBRANCH  23  24
ENDBRANCH  21  23
ENDBRANCH   1  21
TORSDOF 6
