REMARK  Name = ZINC10475115
REMARK  10 active torsions:
REMARK  status: ('A' for Active; 'I' for Inactive)
REMARK    1  A    between atoms: C_1  and  C_2
REMARK    2  A    between atoms: C_2  and  O_3
REMARK    3  A    between atoms: O_3  and  C_4
REMARK    4  A    between atoms: C_7  and  C_11
REMARK    5  A    between atoms: C_11  and  N_43
REMARK    6  A    between atoms: C_12  and  C_13
REMARK    7  A    between atoms: C_12  and  N_43
REMARK    8  A    between atoms: C_13  and  N_14
REMARK    9  A    between atoms: N_14  and  C_15
REMARK   10  A    between atoms: C_18  and  N_22
REMARK                            x       y       z     vdW  Elec       q    Type
REMARK                         _______ _______ _______ _____ _____    ______ ____
ROOT
ATOM      1  N   UNL     1       2.898   0.816  -1.415  0.00  0.00    +0.383 N 
ATOM      2  H   UNL     1       2.999   1.720  -1.891  0.00  0.00    -0.085 HD
ATOM      3  H   UNL     1       2.179   0.258  -1.891  0.00  0.00    -0.085 HD
ENDROOT
BRANCH   1   4
ATOM      4  C   UNL     1       2.490   1.045  -0.016  0.00  0.00    -0.047 C 
BRANCH   4   8
ATOM      5  C   UNL     1      -1.238   3.138   0.031  0.00  0.00    +0.157 A 
ATOM      6  C   UNL     1      -1.220   1.750   0.017  0.00  0.00    +0.084 A 
ATOM      7  C   UNL     1      -0.013   1.076   0.008  0.00  0.00    +0.025 A 
ATOM      8  C   UNL     1       1.176   1.783   0.000  0.00  0.00    -0.061 A 
ATOM      9  C   UNL     1       1.161   3.165   0.007  0.00  0.00    +0.025 A 
ATOM     10  C   UNL     1      -0.043   3.845   0.023  0.00  0.00    +0.084 A 
ATOM     11 CL   UNL     1      -0.061   5.581   0.032  0.00  0.00    -0.080 Cl
ATOM     12 CL   UNL     1      -2.711   0.862   0.019  0.00  0.00    -0.080 Cl
BRANCH   5  13
ATOM     13  O   UNL     1      -2.423   3.804   0.046  0.00  0.00    -0.489 OA
BRANCH  13  15
ATOM     14  C   UNL     1      -4.322   4.869  -1.003  0.00  0.00    +0.048 C 
ATOM     15  C   UNL     1      -3.001   4.128  -1.220  0.00  0.00    +0.226 C 
ENDBRANCH  13  15
ENDBRANCH   5  13
ENDBRANCH   4   8
ENDBRANCH   1   4
BRANCH   1  16
ATOM     16  C   UNL     1       4.183   0.094  -1.462  0.00  0.00    -0.063 C 
BRANCH  16  17
ATOM     17  C   UNL     1       4.580  -0.129  -2.922  0.00  0.00    +0.082 C 
BRANCH  17  18
ATOM     18  N   UNL     1       5.857  -0.846  -2.977  0.00  0.00    -0.345 N 
ATOM     19  H   UNL     1       6.307  -1.099  -2.156  0.00  0.00    +0.146 HD
BRANCH  18  20
ATOM     20  C   UNL     1       6.426  -1.166  -4.213  0.00  0.00    +0.046 A 
ATOM     21  C   UNL     1       5.783  -0.804  -5.390  0.00  0.00    +0.026 A 
ATOM     22  C   UNL     1       6.348  -1.122  -6.610  0.00  0.00    +0.034 A 
ATOM     23  C   UNL     1       7.553  -1.798  -6.660  0.00  0.00    +0.128 A 
ATOM     24  C   UNL     1       8.196  -2.160  -5.491  0.00  0.00    +0.054 A 
ATOM     25  C   UNL     1       7.640  -1.841  -4.267  0.00  0.00    +0.064 A 
ATOM     26 CL   UNL     1       8.452  -2.288  -2.800  0.00  0.00    -0.082 Cl
BRANCH  23  27
ATOM     27  N   UNL     1       8.155  -2.136  -7.970  0.00  0.00    +0.056 N 
ATOM     28  O   UNL     1       7.590  -1.818  -9.000  0.00  0.00    -0.126 OA
ATOM     29  O   UNL     1       9.216  -2.732  -8.016  0.00  0.00    -0.126 OA
ENDBRANCH  23  27
ENDBRANCH  18  20
ENDBRANCH  17  18
ENDBRANCH  16  17
ENDBRANCH   1  16
TORSDOF 9
