REMARK  Name = ZINC12804713
REMARK  10 active torsions:
REMARK  status: ('A' for Active; 'I' for Inactive)
REMARK    1  A    between atoms: C_1  and  C_2
REMARK    2  A    between atoms: C_7  and  C_8
REMARK    3  A    between atoms: N_10  and  C_11
REMARK    4  A    between atoms: C_11  and  C_12
REMARK    5  A    between atoms: C_12  and  C_14
REMARK    6  A    between atoms: C_12  and  N_67
REMARK    7  A    between atoms: C_17  and  O_20
REMARK    8  A    between atoms: O_20  and  C_21
REMARK    9  A    between atoms: C_28  and  C_32
REMARK   10  A    between atoms: C_28  and  C_33
REMARK                            x       y       z     vdW  Elec       q    Type
REMARK                         _______ _______ _______ _____ _____    ______ ____
ROOT
ATOM      1  C   UNL     1       1.850   2.942   1.318  0.00  0.00    +0.261 C 
ATOM      2  O   UNL     1       0.991   3.646   1.815  0.00  0.00    -0.269 OA
ATOM      3  N   UNL     1       1.512   1.772   0.740  0.00  0.00    -0.311 N 
ATOM      4  H   UNL     1       2.198   1.211   0.345  0.00  0.00    +0.149 HD
ENDROOT
BRANCH   1  11
ATOM      5  C   UNL     1       2.913   5.599   2.575  0.00  0.00    +0.047 C 
ATOM      6  C   UNL     1       3.727   4.527   1.897  0.00  0.00    -0.010 A 
ATOM      7  C   UNL     1       5.114   4.524   1.708  0.00  0.00    +0.042 A 
ATOM      8  C   UNL     1       5.447   3.351   1.032  0.00  0.00    +0.028 A 
ATOM      9  N   UNL     1       4.323   2.664   0.824  0.00  0.00    -0.354 N 
ATOM     10  H   UNL     1       4.264   1.807   0.375  0.00  0.00    +0.166 HD
ATOM     11  C   UNL     1       3.255   3.367   1.349  0.00  0.00    +0.106 A 
ATOM     12  C   UNL     1       6.862   3.004   0.641  0.00  0.00    +0.060 C 
ATOM     13  C   UNL     1       7.708   4.280   0.627  0.00  0.00    -0.023 C 
ATOM     14  C   UNL     1       7.576   5.033   1.954  0.00  0.00    +0.086 C 
ATOM     15  C   UNL     1       6.138   5.507   2.096  0.00  0.00    +0.166 C 
ATOM     16  O   UNL     1       5.855   6.616   2.500  0.00  0.00    -0.292 OA
ATOM     17  C   UNL     1       7.238   5.184  -0.514  0.00  0.00    +0.011 C 
ATOM     18  C   UNL     1       9.175   3.908   0.402  0.00  0.00    +0.011 C 
ENDBRANCH   1  11
BRANCH   3  19
ATOM     19  C   UNL     1       0.111   1.348   0.710  0.00  0.00    +0.094 C 
BRANCH  19  20
ATOM     20  C   UNL     1       0.002  -0.004   0.002  0.00  0.00    -0.020 C 
BRANCH  20  26
ATOM     21  C   UNL     1      -0.087   1.073  -2.164  0.00  0.00    -0.078 C 
ATOM     22  C   UNL     1       0.663   1.250  -3.486  0.00  0.00    -0.019 C 
ATOM     23  C   UNL     1       0.739  -0.098  -4.209  0.00  0.00    -0.004 C 
ATOM     24  C   UNL     1       1.431  -1.117  -3.299  0.00  0.00    -0.019 C 
ATOM     25  C   UNL     1       0.659  -1.225  -1.982  0.00  0.00    -0.078 C 
ATOM     26  N   UNL     1       0.643   0.099  -1.325  0.00  0.00    +0.385 N 
ATOM     27  H   UNL     1       1.610   0.423  -1.204  0.00  0.00    -0.081 HD
ENDBRANCH  20  26
BRANCH  20  28
ATOM     28  C   UNL     1      -1.450  -0.382  -0.139  0.00  0.00    -0.059 A 
ATOM     29  C   UNL     1      -2.351   0.524  -0.665  0.00  0.00    +0.005 A 
ATOM     30  C   UNL     1      -3.682   0.178  -0.801  0.00  0.00    +0.046 A 
ATOM     31  C   UNL     1      -4.115  -1.077  -0.397  0.00  0.00    +0.120 A 
ATOM     32  C   UNL     1      -3.210  -1.982   0.137  0.00  0.00    +0.046 A 
ATOM     33  C   UNL     1      -1.879  -1.633   0.264  0.00  0.00    +0.005 A 
BRANCH  31  34
ATOM     34  O   UNL     1      -5.425  -1.417  -0.523  0.00  0.00    -0.495 OA
ATOM     35  C   UNL     1      -6.300  -0.435  -1.080  0.00  0.00    +0.277 C 
ENDBRANCH  31  34
ENDBRANCH  20  28
ENDBRANCH  19  20
ENDBRANCH   3  19
TORSDOF 6
