REMARK  Name = ZINC64697846
REMARK  9 active torsions:
REMARK  status: ('A' for Active; 'I' for Inactive)
REMARK    1  A    between atoms: C_1  and  C_2
REMARK    2  A    between atoms: C_5  and  N_8
REMARK    3  A    between atoms: C_9  and  C_11
REMARK    4  A    between atoms: C_11  and  S_12
REMARK    5  A    between atoms: S_12  and  C_13
REMARK    6  A    between atoms: C_18  and  C_19
REMARK    7  A    between atoms: N_21  and  C_22
REMARK    8  A    between atoms: C_22  and  C_23
REMARK    9  A    between atoms: C_23  and  C_24
REMARK                            x       y       z     vdW  Elec       q    Type
REMARK                         _______ _______ _______ _____ _____    ______ ____
ROOT
ATOM      1  C   UNL     1       0.593  -8.709   2.636  0.00  0.00    +0.020 A 
ATOM      2  C   UNL     1       0.588  -9.279   1.368  0.00  0.00    +0.015 A 
ATOM      3  C   UNL     1       0.703 -10.646   1.225  0.00  0.00    +0.001 A 
ATOM      4  C   UNL     1       0.824 -11.461   2.340  0.00  0.00    +0.001 A 
ATOM      5  C   UNL     1       0.831 -10.915   3.604  0.00  0.00    +0.014 A 
ATOM      6  C   UNL     1       0.721  -9.531   3.767  0.00  0.00    +0.050 A 
ENDROOT
BRANCH   6   7
ATOM      7  C   UNL     1       0.734  -8.940   5.117  0.00  0.00    +0.245 C 
ATOM      8  O   UNL     1       0.633  -7.736   5.254  0.00  0.00    -0.270 OA
ATOM      9  N   UNL     1       0.857  -9.734   6.199  0.00  0.00    -0.311 N 
ATOM     10  H   UNL     1       0.938 -10.694   6.090  0.00  0.00    +0.149 HD
BRANCH   9  11
ATOM     11  C   UNL     1       0.870  -9.146   7.541  0.00  0.00    +0.109 C 
BRANCH  11  12
ATOM     12  C   UNL     1       1.020 -10.256   8.583  0.00  0.00    +0.052 C 
BRANCH  12  13
ATOM     13  C   UNL     1       1.032  -9.652   9.963  0.00  0.00    -0.040 C 
ATOM     14  C   UNL     1      -0.021  -9.512  10.800  0.00  0.00    -0.001 A 
ATOM     15  C   UNL     1      -1.440  -9.866  10.679  0.00  0.00    +0.010 A 
ATOM     16  C   UNL     1      -2.274  -9.595  11.708  0.00  0.00    +0.001 A 
ATOM     17  C   UNL     1      -1.818  -8.984  12.885  0.00  0.00    +0.002 A 
ATOM     18  C   UNL     1      -0.529  -8.629  13.070  0.00  0.00    +0.026 A 
ATOM     19  C   UNL     1       0.435  -8.868  12.052  0.00  0.00    +0.043 A 
ATOM     20  N   UNL     1       1.721  -8.620  11.993  0.00  0.00    -0.380 N 
ATOM     21  C   UNL     1       2.228  -9.084  10.696  0.00  0.00    +0.144 C 
ATOM     22  H   UNL     1       2.250  -8.203  12.691  0.00  0.00    +0.160 HD
ENDBRANCH  12  13
ENDBRANCH  11  12
ENDBRANCH   9  11
ENDBRANCH   6   7
BRANCH   1  23
ATOM     23  S   UNL     1       0.446  -6.963   2.823  0.00  0.00    -0.115 S 
BRANCH  23  24
ATOM     24  C   UNL     1       0.309  -6.349   1.121  0.00  0.00    +0.170 C 
BRANCH  24  26
ATOM     25  N   UNL     1       0.059  -4.170  -0.021  0.00  0.00    -0.285 N 
ATOM     26  C   UNL     1       0.175  -4.848   1.138  0.00  0.00    +0.227 C 
ATOM     27  O   UNL     1       0.173  -4.251   2.193  0.00  0.00    -0.275 OA
ATOM     28  H   UNL     1      -0.017  -4.651  -0.860  0.00  0.00    +0.155 HD
BRANCH  25  33
ATOM     29  C   UNL     1       0.008   1.503   0.007  0.00  0.00    +0.044 C 
ATOM     30  C   UNL     1       0.022  -0.004  -0.001  0.00  0.00    -0.050 A 
ATOM     31  C   UNL     1       0.777  -0.692   0.931  0.00  0.00    +0.005 A 
ATOM     32  C   UNL     1       0.791  -2.073   0.927  0.00  0.00    +0.023 A 
ATOM     33  C   UNL     1       0.046  -2.771  -0.014  0.00  0.00    +0.033 A 
ATOM     34  C   UNL     1      -0.712  -2.077  -0.948  0.00  0.00    +0.023 A 
ATOM     35  C   UNL     1      -0.726  -0.696  -0.936  0.00  0.00    +0.005 A 
ENDBRANCH  25  33
ENDBRANCH  24  26
ENDBRANCH  23  24
ENDBRANCH   1  23
TORSDOF 8
