REMARK  Name = ZINC39911587
REMARK  9 active torsions:
REMARK  status: ('A' for Active; 'I' for Inactive)
REMARK    1  A    between atoms: C_1  and  C_2
REMARK    2  A    between atoms: C_4  and  C_31
REMARK    3  A    between atoms: C_5  and  O_30
REMARK    4  A    between atoms: C_6  and  C_8
REMARK    5  A    between atoms: N_16  and  C_26
REMARK    6  A    between atoms: C_17  and  C_19
REMARK    7  A    between atoms: C_26  and  C_27
REMARK    8  A    between atoms: C_27  and  O_28
REMARK    9  A    between atoms: O_28  and  C_29
REMARK                            x       y       z     vdW  Elec       q    Type
REMARK                         _______ _______ _______ _____ _____    ______ ____
ROOT
ATOM      1  C   UNL     1      -0.236  -3.141   2.817  0.00  0.00    +0.102 A 
ATOM      2  C   UNL     1       0.018  -2.401   3.977  0.00  0.00    +0.035 A 
ATOM      3  C   UNL     1       0.077  -3.322   5.005  0.00  0.00    +0.126 A 
ATOM      4  N   UNL     1      -0.138  -4.544   4.433  0.00  0.00    -0.272 N 
ATOM      5  H   UNL     1      -0.154  -5.387   4.912  0.00  0.00    +0.189 HD
ATOM      6  N   UNL     1      -0.321  -4.409   3.168  0.00  0.00    -0.173 NA
ATOM      7  C   UNL     1       0.342  -2.606   6.258  0.00  0.00    +0.266 C 
ATOM      8  O   UNL     1       0.453  -3.133   7.349  0.00  0.00    -0.268 OA
ATOM      9  N   UNL     1       0.447  -1.284   6.029  0.00  0.00    -0.283 N 
ATOM     10  C   UNL     1       0.253  -1.049   4.593  0.00  0.00    +0.141 C 
ENDROOT
BRANCH   1  16
ATOM     11  C   UNL     1       1.352  -0.135  -0.839  0.00  0.00    +0.044 C 
ATOM     12  C   UNL     1       0.372  -1.153  -0.317  0.00  0.00    -0.049 A 
ATOM     13  C   UNL     1      -0.671  -1.581  -1.119  0.00  0.00    +0.010 A 
ATOM     14  C   UNL     1      -1.575  -2.514  -0.649  0.00  0.00    -0.008 A 
ATOM     15  C   UNL     1      -1.440  -3.027   0.632  0.00  0.00    +0.129 A 
ATOM     16  C   UNL     1      -0.388  -2.597   1.444  0.00  0.00    +0.044 A 
ATOM     17  C   UNL     1       0.521  -1.661   0.958  0.00  0.00    +0.017 A 
ATOM     18  C   UNL     1      -2.708  -2.975  -1.529  0.00  0.00    +0.047 C 
BRANCH  15  19
ATOM     19  O   UNL     1      -2.329  -3.945   1.095  0.00  0.00    -0.506 OA
ATOM     20  H   UNL     1      -2.078  -4.861   0.915  0.00  0.00    +0.292 HD
ENDBRANCH  15  19
ENDBRANCH   1  16
BRANCH  10  21
ATOM     21  C   UNL     1      -0.944  -0.162   4.369  0.00  0.00    -0.022 A 
ATOM     22  C   UNL     1      -2.104  -0.371   5.091  0.00  0.00    +0.007 A 
ATOM     23  C   UNL     1      -3.203   0.443   4.886  0.00  0.00    +0.015 A 
ATOM     24  C   UNL     1      -3.141   1.467   3.958  0.00  0.00    +0.018 A 
ATOM     25  C   UNL     1      -1.980   1.676   3.236  0.00  0.00    +0.015 A 
ATOM     26  C   UNL     1      -0.880   0.865   3.445  0.00  0.00    +0.007 A 
ATOM     27 BR   UNL     1      -4.643   2.580   3.677  0.00  0.00    -0.050 Br
ENDBRANCH  10  21
BRANCH   9  28
ATOM     28  C   UNL     1       0.708  -0.257   7.040  0.00  0.00    +0.137 C 
BRANCH  28  29
ATOM     29  C   UNL     1       2.218  -0.048   7.176  0.00  0.00    +0.178 C 
BRANCH  29  30
ATOM     30  O   UNL     1       2.737   0.482   5.955  0.00  0.00    -0.381 OA
ATOM     31  C   UNL     1       4.147   0.716   5.975  0.00  0.00    +0.194 C 
ENDBRANCH  29  30
ENDBRANCH  28  29
ENDBRANCH   9  28
TORSDOF 6
