REMARK  Name = ZINC06409945
REMARK  12 active torsions:
REMARK  status: ('A' for Active; 'I' for Inactive)
REMARK    1  A    between atoms: C_1  and  C_2
REMARK    2  A    between atoms: C_7  and  C_14
REMARK    3  A    between atoms: C_14  and  C_16
REMARK    4  A    between atoms: C_14  and  N_66
REMARK    5  A    between atoms: N_20  and  C_21
REMARK    6  A    between atoms: C_21  and  C_22
REMARK    7  A    between atoms: C_21  and  C_23
REMARK    8  A    between atoms: C_21  and  C_24
REMARK    9  A    between atoms: C_25  and  C_26
REMARK   10  A    between atoms: C_25  and  N_66
REMARK   11  A    between atoms: C_33  and  C_34
REMARK   12  A    between atoms: C_33  and  N_66
REMARK                            x       y       z     vdW  Elec       q    Type
REMARK                         _______ _______ _______ _____ _____    ______ ____
ROOT
ATOM      1  C   UNL     1      -4.330   0.667   0.725  0.00  0.00    +0.040 C 
ENDROOT
BRANCH   1   8
ATOM      2  C   UNL     1       2.479   4.398   2.549  0.00  0.00    +0.044 C 
ATOM      3  C   UNL     1       1.321   3.498   2.202  0.00  0.00    -0.048 A 
ATOM      4  C   UNL     1       1.533   2.134   2.050  0.00  0.00    +0.004 A 
ATOM      5  C   UNL     1       0.497   1.301   1.736  0.00  0.00    +0.010 A 
ATOM      6  C   UNL     1      -0.787   1.827   1.560  0.00  0.00    -0.001 A 
ATOM      7  C   UNL     1      -1.921   0.962   1.227  0.00  0.00    +0.017 A 
ATOM      8  C   UNL     1      -3.143   1.528   1.072  0.00  0.00    +0.011 A 
ATOM      9  C   UNL     1      -3.309   2.920   1.236  0.00  0.00    +0.251 A 
ATOM     10  O   UNL     1      -4.416   3.408   1.093  0.00  0.00    -0.268 OA
ATOM     11  N   UNL     1      -2.275   3.721   1.547  0.00  0.00    -0.322 N 
ATOM     12  H   UNL     1      -2.423   4.674   1.652  0.00  0.00    +0.169 HD
ATOM     13  C   UNL     1      -1.006   3.208   1.717  0.00  0.00    +0.049 A 
ATOM     14  C   UNL     1       0.064   4.037   2.038  0.00  0.00    +0.029 A 
ENDBRANCH   1   8
BRANCH   1  15
ATOM     15  C   UNL     1      -4.840   1.042  -0.643  0.00  0.00    +0.143 A 
ATOM     16  N   UNL     1      -5.558   2.094  -0.949  0.00  0.00    -0.115 NA
ATOM     17  N   UNL     1      -5.792   2.062  -2.216  0.00  0.00    -0.023 NA
ATOM     18  N   UNL     1      -5.242   1.016  -2.726  0.00  0.00    -0.043 NA
ATOM     19  N   UNL     1      -4.640   0.364  -1.789  0.00  0.00    -0.225 N 
BRANCH  19  20
ATOM     20  C   UNL     1      -3.885  -0.882  -1.942  0.00  0.00    +0.059 C 
ATOM     21  C   UNL     1      -4.563  -1.992  -1.136  0.00  0.00    +0.036 C 
ATOM     22  C   UNL     1      -3.846  -1.276  -3.420  0.00  0.00    +0.036 C 
ATOM     23  C   UNL     1      -2.457  -0.679  -1.430  0.00  0.00    +0.036 C 
ENDBRANCH  19  20
ENDBRANCH   1  15
BRANCH   1  24
ATOM     24  N   UNL     1      -5.406   0.900   1.711  0.00  0.00    +0.397 N 
ATOM     25  H   UNL     1      -5.852   1.803   1.511  0.00  0.00    -0.079 HD
BRANCH  24  26
ATOM     26  C   UNL     1      -6.422  -0.169   1.614  0.00  0.00    -0.041 C 
BRANCH  26  27
ATOM     27  C   UNL     1      -7.435   0.225   0.571  0.00  0.00    -0.064 A 
ATOM     28  C   UNL     1      -8.459   1.095   0.896  0.00  0.00    +0.003 A 
ATOM     29  C   UNL     1      -9.385   1.462  -0.062  0.00  0.00    +0.020 A 
ATOM     30  C   UNL     1      -9.295   0.948  -1.344  0.00  0.00    +0.041 A 
ATOM     31  C   UNL     1      -8.274   0.073  -1.667  0.00  0.00    +0.020 A 
ATOM     32  C   UNL     1      -7.344  -0.288  -0.710  0.00  0.00    +0.003 A 
ATOM     33 CL   UNL     1     -10.462   1.402  -2.546  0.00  0.00    -0.084 Cl
ENDBRANCH  26  27
ENDBRANCH  24  26
BRANCH  24  34
ATOM     34  C   UNL     1      -4.840   0.937   3.076  0.00  0.00    -0.001 C 
BRANCH  34  35
ATOM     35  C   UNL     1      -5.890   1.460   4.023  0.00  0.00    +0.089 A 
ATOM     36  C   UNL     1      -6.704   0.710   4.787  0.00  0.00    +0.042 A 
ATOM     37  C   UNL     1      -7.524   1.605   5.513  0.00  0.00    +0.041 A 
ATOM     38  C   UNL     1      -7.161   2.848   5.149  0.00  0.00    +0.195 A 
ATOM     39  O   UNL     1      -6.167   2.754   4.251  0.00  0.00    -0.470 OA
ENDBRANCH  34  35
ENDBRANCH  24  34
ENDBRANCH   1  24
TORSDOF 8
