REMARK  Name = ZINC01883544
REMARK  8 active torsions:
REMARK  status: ('A' for Active; 'I' for Inactive)
REMARK    1  A    between atoms: C_1  and  C_2
REMARK    2  A    between atoms: C_5  and  C_8
REMARK    3  A    between atoms: C_17  and  N_20
REMARK    4  A    between atoms: N_23  and  N_24
REMARK    5  A    between atoms: C_25  and  C_26
REMARK    6  A    between atoms: C_29  and  N_32
REMARK    7  A    between atoms: N_32  and  C_33
REMARK    8  A    between atoms: N_32  and  C_34
REMARK                            x       y       z     vdW  Elec       q    Type
REMARK                         _______ _______ _______ _____ _____    ______ ____
ROOT
ATOM      1  C   UNL     1       0.059  -4.275  -0.021  0.00  0.00    -0.002 C 
ATOM      2  C   UNL     1       0.051  -4.777  -1.467  0.00  0.00    +0.015 C 
ATOM      3  C   UNL     1       0.072  -6.307  -1.475  0.00  0.00    -0.008 C 
ATOM      4  C   UNL     1      -1.163  -6.838  -0.744  0.00  0.00    +0.007 C 
ATOM      5  C   UNL     1      -1.155  -6.336   0.701  0.00  0.00    -0.008 C 
ATOM      6  C   UNL     1      -1.175  -4.806   0.710  0.00  0.00    +0.015 C 
ATOM      7  C   UNL     1       0.109  -6.833   1.407  0.00  0.00    +0.029 C 
ATOM      8  C   UNL     1       1.343  -6.302   0.676  0.00  0.00    +0.037 C 
ATOM      9  C   UNL     1       1.335  -6.804  -0.769  0.00  0.00    +0.029 C 
ATOM     10  C   UNL     1       1.323  -4.772   0.684  0.00  0.00    +0.037 C 
ENDROOT
BRANCH   1  15
ATOM     11  C   UNL     1      -0.018   1.503   0.010  0.00  0.00    +0.044 C 
ATOM     12  C   UNL     1       0.002  -0.004   0.002  0.00  0.00    -0.050 A 
ATOM     13  C   UNL     1      -0.006  -0.689  -1.199  0.00  0.00    +0.003 A 
ATOM     14  C   UNL     1       0.018  -2.071  -1.206  0.00  0.00    +0.004 A 
ATOM     15  C   UNL     1       0.039  -2.768  -0.013  0.00  0.00    -0.041 A 
ATOM     16  C   UNL     1       0.042  -2.084   1.188  0.00  0.00    +0.004 A 
ATOM     17  C   UNL     1       0.023  -0.702   1.195  0.00  0.00    +0.003 A 
ENDBRANCH   1  15
BRANCH   8  18
ATOM     18  N   UNL     1       2.553  -6.778   1.351  0.00  0.00    -0.292 N 
ATOM     19  C   UNL     1       2.775  -6.456   2.641  0.00  0.00    +0.320 C 
ATOM     20  O   UNL     1       1.972  -5.771   3.244  0.00  0.00    -0.251 OA
ATOM     21  N   UNL     1       3.888  -6.894   3.263  0.00  0.00    -0.191 N 
ATOM     22  H   UNL     1       3.280  -7.397   0.806  0.00  0.00    +0.151 HD
ATOM     23  H   UNL     1       4.069  -6.631   4.316  0.00  0.00    +0.179 HD
BRANCH  21  24
ATOM     24  N   UNL     1       4.814  -7.683   2.568  0.00  0.00    -0.186 NA
ATOM     25  C   UNL     1       5.886  -8.104   3.167  0.00  0.00    +0.138 C 
BRANCH  25  26
ATOM     26  C   UNL     1       6.860  -8.934   2.436  0.00  0.00    -0.005 A 
ATOM     27  C   UNL     1       6.629  -9.274   1.100  0.00  0.00    +0.011 A 
ATOM     28  C   UNL     1       7.544 -10.046   0.419  0.00  0.00    +0.024 A 
ATOM     29  C   UNL     1       8.691 -10.497   1.062  0.00  0.00    +0.029 A 
ATOM     30  C   UNL     1       8.923 -10.165   2.393  0.00  0.00    +0.024 A 
ATOM     31  C   UNL     1       8.015  -9.389   3.079  0.00  0.00    +0.011 A 
BRANCH  29  32
ATOM     32  N   UNL     1       9.613 -11.284   0.370  0.00  0.00    -0.336 N 
ATOM     33  C   UNL     1      10.822 -11.760   1.046  0.00  0.00    +0.129 C 
ATOM     34  C   UNL     1       9.371 -11.634  -1.031  0.00  0.00    +0.129 C 
ENDBRANCH  29  32
ENDBRANCH  25  26
ENDBRANCH  21  24
ENDBRANCH   8  18
TORSDOF 5
