REMARK  Name = ZINC32636417
REMARK  13 active torsions:
REMARK  status: ('A' for Active; 'I' for Inactive)
REMARK    1  A    between atoms: C_1  and  C_2
REMARK    2  A    between atoms: C_3  and  C_38
REMARK    3  A    between atoms: C_4  and  C_37
REMARK    4  A    between atoms: C_7  and  C_8
REMARK    5  A    between atoms: C_8  and  C_10
REMARK    6  A    between atoms: C_10  and  C_12
REMARK    7  A    between atoms: C_10  and  O_13
REMARK    8  A    between atoms: O_13  and  C_14
REMARK    9  A    between atoms: C_14  and  C_16
REMARK   10  A    between atoms: C_29  and  C_30
REMARK   11  A    between atoms: C_33  and  O_36
REMARK   12  A    between atoms: C_38  and  O_40
REMARK   13  A    between atoms: O_40  and  C_41
REMARK                            x       y       z     vdW  Elec       q    Type
REMARK                         _______ _______ _______ _____ _____    ______ ____
ROOT
ATOM      1  C   UNL     1       1.165   2.155  -0.016  0.00  0.00    +0.073 A 
ATOM      2  C   UNL     1       1.827   2.523  -1.268  0.00  0.00    +0.015 A 
ATOM      3  C   UNL     1       1.255   2.237  -2.511  0.00  0.00    +0.011 A 
ATOM      4  C   UNL     1       1.908   2.599  -3.653  0.00  0.00    +0.001 A 
ATOM      5  C   UNL     1       3.139   3.250  -3.594  0.00  0.00    +0.002 A 
ATOM      6  C   UNL     1       3.723   3.543  -2.401  0.00  0.00    +0.028 A 
ATOM      7  C   UNL     1       3.079   3.186  -1.201  0.00  0.00    +0.072 A 
ATOM      8  N   UNL     1       3.626   3.459  -0.019  0.00  0.00    -0.247 NA
ATOM      9  C   UNL     1       3.050   3.137   1.136  0.00  0.00    +0.072 A 
ATOM     10  C   UNL     1       1.807   2.484   1.169  0.00  0.00    -0.007 A 
ATOM     11  C   UNL     1       1.397   2.240   2.601  0.00  0.00    +0.043 C 
ATOM     12  C   UNL     1       2.517   2.821   3.474  0.00  0.00    +0.042 C 
ATOM     13  C   UNL     1       3.536   3.375   2.509  0.00  0.00    -0.021 C 
ATOM     14  C   UNL     1       4.688   3.982   2.842  0.00  0.00    +0.013 C 
ENDROOT
BRANCH  14  15
ATOM     15  C   UNL     1       4.985   4.274   4.255  0.00  0.00    -0.024 A 
ATOM     16  C   UNL     1       6.098   5.050   4.592  0.00  0.00    +0.011 A 
ATOM     17  C   UNL     1       6.369   5.324   5.914  0.00  0.00    +0.046 A 
ATOM     18  C   UNL     1       5.544   4.821   6.913  0.00  0.00    +0.117 A 
ATOM     19  C   UNL     1       4.439   4.045   6.583  0.00  0.00    +0.046 A 
ATOM     20  C   UNL     1       4.158   3.770   5.263  0.00  0.00    +0.011 A 
BRANCH  18  21
ATOM     21  O   UNL     1       5.818   5.089   8.216  0.00  0.00    -0.507 OA
ATOM     22  H   UNL     1       5.166   4.693   9.008  0.00  0.00    +0.292 HD
ENDBRANCH  18  21
ENDBRANCH  14  15
BRANCH   1  23
ATOM     23  C   UNL     1      -0.141   1.463  -0.015  0.00  0.00    +0.341 C 
ATOM     24  O   UNL     1      -0.185   0.249  -0.027  0.00  0.00    -0.245 OA
BRANCH  23  25
ATOM     25  O   UNL     1      -1.282   2.179  -0.004  0.00  0.00    -0.450 OA
BRANCH  25  26
ATOM     26  C   UNL     1      -2.528   1.433  -0.009  0.00  0.00    +0.246 C 
ATOM     27  C   UNL     1      -2.962   1.155   1.431  0.00  0.00    +0.061 C 
BRANCH  26  28
ATOM     28  C   UNL     1      -3.592   2.238  -0.709  0.00  0.00    +0.219 C 
ATOM     29  O   UNL     1      -3.420   3.421  -0.917  0.00  0.00    -0.287 OA
BRANCH  28  36
ATOM     30  C   UNL     1      -5.934   3.683  -2.155  0.00  0.00    +0.047 C 
ATOM     31  C   UNL     1      -5.846   2.230  -1.766  0.00  0.00    -0.008 A 
ATOM     32  C   UNL     1      -6.824   1.238  -1.991  0.00  0.00    +0.083 A 
ATOM     33  C   UNL     1      -6.333   0.053  -1.469  0.00  0.00    +0.028 A 
ATOM     34  N   UNL     1      -5.117   0.283  -0.952  0.00  0.00    -0.355 N 
ATOM     35  H   UNL     1      -4.554  -0.538  -0.485  0.00  0.00    +0.166 HD
ATOM     36  C   UNL     1      -4.793   1.614  -1.124  0.00  0.00    +0.090 A 
ATOM     37  C   UNL     1      -7.046  -1.274  -1.480  0.00  0.00    +0.064 C 
BRANCH  32  38
ATOM     38  C   UNL     1      -8.127   1.428  -2.651  0.00  0.00    +0.341 C 
ATOM     39  O   UNL     1      -9.102   1.734  -1.994  0.00  0.00    -0.245 OA
BRANCH  38  40
ATOM     40  O   UNL     1      -8.237   1.263  -3.984  0.00  0.00    -0.464 OA
ATOM     41  C   UNL     1      -9.551   1.467  -4.567  0.00  0.00    +0.280 C 
ENDBRANCH  38  40
ENDBRANCH  32  38
ENDBRANCH  28  36
ENDBRANCH  26  28
ENDBRANCH  25  26
ENDBRANCH  23  25
ENDBRANCH   1  23
TORSDOF 9
