REMARK  Name = ZINC40314286
REMARK  10 active torsions:
REMARK  status: ('A' for Active; 'I' for Inactive)
REMARK    1  A    between atoms: C_5  and  O_7
REMARK    2  A    between atoms: O_7  and  C_8
REMARK    3  A    between atoms: C_8  and  C_9
REMARK    4  A    between atoms: C_9  and  C_11
REMARK    5  A    between atoms: C_9  and  O_34
REMARK    6  A    between atoms: C_11  and  N_12
REMARK    7  A    between atoms: N_12  and  C_13
REMARK    8  A    between atoms: N_12  and  C_26
REMARK    9  A    between atoms: C_13  and  C_14
REMARK   10  A    between atoms: C_17  and  C_19
REMARK                            x       y       z     vdW  Elec       q    Type
REMARK                         _______ _______ _______ _____ _____    ______ ____
ROOT
ATOM      1  N   UNL     1      -1.131  -6.243   0.443  0.00  0.00    +0.389 N 
ATOM      2  H   UNL     1      -1.038  -6.643   1.365  0.00  0.00    -0.081 HD
ENDROOT
BRANCH   1   3
ATOM      3  C   UNL     1       0.151  -6.346  -0.267  0.00  0.00    -0.045 C 
ATOM      4  C   UNL     1       0.660  -7.796  -0.212  0.00  0.00    +0.009 C 
ATOM      5  C   UNL     1       2.138  -7.855  -0.666  0.00  0.00    +0.164 C 
ATOM      6  S   UNL     1       2.766  -6.186  -0.215  0.00  0.00    -0.033 S 
ATOM      7  O   UNL     1       3.157  -5.504  -1.399  0.00  0.00    -0.174 OA
ATOM      8  O   UNL     1       3.691  -6.314   0.856  0.00  0.00    -0.174 OA
ATOM      9  C   UNL     1       1.208  -5.436   0.422  0.00  0.00    +0.151 C 
ENDBRANCH   1   3
BRANCH   1  10
ATOM     10  C   UNL     1      -1.514  -4.829   0.558  0.00  0.00    -0.043 C 
BRANCH  10  11
ATOM     11  C   UNL     1      -1.508  -4.418   2.032  0.00  0.00    +0.135 C 
BRANCH  11  12
ATOM     12  O   UNL     1      -2.531  -5.132   2.729  0.00  0.00    -0.390 OA
ATOM     13  H   UNL     1      -3.423  -4.972   2.392  0.00  0.00    +0.210 HD
ENDBRANCH  11  12
BRANCH  11  14
ATOM     14  C   UNL     1      -1.769  -2.915   2.143  0.00  0.00    +0.258 C 
BRANCH  14  15
ATOM     15  O   UNL     1      -1.649  -2.510   3.508  0.00  0.00    -0.488 OA
BRANCH  15  20
ATOM     16  C   UNL     1      -2.366   1.026   3.037  0.00  0.00    +0.004 A 
ATOM     17  C   UNL     1      -2.266   1.485   4.338  0.00  0.00    +0.002 A 
ATOM     18  C   UNL     1      -1.958   0.608   5.361  0.00  0.00    +0.023 A 
ATOM     19  C   UNL     1      -1.751  -0.731   5.086  0.00  0.00    +0.083 A 
ATOM     20  C   UNL     1      -1.852  -1.194   3.781  0.00  0.00    +0.139 A 
ATOM     21  C   UNL     1      -2.160  -0.311   2.757  0.00  0.00    +0.047 A 
ATOM     22 CL   UNL     1      -1.365  -1.833   6.371  0.00  0.00    -0.080 Cl
ENDBRANCH  15  20
ENDBRANCH  14  15
ENDBRANCH  11  14
ENDBRANCH  10  11
ENDBRANCH   1  10
BRANCH   1  23
ATOM     23  C   UNL     1      -2.164  -6.971  -0.305  0.00  0.00    -0.003 C 
BRANCH  23  24
ATOM     24  C   UNL     1      -1.847  -8.444  -0.296  0.00  0.00    +0.089 A 
ATOM     25  C   UNL     1      -1.829  -9.237   0.793  0.00  0.00    +0.043 A 
ATOM     26  C   UNL     1      -1.488 -10.532   0.355  0.00  0.00    +0.050 A 
ATOM     27  C   UNL     1      -1.315 -10.458  -0.991  0.00  0.00    +0.135 A 
ATOM     28  O   UNL     1      -1.541  -9.186  -1.373  0.00  0.00    -0.462 OA
BRANCH  27  29
ATOM     29  C   UNL     1      -0.948 -11.578  -1.882  0.00  0.00    +0.019 A 
ATOM     30  C   UNL     1      -0.751 -12.857  -1.356  0.00  0.00    +0.011 A 
ATOM     31  C   UNL     1      -0.408 -13.899  -2.192  0.00  0.00    +0.002 A 
ATOM     32  C   UNL     1      -0.259 -13.680  -3.550  0.00  0.00    +0.020 A 
ATOM     33  C   UNL     1      -0.451 -12.415  -4.079  0.00  0.00    +0.042 A 
ATOM     34  C   UNL     1      -0.801 -11.365  -3.253  0.00  0.00    +0.031 A 
ATOM     35 CL   UNL     1      -0.261 -12.150  -5.784  0.00  0.00    -0.084 Cl
ENDBRANCH  27  29
ENDBRANCH  23  24
ENDBRANCH   1  23
TORSDOF 10
