REMARK  Name = ZINC15011948
REMARK  4 active torsions:
REMARK  status: ('A' for Active; 'I' for Inactive)
REMARK    1  A    between atoms: C_4  and  S_28
REMARK    2  A    between atoms: C_5  and  C_7
REMARK    3  A    between atoms: N_8  and  N_9
REMARK    4  A    between atoms: S_28  and  C_29
REMARK                            x       y       z     vdW  Elec       q    Type
REMARK                         _______ _______ _______ _____ _____    ______ ____
ROOT
ATOM      1  N   UNL     1      -0.076   2.596  -3.011  0.00  0.00    -0.205 N 
ATOM      2  C   UNL     1       0.796   2.696  -4.077  0.00  0.00    +0.241 A 
ATOM      3  N   UNL     1       2.018   3.185  -3.892  0.00  0.00    -0.180 NA
ATOM      4  C   UNL     1       2.859   3.277  -4.917  0.00  0.00    +0.224 A 
ATOM      5  N   UNL     1       2.474   2.890  -6.130  0.00  0.00    -0.181 NA
ATOM      6  C   UNL     1       1.250   2.406  -6.316  0.00  0.00    +0.224 A 
ATOM      7  N   UNL     1       0.411   2.309  -5.290  0.00  0.00    -0.180 NA
ATOM      8  N   UNL     1       0.851   2.005  -7.574  0.00  0.00    -0.299 N 
ATOM      9  C   UNL     1       1.008   3.092  -8.548  0.00  0.00    +0.108 C 
ATOM     10  C   UNL     1       0.696   2.571  -9.953  0.00  0.00    +0.019 C 
ATOM     11  C   UNL     1      -0.739   2.035  -9.985  0.00  0.00    +0.003 C 
ATOM     12  C   UNL     1      -0.889   0.937  -8.928  0.00  0.00    +0.019 C 
ATOM     13  C   UNL     1      -0.531   1.506  -7.554  0.00  0.00    +0.108 C 
ATOM     14  N   UNL     1       4.130   3.779  -4.725  0.00  0.00    -0.299 N 
ATOM     15  C   UNL     1       5.142   2.891  -5.312  0.00  0.00    +0.108 C 
ATOM     16  C   UNL     1       6.521   3.547  -5.209  0.00  0.00    +0.019 C 
ATOM     17  C   UNL     1       6.843   3.816  -3.736  0.00  0.00    +0.003 C 
ATOM     18  C   UNL     1       5.750   4.703  -3.135  0.00  0.00    +0.019 C 
ATOM     19  C   UNL     1       4.393   4.013  -3.299  0.00  0.00    +0.108 C 
ATOM     20  H   UNL     1      -0.959   2.216  -3.141  0.00  0.00    +0.177 HD
ENDROOT
BRANCH   1  22
ATOM     21  C   UNL     1      -0.530   3.018  -0.756  0.00  0.00    +0.139 C 
ATOM     22  N   UNL     1       0.314   3.045  -1.742  0.00  0.00    -0.187 NA
BRANCH  21  27
ATOM     23  C   UNL     1      -0.701   4.108   2.830  0.00  0.00    +0.001 A 
ATOM     24  C   UNL     1       0.477   4.827   2.953  0.00  0.00    +0.001 A 
ATOM     25  C   UNL     1       1.327   4.966   1.874  0.00  0.00    +0.016 A 
ATOM     26  C   UNL     1       1.009   4.380   0.657  0.00  0.00    +0.021 A 
ATOM     27  C   UNL     1      -0.181   3.645   0.530  0.00  0.00    +0.008 A 
ATOM     28  C   UNL     1      -1.031   3.513   1.630  0.00  0.00    +0.010 A 
BRANCH  26  29
ATOM     29  S   UNL     1       2.092   4.556  -0.721  0.00  0.00    -0.089 S 
BRANCH  29  30
ATOM     30  C   UNL     1       1.409   5.902  -1.631  0.00  0.00    +0.013 A 
ATOM     31  C   UNL     1       0.044   5.949  -1.884  0.00  0.00    +0.016 A 
ATOM     32  C   UNL     1      -0.489   7.007  -2.593  0.00  0.00    +0.021 A 
ATOM     33  C   UNL     1       0.336   8.015  -3.059  0.00  0.00    +0.041 A 
ATOM     34  C   UNL     1       1.697   7.968  -2.813  0.00  0.00    +0.021 A 
ATOM     35  C   UNL     1       2.236   6.915  -2.100  0.00  0.00    +0.016 A 
ATOM     36 CL   UNL     1      -0.337   9.341  -3.955  0.00  0.00    -0.084 Cl
ENDBRANCH  29  30
ENDBRANCH  26  29
ENDBRANCH  21  27
ENDBRANCH   1  22
TORSDOF 4
