REMARK  Name = ZINC09380027
REMARK  21 active torsions:
REMARK  status: ('A' for Active; 'I' for Inactive)
REMARK    1  A    between atoms: C_1  and  C_2
REMARK    2  A    between atoms: C_2  and  N_82
REMARK    3  A    between atoms: C_3  and  C_4
REMARK    4  A    between atoms: C_3  and  N_82
REMARK    5  A    between atoms: C_5  and  C_6
REMARK    6  A    between atoms: C_5  and  N_82
REMARK    7  A    between atoms: C_6  and  N_7
REMARK    8  A    between atoms: C_8  and  C_29
REMARK    9  A    between atoms: C_10  and  C_15
REMARK   10  A    between atoms: C_11  and  O_14
REMARK   11  A    between atoms: C_15  and  C_17
REMARK   12  A    between atoms: C_20  and  O_24
REMARK   13  A    between atoms: C_21  and  C_23
REMARK   14  A    between atoms: O_24  and  C_25
REMARK   15  A    between atoms: C_25  and  C_26
REMARK   16  A    between atoms: C_26  and  C_27
REMARK   17  A    between atoms: C_26  and  C_28
REMARK   18  A    between atoms: C_32  and  C_35
REMARK   19  A    between atoms: C_35  and  C_36
REMARK   20  A    between atoms: C_35  and  C_37
REMARK   21  A    between atoms: C_35  and  C_38
REMARK                            x       y       z     vdW  Elec       q    Type
REMARK                         _______ _______ _______ _____ _____    ______ ____
ROOT
ATOM      1  N   UNL     1      -1.256  -0.822   0.416  0.00  0.00    -0.285 N 
ATOM      2  C   UNL     1      -0.111  -1.274  -0.382  0.00  0.00    +0.144 C 
ATOM      3  C   UNL     1      -0.361  -0.791  -1.791  0.00  0.00    +0.071 C 
ATOM      4  C   UNL     1      -1.541  -0.129  -1.773  0.00  0.00    +0.188 C 
ATOM      5  C   UNL     1      -2.093  -0.158  -0.403  0.00  0.00    +0.282 C 
ATOM      6  O   UNL     1      -3.145   0.346  -0.064  0.00  0.00    -0.267 OA
ENDROOT
BRANCH   2   7
ATOM      7  C   UNL     1      -0.025  -2.779  -0.357  0.00  0.00    -0.022 A 
ATOM      8  C   UNL     1      -1.174  -3.539  -0.469  0.00  0.00    +0.006 A 
ATOM      9  C   UNL     1      -1.095  -4.919  -0.452  0.00  0.00    +0.004 A 
ATOM     10  C   UNL     1       0.133  -5.539  -0.313  0.00  0.00    -0.042 A 
ATOM     11  C   UNL     1       1.282  -4.779  -0.196  0.00  0.00    +0.004 A 
ATOM     12  C   UNL     1       1.203  -3.399  -0.218  0.00  0.00    +0.006 A 
BRANCH  10  13
ATOM     13  C   UNL     1       0.219  -7.043  -0.290  0.00  0.00    -0.013 C 
ATOM     14  C   UNL     1       0.830  -7.499   1.037  0.00  0.00    +0.015 C 
ATOM     15  C   UNL     1      -1.184  -7.636  -0.436  0.00  0.00    +0.015 C 
ATOM     16  C   UNL     1       1.098  -7.521  -1.447  0.00  0.00    +0.015 C 
ENDBRANCH  10  13
ENDBRANCH   2   7
BRANCH   4  17
ATOM     17  O   UNL     1      -2.126   0.459  -2.842  0.00  0.00    -0.502 OA
ATOM     18  H   UNL     1      -2.989   0.878  -2.560  0.00  0.00    +0.292 HD
ENDBRANCH   4  17
BRANCH   3  19
ATOM     19  C   UNL     1       0.508  -0.999  -2.954  0.00  0.00    +0.195 C 
ATOM     20  O   UNL     1       0.113  -1.657  -3.899  0.00  0.00    -0.287 OA
BRANCH  19  21
ATOM     21  C   UNL     1       1.861  -0.410  -2.979  0.00  0.00    +0.023 A 
ATOM     22  C   UNL     1       2.271   0.450  -1.956  0.00  0.00    +0.015 A 
ATOM     23  C   UNL     1       3.535   0.994  -1.981  0.00  0.00    +0.046 A 
ATOM     24  C   UNL     1       4.401   0.696  -3.028  0.00  0.00    +0.123 A 
ATOM     25  C   UNL     1       3.996  -0.154  -4.050  0.00  0.00    -0.008 A 
ATOM     26  C   UNL     1       2.735  -0.706  -4.030  0.00  0.00    +0.018 A 
ATOM     27  C   UNL     1       4.939  -0.473  -5.182  0.00  0.00    +0.047 C 
BRANCH  24  28
ATOM     28  O   UNL     1       5.645   1.238  -3.051  0.00  0.00    -0.491 OA
BRANCH  28  29
ATOM     29  C   UNL     1       5.996   2.104  -1.970  0.00  0.00    +0.232 C 
BRANCH  29  30
ATOM     30  C   UNL     1       7.425   2.614  -2.168  0.00  0.00    +0.020 C 
ATOM     31  C   UNL     1       7.757   3.636  -1.080  0.00  0.00    +0.010 C 
ATOM     32  C   UNL     1       8.402   1.440  -2.081  0.00  0.00    +0.010 C 
ENDBRANCH  29  30
ENDBRANCH  28  29
ENDBRANCH  24  28
ENDBRANCH  19  21
ENDBRANCH   3  19
BRANCH   1  33
ATOM     33  C   UNL     1      -1.457  -1.056   1.848  0.00  0.00    +0.090 C 
BRANCH  33  34
ATOM     34  C   UNL     1      -0.833   0.091   2.645  0.00  0.00    -0.060 C 
BRANCH  34  35
ATOM     35  N   UNL     1      -1.062  -0.149   4.085  0.00  0.00    +0.380 N 
ATOM     36  H   UNL     1      -2.061  -0.329   4.239  0.00  0.00    -0.082 HD
BRANCH  35  38
ATOM     37  C   UNL     1       1.209  -1.100   4.311  0.00  0.00    -0.017 C 
ATOM     38  C   UNL     1      -0.288  -1.328   4.530  0.00  0.00    -0.082 C 
ENDBRANCH  35  38
BRANCH  35  39
ATOM     39  C   UNL     1      -0.663   1.041   4.866  0.00  0.00    -0.082 C 
ATOM     40  C   UNL     1      -1.182   0.888   6.297  0.00  0.00    -0.017 C 
ENDBRANCH  35  39
ENDBRANCH  34  35
ENDBRANCH  33  34
ENDBRANCH   1  33
TORSDOF 13
