REMARK  Name = ZINC09033497
REMARK  7 active torsions:
REMARK  status: ('A' for Active; 'I' for Inactive)
REMARK    1  A    between atoms: C_4  and  N_29
REMARK    2  A    between atoms: C_5  and  C_7
REMARK    3  A    between atoms: N_9  and  C_10
REMARK    4  A    between atoms: C_10  and  C_12
REMARK    5  A    between atoms: C_10  and  O_16
REMARK    6  A    between atoms: O_16  and  C_17
REMARK    7  A    between atoms: C_17  and  C_18
REMARK                            x       y       z     vdW  Elec       q    Type
REMARK                         _______ _______ _______ _____ _____    ______ ____
ROOT
ATOM      1  C   UNL     1       2.187   1.774   3.559  0.00  0.00    +0.257 C 
ENDROOT
BRANCH   1   4
ATOM      2  C   UNL     1       2.767  -0.592   3.633  0.00  0.00    +0.248 C 
ATOM      3  O   UNL     1       3.854  -0.310   3.169  0.00  0.00    -0.270 OA
ATOM      4  N   UNL     1       1.861   0.379   3.866  0.00  0.00    -0.283 N 
ATOM      5  H   UNL     1       0.993   0.154   4.236  0.00  0.00    +0.152 HD
BRANCH   2  10
ATOM      6  C   UNL     1       0.996  -3.904   3.685  0.00  0.00    +0.001 A 
ATOM      7  C   UNL     1       1.820  -4.636   4.521  0.00  0.00    +0.002 A 
ATOM      8  C   UNL     1       2.951  -4.057   5.069  0.00  0.00    +0.033 A 
ATOM      9  C   UNL     1       3.267  -2.745   4.781  0.00  0.00    +0.138 A 
ATOM     10  C   UNL     1       2.437  -2.000   3.942  0.00  0.00    +0.067 A 
ATOM     11  C   UNL     1       1.298  -2.590   3.392  0.00  0.00    +0.015 A 
BRANCH   9  12
ATOM     12  N   UNL     1       4.480  -2.129   5.364  0.00  0.00    +0.057 N 
ATOM     13  O   UNL     1       5.263  -2.811   6.000  0.00  0.00    -0.126 OA
ATOM     14  O   UNL     1       4.694  -0.941   5.207  0.00  0.00    -0.126 OA
ENDBRANCH   9  12
ENDBRANCH   2  10
ENDBRANCH   1   4
BRANCH   1  15
ATOM     15  C   UNL     1       1.639   2.680   4.663  0.00  0.00    +0.233 C 
ATOM     16 CL   UNL     1      -0.151   2.490   4.763  0.00  0.00    -0.079 Cl
ATOM     17 CL   UNL     1       2.381   2.222   6.241  0.00  0.00    -0.079 Cl
ATOM     18 CL   UNL     1       2.041   4.397   4.286  0.00  0.00    -0.079 Cl
ENDBRANCH   1  15
BRANCH   1  19
ATOM     19  O   UNL     1       1.599   2.137   2.309  0.00  0.00    -0.354 OA
BRANCH  19  20
ATOM     20  C   UNL     1       2.205   1.508   1.177  0.00  0.00    +0.164 C 
BRANCH  20  21
ATOM     21  C   UNL     1       1.499   1.967  -0.100  0.00  0.00    +0.001 C 
ATOM     22  C   UNL     1       0.052   1.472  -0.087  0.00  0.00    +0.002 C 
ATOM     23  C   UNL     1       0.057  -0.060  -0.068  0.00  0.00    -0.018 C 
ATOM     24  C   UNL     1       0.805  -0.566  -1.301  0.00  0.00    -0.078 C 
ATOM     25  C   UNL     1       2.232   1.399  -1.320  0.00  0.00    -0.063 C 
ATOM     26  C   UNL     1       3.686   1.883  -1.269  0.00  0.00    -0.015 C 
ATOM     27  C   UNL     1       4.468   1.300  -2.446  0.00  0.00    -0.003 C 
ATOM     28  C   UNL     1       4.390  -0.228  -2.380  0.00  0.00    -0.019 C 
ATOM     29  C   UNL     1       2.921  -0.649  -2.430  0.00  0.00    -0.078 C 
ATOM     30  N   UNL     1       2.197  -0.085  -1.276  0.00  0.00    +0.382 N 
ATOM     31  H   UNL     1       2.647  -0.402  -0.409  0.00  0.00    -0.081 HD
ENDBRANCH  20  21
ENDBRANCH  19  20
ENDBRANCH   1  19
TORSDOF 7
