REMARK  Name = ZINC12436339
REMARK  9 active torsions:
REMARK  status: ('A' for Active; 'I' for Inactive)
REMARK    1  A    between atoms: C_1  and  C_2
REMARK    2  A    between atoms: C_7  and  C_8
REMARK    3  A    between atoms: C_8  and  N_61
REMARK    4  A    between atoms: C_14  and  C_16
REMARK    5  A    between atoms: C_16  and  C_17
REMARK    6  A    between atoms: N_19  and  C_20
REMARK    7  A    between atoms: C_20  and  C_21
REMARK    8  A    between atoms: C_21  and  C_22
REMARK    9  A    between atoms: C_22  and  N_23
REMARK                            x       y       z     vdW  Elec       q    Type
REMARK                         _______ _______ _______ _____ _____    ______ ____
ROOT
ATOM      1  C   UNL     1      -5.333   3.155  -1.073  0.00  0.00    -0.058 C 
ATOM      2  C   UNL     1      -4.116   2.300  -0.716  0.00  0.00    +0.085 C 
ATOM      3  N   UNL     1      -2.893   2.956  -1.169  0.00  0.00    -0.318 N 
ATOM      4  C   UNL     1      -2.836   4.257  -1.472  0.00  0.00    +0.200 C 
ATOM      5  O   UNL     1      -1.771   4.729  -1.810  0.00  0.00    -0.278 OA
ATOM      6  C   UNL     1      -4.035   5.160  -1.410  0.00  0.00    +0.028 C 
ATOM      7  H   UNL     1      -2.086   2.425  -1.253  0.00  0.00    +0.149 HD
ATOM      8  N   UNL     1      -5.085   4.528  -0.589  0.00  0.00    +0.391 N 
ATOM      9  H   UNL     1      -4.769   4.487   0.387  0.00  0.00    -0.080 HD
ENDROOT
BRANCH   8  10
ATOM     10  C   UNL     1      -6.331   5.324  -0.658  0.00  0.00    -0.042 C 
BRANCH  10  17
ATOM     11  C   UNL     1      -6.122   5.957   2.153  0.00  0.00    +0.044 C 
ATOM     12  C   UNL     1      -7.230   5.060   1.663  0.00  0.00    -0.049 A 
ATOM     13  C   UNL     1      -8.146   4.541   2.558  0.00  0.00    +0.003 A 
ATOM     14  C   UNL     1      -9.163   3.720   2.108  0.00  0.00    +0.000 A 
ATOM     15  C   UNL     1      -9.263   3.417   0.763  0.00  0.00    +0.000 A 
ATOM     16  C   UNL     1      -8.344   3.932  -0.132  0.00  0.00    +0.002 A 
ATOM     17  C   UNL     1      -7.330   4.758   0.318  0.00  0.00    -0.061 A 
ENDBRANCH  10  17
ENDBRANCH   8  10
BRANCH   6  18
ATOM     18  C   UNL     1      -3.637   6.491  -0.771  0.00  0.00    +0.089 C 
BRANCH  18  19
ATOM     19  C   UNL     1      -3.172   6.250   0.642  0.00  0.00    +0.212 C 
ATOM     20  O   UNL     1      -3.091   5.118   1.070  0.00  0.00    -0.276 OA
ATOM     21  N   UNL     1      -2.845   7.293   1.431  0.00  0.00    -0.315 N 
ATOM     22  H   UNL     1      -2.909   8.199   1.089  0.00  0.00    +0.149 HD
BRANCH  21  23
ATOM     23  C   UNL     1      -2.392   7.059   2.805  0.00  0.00    +0.106 C 
BRANCH  23  24
ATOM     24  C   UNL     1      -2.088   8.399   3.477  0.00  0.00    +0.040 C 
BRANCH  24  25
ATOM     25  C   UNL     1      -1.615   8.155   4.911  0.00  0.00    +0.123 C 
BRANCH  25  26
ATOM     26  N   UNL     1      -1.324   9.438   5.555  0.00  0.00    -0.347 N 
ATOM     27  C   UNL     1      -0.087  10.017   5.630  0.00  0.00    +0.087 A 
ATOM     28  C   UNL     1      -0.168  11.189   6.280  0.00  0.00    +0.027 A 
ATOM     29  C   UNL     1      -1.571  11.370   6.662  0.00  0.00    -0.000 A 
ATOM     30  C   UNL     1      -2.254  10.239   6.180  0.00  0.00    +0.049 A 
ATOM     31  C   UNL     1      -3.624  10.127   6.396  0.00  0.00    +0.026 A 
ATOM     32  C   UNL     1      -4.293  11.121   7.075  0.00  0.00    +0.002 A 
ATOM     33  C   UNL     1      -3.614  12.236   7.548  0.00  0.00    +0.001 A 
ATOM     34  C   UNL     1      -2.268  12.366   7.348  0.00  0.00    +0.010 A 
ENDBRANCH  25  26
ENDBRANCH  24  25
ENDBRANCH  23  24
ENDBRANCH  21  23
ENDBRANCH  18  19
ENDBRANCH   6  18
TORSDOF 8
