REMARK  Name = ZINC39356376
REMARK  11 active torsions:
REMARK  status: ('A' for Active; 'I' for Inactive)
REMARK    1  A    between atoms: C_1  and  C_2
REMARK    2  A    between atoms: C_2  and  O_3
REMARK    3  A    between atoms: O_3  and  C_4
REMARK    4  A    between atoms: C_4  and  C_6
REMARK    5  A    between atoms: N_11  and  C_13
REMARK    6  A    between atoms: C_19  and  C_21
REMARK    7  A    between atoms: C_21  and  C_22
REMARK    8  A    between atoms: C_22  and  C_23
REMARK    9  A    between atoms: C_23  and  C_29
REMARK   10  A    between atoms: C_29  and  C_30
REMARK   11  A    between atoms: C_33  and  C_36
REMARK                            x       y       z     vdW  Elec       q    Type
REMARK                         _______ _______ _______ _____ _____    ______ ____
ROOT
ATOM      1  C   UNL     1      -4.029  -5.999  -0.061  0.00  0.00    -0.066 C 
ATOM      2  C   UNL     1      -3.306  -6.387  -1.353  0.00  0.00    +0.004 C 
ATOM      3  C   UNL     1      -3.174  -7.912  -1.421  0.00  0.00    +0.106 C 
ATOM      4  N   UNL     1      -4.508  -8.510  -1.273  0.00  0.00    -0.302 N 
ATOM      5  C   UNL     1      -5.325  -8.134  -0.111  0.00  0.00    +0.106 C 
ATOM      6  C   UNL     1      -5.434  -6.606  -0.058  0.00  0.00    +0.004 C 
ATOM      7  C   UNL     1      -4.973  -9.386  -2.185  0.00  0.00    +0.216 C 
ATOM      8  O   UNL     1      -4.288  -9.688  -3.140  0.00  0.00    -0.276 OA
ENDROOT
BRANCH   1  13
ATOM      9  C   UNL     1      -2.881  -2.427   0.017  0.00  0.00    +0.081 C 
ATOM     10  C   UNL     1      -3.623  -1.974   1.277  0.00  0.00    +0.011 C 
ATOM     11  C   UNL     1      -4.999  -2.646   1.317  0.00  0.00    -0.018 C 
ATOM     12  C   UNL     1      -4.820  -4.164   1.263  0.00  0.00    -0.078 C 
ATOM     13  N   UNL     1      -4.128  -4.536   0.023  0.00  0.00    +0.382 N 
ATOM     14  C   UNL     1      -2.781  -3.954   0.010  0.00  0.00    -0.064 C 
ATOM     15  H   UNL     1      -4.650  -4.190  -0.768  0.00  0.00    -0.081 HD
BRANCH   9  16
ATOM     16  C   UNL     1      -1.496  -1.832   0.006  0.00  0.00    +0.308 C 
ATOM     17  O   UNL     1      -0.528  -2.555  -0.007  0.00  0.00    -0.251 OA
BRANCH  16  18
ATOM     18  O   UNL     1      -1.339  -0.499   0.012  0.00  0.00    -0.465 OA
BRANCH  18  20
ATOM     19  C   UNL     1      -0.019   1.526   0.010  0.00  0.00    +0.048 C 
ATOM     20  C   UNL     1       0.002  -0.004   0.002  0.00  0.00    +0.229 C 
ENDBRANCH  18  20
ENDBRANCH  16  18
ENDBRANCH   9  16
ENDBRANCH   1  13
BRANCH   7  21
ATOM     21  C   UNL     1      -6.343  -9.990  -2.019  0.00  0.00    +0.098 C 
BRANCH  21  22
ATOM     22  C   UNL     1      -6.624 -10.944  -3.182  0.00  0.00    +0.035 C 
BRANCH  22  23
ATOM     23  C   UNL     1      -8.016 -11.557  -3.013  0.00  0.00    +0.039 C 
ATOM     24  C   UNL     1      -8.344 -12.476  -4.211  0.00  0.00    +0.035 C 
ATOM     25  C   UNL     1      -9.101 -11.510  -5.151  0.00  0.00    +0.098 C 
ATOM     26  C   UNL     1      -9.662 -10.454  -4.224  0.00  0.00    +0.214 C 
ATOM     27  O   UNL     1     -10.544  -9.674  -4.513  0.00  0.00    -0.276 OA
ATOM     28  N   UNL     1      -9.040 -10.507  -3.033  0.00  0.00    -0.309 N 
ATOM     29  H   UNL     1      -9.242  -9.925  -2.284  0.00  0.00    +0.149 HD
BRANCH  23  30
ATOM     30  C   UNL     1      -8.091 -12.345  -1.704  0.00  0.00    +0.061 C 
BRANCH  30  31
ATOM     31  C   UNL     1      -9.467 -12.942  -1.555  0.00  0.00    -0.045 A 
ATOM     32  C   UNL     1     -10.465 -12.227  -0.919  0.00  0.00    +0.004 A 
ATOM     33  C   UNL     1     -11.727 -12.774  -0.782  0.00  0.00    +0.003 A 
ATOM     34  C   UNL     1     -11.991 -14.036  -1.282  0.00  0.00    -0.050 A 
ATOM     35  C   UNL     1     -10.993 -14.751  -1.918  0.00  0.00    +0.003 A 
ATOM     36  C   UNL     1      -9.732 -14.201  -2.058  0.00  0.00    +0.004 A 
ATOM     37  C   UNL     1     -13.366 -14.633  -1.132  0.00  0.00    +0.044 C 
ENDBRANCH  30  31
ENDBRANCH  23  30
ENDBRANCH  22  23
ENDBRANCH  21  22
ENDBRANCH   7  21
TORSDOF 9
