REMARK  Name = ZINC32913499
REMARK  8 active torsions:
REMARK  status: ('A' for Active; 'I' for Inactive)
REMARK    1  A    between atoms: C_6  and  N_7
REMARK    2  A    between atoms: N_10  and  C_11
REMARK    3  A    between atoms: C_11  and  C_12
REMARK    4  A    between atoms: C_12  and  C_13
REMARK    5  A    between atoms: C_13  and  C_14
REMARK    6  A    between atoms: C_15  and  C_27
REMARK    7  A    between atoms: C_16  and  N_26
REMARK    8  A    between atoms: N_17  and  C_19
REMARK                            x       y       z     vdW  Elec       q    Type
REMARK                         _______ _______ _______ _____ _____    ______ ____
ROOT
ATOM      1  C   UNL     1      -1.413  -0.525  -0.009  0.00  0.00    +0.083 A 
ATOM      2  C   UNL     1      -2.193  -0.807  -1.155  0.00  0.00    +0.114 A 
ATOM      3  C   UNL     1      -3.428  -1.266  -0.704  0.00  0.00    +0.138 A 
ATOM      4  N   UNL     1      -3.385  -1.257   0.648  0.00  0.00    -0.217 N 
ATOM      5  N   UNL     1      -2.125  -0.799   1.048  0.00  0.00    -0.168 NA
ENDROOT
BRANCH   4   6
ATOM      6  C   UNL     1      -4.426  -1.646   1.503  0.00  0.00    +0.068 A 
ATOM      7  C   UNL     1      -5.745  -1.391   1.153  0.00  0.00    +0.030 A 
ATOM      8  C   UNL     1      -6.769  -1.778   1.995  0.00  0.00    +0.040 A 
ATOM      9  C   UNL     1      -6.481  -2.411   3.192  0.00  0.00    +0.124 A 
ATOM     10  C   UNL     1      -5.165  -2.662   3.545  0.00  0.00    +0.040 A 
ATOM     11  C   UNL     1      -4.139  -2.281   2.704  0.00  0.00    +0.030 A 
ATOM     12  F   UNL     1      -7.483  -2.784   4.017  0.00  0.00    -0.205 F 
ENDBRANCH   4   6
BRANCH   3  13
ATOM     13  N   UNL     1      -4.495  -1.657  -1.489  0.00  0.00    -0.342 N 
ATOM     14  H   UNL     1      -5.427  -2.003  -1.018  0.00  0.00    +0.144 HD
ATOM     15  H   UNL     1      -4.413  -1.621  -2.586  0.00  0.00    +0.144 HD
ENDBRANCH   3  13
BRANCH   2  16
ATOM     16  C   UNL     1      -1.789  -0.651  -2.519  0.00  0.00    +0.104 C 
ATOM     17  N   UNL     1      -1.468  -0.527  -3.602  0.00  0.00    -0.191 NA
ENDBRANCH   2  16
BRANCH   1  18
ATOM     18  C   UNL     1       0.001  -0.004  -0.010  0.00  0.00    +0.060 C 
BRANCH  18  19
ATOM     19  C   UNL     1      -0.019   1.526  -0.004  0.00  0.00    +0.025 C 
BRANCH  19  20
ATOM     20  C   UNL     1       1.416   2.055  -0.004  0.00  0.00    +0.106 C 
BRANCH  20  24
ATOM     21  N   UNL     1       2.537   5.558   0.008  0.00  0.00    -0.269 N 
ATOM     22  C   UNL     1       2.555   4.210   0.002  0.00  0.00    +0.304 C 
ATOM     23  O   UNL     1       3.616   3.616  -0.003  0.00  0.00    -0.253 OA
ATOM     24  N   UNL     1       1.397   3.520   0.002  0.00  0.00    -0.299 N 
ATOM     25  H   UNL     1       1.579   6.095  -0.065  0.00  0.00    +0.156 HD
ATOM     26  H   UNL     1       0.437   4.058   0.006  0.00  0.00    +0.150 HD
BRANCH  21  32
ATOM     27  C   UNL     1       3.774   7.473   0.803  0.00  0.00    +0.025 A 
ATOM     28  C   UNL     1       4.960   8.175   0.903  0.00  0.00    +0.022 A 
ATOM     29  C   UNL     1       6.106   7.688   0.299  0.00  0.00    +0.041 A 
ATOM     30  C   UNL     1       6.069   6.496  -0.401  0.00  0.00    +0.022 A 
ATOM     31  C   UNL     1       4.887   5.787  -0.499  0.00  0.00    +0.025 A 
ATOM     32  C   UNL     1       3.736   6.273   0.106  0.00  0.00    +0.035 A 
ATOM     33 CL   UNL     1       7.593   8.576   0.421  0.00  0.00    -0.084 Cl
ENDBRANCH  21  32
ENDBRANCH  20  24
ENDBRANCH  19  20
ENDBRANCH  18  19
ENDBRANCH   1  18
TORSDOF 8
