REMARK  Name = ZINC20572261
REMARK  3 active torsions:
REMARK  status: ('A' for Active; 'I' for Inactive)
REMARK    1  A    between atoms: C_7  and  C_11
REMARK    2  A    between atoms: C_11  and  C_12
REMARK    3  A    between atoms: N_20  and  C_23
REMARK                            x       y       z     vdW  Elec       q    Type
REMARK                         _______ _______ _______ _____ _____    ______ ____
ROOT
ATOM      1  C   UNL     1       0.175  -3.578  -1.425  0.00  0.00    +0.072 C 
ATOM      2  C   UNL     1      -0.715  -4.838  -1.466  0.00  0.00    +0.108 C 
ATOM      3  C   UNL     1       0.259  -6.003  -1.799  0.00  0.00    +0.123 C 
ATOM      4  C   UNL     1      -0.213  -6.473  -3.157  0.00  0.00    +0.233 C 
ATOM      5  O   UNL     1       0.272  -7.386  -3.790  0.00  0.00    -0.274 OA
ATOM      6  N   UNL     1      -1.250  -5.725  -3.551  0.00  0.00    -0.210 N 
ATOM      7  C   UNL     1      -1.625  -4.768  -2.671  0.00  0.00    +0.232 C 
ATOM      8  O   UNL     1      -2.535  -3.981  -2.816  0.00  0.00    -0.274 OA
ATOM      9  C   UNL     1       1.634  -5.335  -1.919  0.00  0.00    +0.136 C 
ATOM     10  N   UNL     1       1.360  -3.916  -2.256  0.00  0.00    -0.295 NA
ATOM     11  C   UNL     1       2.474  -5.986  -2.979  0.00  0.00    +0.005 A 
ATOM     12  C   UNL     1       2.311  -6.181  -4.333  0.00  0.00    +0.008 A 
ATOM     13  C   UNL     1       3.287  -6.835  -5.062  0.00  0.00    +0.002 A 
ATOM     14  C   UNL     1       4.429  -7.293  -4.429  0.00  0.00    +0.022 A 
ATOM     15  C   UNL     1       4.598  -7.099  -3.073  0.00  0.00    +0.062 A 
ATOM     16  C   UNL     1       3.619  -6.441  -2.331  0.00  0.00    +0.057 A 
ATOM     17  N   UNL     1       3.561  -6.127  -0.971  0.00  0.00    -0.282 N 
ATOM     18  C   UNL     1       2.426  -5.477  -0.648  0.00  0.00    +0.243 C 
ATOM     19  O   UNL     1       2.106  -5.082   0.453  0.00  0.00    -0.273 OA
ATOM     20 CL   UNL     1       6.035  -7.677  -2.289  0.00  0.00    -0.082 Cl
ATOM     21  H   UNL     1       1.158  -3.800  -3.238  0.00  0.00    +0.124 HD
ATOM     22  H   UNL     1       4.256  -6.351  -0.333  0.00  0.00    +0.155 HD
ENDROOT
BRANCH   6  23
ATOM     23  C   UNL     1      -1.903  -5.919  -4.777  0.00  0.00    +0.044 A 
ATOM     24  C   UNL     1      -2.640  -7.075  -4.997  0.00  0.00    +0.027 A 
ATOM     25  C   UNL     1      -3.282  -7.265  -6.205  0.00  0.00    +0.040 A 
ATOM     26  C   UNL     1      -3.192  -6.302  -7.196  0.00  0.00    +0.124 A 
ATOM     27  C   UNL     1      -2.457  -5.149  -6.979  0.00  0.00    +0.040 A 
ATOM     28  C   UNL     1      -1.819  -4.953  -5.770  0.00  0.00    +0.027 A 
ATOM     29  F   UNL     1      -3.820  -6.490  -8.377  0.00  0.00    -0.205 F 
ENDBRANCH   6  23
BRANCH   1  30
ATOM     30  C   UNL     1       0.602  -3.276   0.013  0.00  0.00    +0.056 C 
BRANCH  30  37
ATOM     31  C   UNL     1      -3.510  -3.834   2.192  0.00  0.00    +0.001 A 
ATOM     32  C   UNL     1      -4.068  -2.634   2.610  0.00  0.00    +0.002 A 
ATOM     33  C   UNL     1      -3.423  -1.440   2.375  0.00  0.00    +0.026 A 
ATOM     34  C   UNL     1      -2.200  -1.434   1.711  0.00  0.00    +0.047 A 
ATOM     35  C   UNL     1      -1.639  -2.653   1.290  0.00  0.00    +0.003 A 
ATOM     36  C   UNL     1      -2.311  -3.852   1.539  0.00  0.00    +0.010 A 
ATOM     37  C   UNL     1      -0.374  -2.311   0.635  0.00  0.00    -0.021 A 
ATOM     38  C   UNL     1      -0.249  -0.976   0.696  0.00  0.00    +0.087 A 
ATOM     39  N   UNL     1      -1.331  -0.435   1.335  0.00  0.00    -0.360 N 
ATOM     40  H   UNL     1      -1.465   0.512   1.499  0.00  0.00    +0.165 HD
ENDBRANCH  30  37
ENDBRANCH   1  30
TORSDOF 3
