REMARK  Name = ZINC09242899
REMARK  13 active torsions:
REMARK  status: ('A' for Active; 'I' for Inactive)
REMARK    1  A    between atoms: C_1  and  C_2
REMARK    2  A    between atoms: C_4  and  O_35
REMARK    3  A    between atoms: C_5  and  C_9
REMARK    4  A    between atoms: N_17  and  C_32
REMARK    5  A    between atoms: C_18  and  C_20
REMARK    6  A    between atoms: C_24  and  O_26
REMARK    7  A    between atoms: O_26  and  C_27
REMARK    8  A    between atoms: C_27  and  C_28
REMARK    9  A    between atoms: C_28  and  C_29
REMARK   10  A    between atoms: C_29  and  C_30
REMARK   11  A    between atoms: C_29  and  C_31
REMARK   12  A    between atoms: C_32  and  C_33
REMARK   13  A    between atoms: C_33  and  O_34
REMARK                            x       y       z     vdW  Elec       q    Type
REMARK                         _______ _______ _______ _____ _____    ______ ____
ROOT
ATOM      1  C   UNL     1      -0.294  -4.888  -0.340  0.00  0.00    +0.102 A 
ATOM      2  C   UNL     1      -0.034  -5.541   0.869  0.00  0.00    +0.035 A 
ATOM      3  C   UNL     1       0.171  -6.868   0.544  0.00  0.00    +0.126 A 
ATOM      4  N   UNL     1       0.029  -6.952  -0.812  0.00  0.00    -0.272 N 
ATOM      5  H   UNL     1       0.117  -7.767  -1.332  0.00  0.00    +0.189 HD
ATOM      6  N   UNL     1      -0.245  -5.794  -1.297  0.00  0.00    -0.173 NA
ATOM      7  C   UNL     1       0.449  -7.613   1.776  0.00  0.00    +0.266 C 
ATOM      8  O   UNL     1       0.674  -8.807   1.830  0.00  0.00    -0.268 OA
ATOM      9  N   UNL     1       0.421  -6.789   2.839  0.00  0.00    -0.283 N 
ATOM     10  C   UNL     1       0.119  -5.433   2.362  0.00  0.00    +0.141 C 
ENDROOT
BRANCH   1  15
ATOM     11  C   UNL     1      -1.402   0.729  -1.011  0.00  0.00    +0.045 C 
ATOM     12  C   UNL     1      -1.112  -0.740  -0.838  0.00  0.00    -0.029 A 
ATOM     13  C   UNL     1      -0.978  -1.550  -1.950  0.00  0.00    +0.050 A 
ATOM     14  C   UNL     1      -0.712  -2.901  -1.796  0.00  0.00    +0.126 A 
ATOM     15  C   UNL     1      -0.579  -3.441  -0.513  0.00  0.00    +0.045 A 
ATOM     16  C   UNL     1      -0.714  -2.617   0.600  0.00  0.00    +0.034 A 
ATOM     17  C   UNL     1      -0.975  -1.270   0.433  0.00  0.00    +0.045 A 
ATOM     18 CL   UNL     1      -1.137  -0.242   1.822  0.00  0.00    -0.083 Cl
BRANCH  14  19
ATOM     19  O   UNL     1      -0.582  -3.699  -2.888  0.00  0.00    -0.506 OA
ATOM     20  H   UNL     1       0.323  -3.761  -3.224  0.00  0.00    +0.292 HD
ENDBRANCH  14  19
ENDBRANCH   1  15
BRANCH  10  21
ATOM     21  C   UNL     1       1.251  -4.499   2.701  0.00  0.00    -0.019 A 
ATOM     22  C   UNL     1       2.518  -4.740   2.203  0.00  0.00    +0.006 A 
ATOM     23  C   UNL     1       3.560  -3.885   2.512  0.00  0.00    +0.004 A 
ATOM     24  C   UNL     1       3.336  -2.787   3.321  0.00  0.00    +0.045 A 
ATOM     25  C   UNL     1       2.066  -2.542   3.821  0.00  0.00    +0.121 A 
ATOM     26  C   UNL     1       1.022  -3.399   3.505  0.00  0.00    +0.051 A 
BRANCH  25  27
ATOM     27  O   UNL     1       1.844  -1.463   4.617  0.00  0.00    -0.492 OA
BRANCH  27  28
ATOM     28  C   UNL     1       2.964  -0.622   4.896  0.00  0.00    +0.229 C 
BRANCH  28  29
ATOM     29  C   UNL     1       2.523   0.532   5.800  0.00  0.00    +0.044 C 
BRANCH  29  30
ATOM     30  C   UNL     1       3.723   1.433   6.099  0.00  0.00    -0.014 C 
ATOM     31  C   UNL     1       4.201   2.093   4.804  0.00  0.00    +0.007 C 
ATOM     32  C   UNL     1       3.312   2.514   7.101  0.00  0.00    +0.007 C 
ENDBRANCH  29  30
ENDBRANCH  28  29
ENDBRANCH  27  28
ENDBRANCH  25  27
ENDBRANCH  10  21
BRANCH   9  33
ATOM     33  C   UNL     1       0.653  -7.177   4.232  0.00  0.00    +0.137 C 
BRANCH  33  34
ATOM     34  C   UNL     1       2.157  -7.211   4.509  0.00  0.00    +0.175 C 
BRANCH  34  35
ATOM     35  O   UNL     1       2.681  -5.883   4.458  0.00  0.00    -0.393 OA
ATOM     36  H   UNL     1       3.632  -5.828   4.624  0.00  0.00    +0.209 HD
ENDBRANCH  34  35
ENDBRANCH  33  34
ENDBRANCH   9  33
TORSDOF 10
