REMARK  Name = ZINC35929989
REMARK  8 active torsions:
REMARK  status: ('A' for Active; 'I' for Inactive)
REMARK    1  A    between atoms: C_1  and  O_2
REMARK    2  A    between atoms: O_2  and  C_3
REMARK    3  A    between atoms: C_6  and  C_9
REMARK    4  A    between atoms: C_9  and  C_10
REMARK    5  A    between atoms: C_10  and  N_11
REMARK    6  A    between atoms: C_14  and  C_29
REMARK    7  A    between atoms: C_16  and  N_28
REMARK    8  A    between atoms: N_17  and  C_21
REMARK                            x       y       z     vdW  Elec       q    Type
REMARK                         _______ _______ _______ _____ _____    ______ ____
ROOT
ATOM      1  N   UNL     1       5.056  -2.308  -5.454  0.00  0.00    -0.313 N 
ATOM      2  C   UNL     1       6.351  -2.784  -5.346  0.00  0.00    +0.218 A 
ATOM      3  N   UNL     1       6.944  -3.248  -6.442  0.00  0.00    -0.214 NA
ATOM      4  C   UNL     1       8.183  -3.723  -6.427  0.00  0.00    +0.089 A 
ATOM      5  C   UNL     1       8.883  -3.728  -5.199  0.00  0.00    +0.086 A 
ATOM      6  C   UNL     1      10.145  -4.124  -4.775  0.00  0.00    +0.131 A 
ATOM      7  N   UNL     1      10.227  -3.871  -3.454  0.00  0.00    -0.215 N 
ATOM      8  N   UNL     1       9.027  -3.311  -3.001  0.00  0.00    -0.144 NA
ATOM      9  C   UNL     1       8.188  -3.205  -4.009  0.00  0.00    +0.189 A 
ATOM     10  N   UNL     1       6.931  -2.747  -4.164  0.00  0.00    -0.193 NA
ATOM     11  H   UNL     1       4.605  -2.323  -6.313  0.00  0.00    +0.149 HD
ENDROOT
BRANCH   7  12
ATOM     12  C   UNL     1      11.346  -4.131  -2.653  0.00  0.00    +0.086 A 
ATOM     13  C   UNL     1      12.543  -4.526  -3.236  0.00  0.00    +0.029 A 
ATOM     14  C   UNL     1      13.645  -4.781  -2.444  0.00  0.00    +0.002 A 
ATOM     15  C   UNL     1      13.558  -4.642  -1.071  0.00  0.00    +0.002 A 
ATOM     16  C   UNL     1      12.369  -4.248  -0.486  0.00  0.00    +0.022 A 
ATOM     17  C   UNL     1      11.263  -3.987  -1.273  0.00  0.00    +0.066 A 
ATOM     18 CL   UNL     1       9.772  -3.486  -0.539  0.00  0.00    -0.081 Cl
ENDBRANCH   7  12
BRANCH   4  19
ATOM     19  C   UNL     1       8.815  -4.233  -7.663  0.00  0.00    +0.001 A 
ATOM     20  C   UNL     1       9.539  -5.427  -7.639  0.00  0.00    +0.013 A 
ATOM     21  C   UNL     1      10.126  -5.898  -8.794  0.00  0.00    +0.039 A 
ATOM     22  C   UNL     1       9.999  -5.189  -9.978  0.00  0.00    +0.123 A 
ATOM     23  C   UNL     1       9.282  -4.003 -10.008  0.00  0.00    +0.039 A 
ATOM     24  C   UNL     1       8.686  -3.526  -8.860  0.00  0.00    +0.013 A 
ATOM     25  F   UNL     1      10.577  -5.654 -11.107  0.00  0.00    -0.205 F 
ENDBRANCH   4  19
BRANCH   6  26
ATOM     26  N   UNL     1      11.137  -4.677  -5.564  0.00  0.00    -0.342 N 
ATOM     27  H   UNL     1      11.309  -4.317  -6.449  0.00  0.00    +0.144 HD
ATOM     28  H   UNL     1      11.660  -5.423  -5.234  0.00  0.00    +0.144 HD
ENDBRANCH   6  26
BRANCH   1  29
ATOM     29  C   UNL     1       4.368  -1.782  -4.273  0.00  0.00    +0.109 C 
BRANCH  29  30
ATOM     30  C   UNL     1       2.961  -1.325  -4.664  0.00  0.00    +0.054 C 
BRANCH  30  34
ATOM     31  C   UNL     1       0.953   0.209  -1.218  0.00  0.00    +0.120 A 
ATOM     32  C   UNL     1       1.703   1.057  -2.020  0.00  0.00    +0.046 A 
ATOM     33  C   UNL     1       2.351   0.558  -3.133  0.00  0.00    +0.007 A 
ATOM     34  C   UNL     1       2.253  -0.784  -3.449  0.00  0.00    -0.046 A 
ATOM     35  C   UNL     1       1.506  -1.631  -2.651  0.00  0.00    +0.007 A 
ATOM     36  C   UNL     1       0.860  -1.139  -1.534  0.00  0.00    +0.046 A 
BRANCH  31  38
ATOM     37  C   UNL     1       0.453   2.095   0.141  0.00  0.00    +0.277 C 
ATOM     38  O   UNL     1       0.314   0.697  -0.122  0.00  0.00    -0.495 OA
ENDBRANCH  31  38
ENDBRANCH  30  34
ENDBRANCH  29  30
ENDBRANCH   1  29
TORSDOF 7
