REMARK  Name = ZINC02529378
REMARK  5 active torsions:
REMARK  status: ('A' for Active; 'I' for Inactive)
REMARK    1  A    between atoms: C_14  and  C_15
REMARK    2  A    between atoms: N_17  and  N_18
REMARK    3  A    between atoms: C_19  and  C_20
REMARK    4  A    between atoms: C_21  and  C_22
REMARK    5  A    between atoms: C_27  and  N_28
REMARK                            x       y       z     vdW  Elec       q    Type
REMARK                         _______ _______ _______ _____ _____    ______ ____
ROOT
ATOM      1  C   UNL     1       5.572  -3.989   0.486  0.00  0.00    +0.284 C 
ATOM      2  O   UNL     1       4.783  -4.800   0.039  0.00  0.00    -0.267 OA
ATOM      3  N   UNL     1       6.888  -4.277   0.520  0.00  0.00    -0.202 N 
ATOM      4  H   UNL     1       7.517  -3.631   0.877  0.00  0.00    +0.178 HD
ENDROOT
BRANCH   1  18
ATOM      5  C   UNL     1       0.158   1.105   2.092  0.00  0.00    +0.000 A 
ATOM      6  C   UNL     1       1.351   1.788   2.245  0.00  0.00    +0.001 A 
ATOM      7  C   UNL     1       2.551   1.119   2.094  0.00  0.00    +0.010 A 
ATOM      8  C   UNL     1       2.549  -0.235   1.790  0.00  0.00    +0.003 A 
ATOM      9  C   UNL     1       1.343  -0.936   1.671  0.00  0.00    -0.038 A 
ATOM     10  C   UNL     1       0.153  -0.248   1.807  0.00  0.00    +0.004 A 
ATOM     11  C   UNL     1       1.329  -2.423   1.449  0.00  0.00    +0.040 C 
ATOM     12  C   UNL     1       2.484  -2.897   0.568  0.00  0.00    +0.044 C 
ATOM     13  C   UNL     1       3.762  -2.251   1.019  0.00  0.00    +0.010 A 
ATOM     14  C   UNL     1       3.796  -0.996   1.583  0.00  0.00    +0.070 A 
ATOM     15  N   UNL     1       5.088  -0.717   1.848  0.00  0.00    -0.276 N 
ATOM     16  H   UNL     1       5.412   0.109   2.240  0.00  0.00    +0.189 HD
ATOM     17  N   UNL     1       5.828  -1.716   1.502  0.00  0.00    -0.168 NA
ATOM     18  C   UNL     1       5.087  -2.688   0.990  0.00  0.00    +0.152 A 
ENDBRANCH   1  18
BRANCH   3  19
ATOM     19  N   UNL     1       7.348  -5.511   0.042  0.00  0.00    -0.188 NA
ATOM     20  C   UNL     1       8.620  -5.790   0.075  0.00  0.00    +0.130 C 
BRANCH  20  21
ATOM     21  C   UNL     1       9.085  -7.039  -0.409  0.00  0.00    +0.022 C 
ATOM     22  C   UNL     1      10.402  -7.327  -0.374  0.00  0.00    +0.012 C 
BRANCH  22  23
ATOM     23  C   UNL     1      10.885  -8.624  -0.877  0.00  0.00    +0.005 A 
ATOM     24  C   UNL     1       9.987  -9.677  -1.082  0.00  0.00    +0.010 A 
ATOM     25  C   UNL     1      10.447 -10.888  -1.553  0.00  0.00    +0.001 A 
ATOM     26  C   UNL     1      11.793 -11.063  -1.823  0.00  0.00    +0.002 A 
ATOM     27  C   UNL     1      12.688 -10.026  -1.623  0.00  0.00    +0.033 A 
ATOM     28  C   UNL     1      12.242  -8.807  -1.158  0.00  0.00    +0.133 A 
BRANCH  28  29
ATOM     29  N   UNL     1      13.200  -7.697  -0.950  0.00  0.00    +0.057 N 
ATOM     30  O   UNL     1      12.872  -6.561  -1.203  0.00  0.00    -0.126 OA
ATOM     31  O   UNL     1      14.309  -7.926  -0.528  0.00  0.00    -0.126 OA
ENDBRANCH  28  29
ENDBRANCH  22  23
ENDBRANCH  20  21
ENDBRANCH   3  19
TORSDOF 5
