REMARK  Name = ZINC23313413
REMARK  12 active torsions:
REMARK  status: ('A' for Active; 'I' for Inactive)
REMARK    1  A    between atoms: C_1  and  C_2
REMARK    2  A    between atoms: C_6  and  S_8
REMARK    3  A    between atoms: S_8  and  N_11
REMARK    4  A    between atoms: N_15  and  C_18
REMARK    5  A    between atoms: C_18  and  C_19
REMARK    6  A    between atoms: C_23  and  O_26
REMARK    7  A    between atoms: O_26  and  C_27
REMARK    8  A    between atoms: C_27  and  C_28
REMARK    9  A    between atoms: C_31  and  C_34
REMARK   10  A    between atoms: C_34  and  C_35
REMARK   11  A    between atoms: C_34  and  C_36
REMARK   12  A    between atoms: C_34  and  C_37
REMARK                            x       y       z     vdW  Elec       q    Type
REMARK                         _______ _______ _______ _____ _____    ______ ____
ROOT
ATOM      1  C   UNL     1       5.542   6.684  -4.191  0.00  0.00    -0.003 C 
ENDROOT
BRANCH   1   6
ATOM      2  N   UNL     1       3.077   4.326  -1.585  0.00  0.00    -0.178 NA
ATOM      3  C   UNL     1       3.894   3.381  -2.293  0.00  0.00    +0.107 C 
ATOM      4  C   UNL     1       5.420   3.610  -2.236  0.00  0.00    -0.001 C 
ATOM      5  C   UNL     1       5.725   5.122  -2.381  0.00  0.00    -0.077 C 
ATOM      6  N   UNL     1       4.831   5.722  -3.339  0.00  0.00    +0.385 N 
ATOM      7  C   UNL     1       3.788   6.385  -2.558  0.00  0.00    -0.061 C 
ATOM      8  C   UNL     1       2.603   5.557  -2.303  0.00  0.00    +0.091 C 
ATOM      9  H   UNL     1       4.410   4.953  -4.003  0.00  0.00    -0.081 HD
BRANCH   2  10
ATOM     10  S   UNL     1       2.670   4.067  -0.000  0.00  0.00    +0.061 S 
ATOM     11  O   UNL     1       2.387   5.342   0.560  0.00  0.00    -0.153 OA
ATOM     12  O   UNL     1       3.661   3.202   0.537  0.00  0.00    -0.153 OA
BRANCH  10  18
ATOM     13  C   UNL     1      -2.553   3.869   0.044  0.00  0.00    +0.044 C 
ATOM     14  C   UNL     1      -1.238   3.133   0.029  0.00  0.00    -0.049 A 
ATOM     15  C   UNL     1      -1.219   1.750   0.017  0.00  0.00    +0.003 A 
ATOM     16  C   UNL     1      -0.013   1.076   0.008  0.00  0.00    +0.002 A 
ATOM     17  C   UNL     1       1.175   1.783   0.000  0.00  0.00    +0.028 A 
ATOM     18  C   UNL     1       1.157   3.165   0.008  0.00  0.00    +0.106 A 
ATOM     19  C   UNL     1      -0.050   3.840   0.023  0.00  0.00    +0.032 A 
ENDBRANCH  10  18
ENDBRANCH   2  10
ENDBRANCH   1   6
BRANCH   1  20
ATOM     20  C   UNL     1       6.757   6.022  -4.790  0.00  0.00    +0.092 A 
ATOM     21  C   UNL     1       6.652   5.388  -5.975  0.00  0.00    +0.094 A 
ATOM     22  C   UNL     1       7.800   4.769  -6.528  0.00  0.00    +0.226 A 
ATOM     23  O   UNL     1       7.744   4.184  -7.599  0.00  0.00    -0.284 OA
ATOM     24  C   UNL     1       9.021   4.848  -5.801  0.00  0.00    +0.202 A 
ATOM     25  C   UNL     1       9.036   5.504  -4.621  0.00  0.00    +0.244 A 
ATOM     26  O   UNL     1       7.925   6.079  -4.139  0.00  0.00    -0.466 OA
BRANCH  24  27
ATOM     27  O   UNL     1      10.154   4.272  -6.287  0.00  0.00    -0.481 OA
BRANCH  27  28
ATOM     28  C   UNL     1      11.336   4.397  -5.495  0.00  0.00    +0.264 C 
BRANCH  28  29
ATOM     29  C   UNL     1      12.481   3.703  -6.188  0.00  0.00    -0.010 A 
ATOM     30  C   UNL     1      12.736   2.368  -5.932  0.00  0.00    +0.007 A 
ATOM     31  C   UNL     1      13.783   1.730  -6.571  0.00  0.00    +0.004 A 
ATOM     32  C   UNL     1      14.580   2.429  -7.457  0.00  0.00    -0.042 A 
ATOM     33  C   UNL     1      14.328   3.764  -7.710  0.00  0.00    +0.004 A 
ATOM     34  C   UNL     1      13.279   4.401  -7.074  0.00  0.00    +0.007 A 
BRANCH  32  35
ATOM     35  C   UNL     1      15.725   1.734  -8.150  0.00  0.00    -0.013 C 
ATOM     36  C   UNL     1      17.038   2.433  -7.790  0.00  0.00    +0.015 C 
ATOM     37  C   UNL     1      15.783   0.274  -7.698  0.00  0.00    +0.015 C 
ATOM     38  C   UNL     1      15.514   1.792  -9.664  0.00  0.00    +0.015 C 
ENDBRANCH  32  35
ENDBRANCH  28  29
ENDBRANCH  27  28
ENDBRANCH  24  27
ENDBRANCH   1  20
TORSDOF 8
