REMARK  Name = ZINC13777458
REMARK  7 active torsions:
REMARK  status: ('A' for Active; 'I' for Inactive)
REMARK    1  A    between atoms: C_1  and  C_2
REMARK    2  A    between atoms: C_2  and  O_3
REMARK    3  A    between atoms: O_3  and  C_4
REMARK    4  A    between atoms: C_6  and  C_11
REMARK    5  A    between atoms: C_9  and  O_10
REMARK    6  A    between atoms: N_19  and  C_22
REMARK    7  A    between atoms: N_31  and  C_32
REMARK                            x       y       z     vdW  Elec       q    Type
REMARK                         _______ _______ _______ _____ _____    ______ ____
ROOT
ATOM      1  C   UNL     1       0.819  -4.855   0.078  0.00  0.00    +0.157 C 
ATOM      2  C   UNL     1       1.045  -5.472   1.478  0.00  0.00    +0.145 C 
ATOM      3  C   UNL     1       0.241  -6.799   1.422  0.00  0.00    +0.249 C 
ATOM      4  C   UNL     1      -0.840  -6.594   2.462  0.00  0.00    +0.259 C 
ATOM      5  O   UNL     1      -1.685  -7.409   2.764  0.00  0.00    -0.272 OA
ATOM      6  N   UNL     1      -0.717  -5.373   2.995  0.00  0.00    -0.205 N 
ATOM      7  C   UNL     1       0.319  -4.644   2.513  0.00  0.00    +0.235 C 
ATOM      8  O   UNL     1       0.619  -3.517   2.845  0.00  0.00    -0.274 OA
ATOM      9  O   UNL     1      -0.353  -6.838   0.112  0.00  0.00    -0.257 OA
ATOM     10  N   UNL     1       0.454  -6.033  -0.747  0.00  0.00    -0.244 N 
ENDROOT
BRANCH   6  11
ATOM     11  C   UNL     1      -1.586  -4.886   3.983  0.00  0.00    +0.080 A 
ATOM     12  C   UNL     1      -2.849  -4.427   3.633  0.00  0.00    +0.064 A 
ATOM     13  C   UNL     1      -3.703  -3.948   4.609  0.00  0.00    +0.022 A 
ATOM     14  C   UNL     1      -3.301  -3.925   5.931  0.00  0.00    +0.003 A 
ATOM     15  C   UNL     1      -2.044  -4.380   6.283  0.00  0.00    +0.022 A 
ATOM     16  C   UNL     1      -1.187  -4.866   5.313  0.00  0.00    +0.064 A 
ATOM     17 CL   UNL     1       0.389  -5.445   5.757  0.00  0.00    -0.082 Cl
ATOM     18 CL   UNL     1      -3.355  -4.455   1.973  0.00  0.00    -0.082 Cl
ENDBRANCH   6  11
BRANCH   1  21
ATOM     19  C   UNL     1      -2.603  -3.301  -0.309  0.00  0.00    +0.162 A 
ATOM     20  C   UNL     1      -1.565  -4.218  -0.338  0.00  0.00    +0.055 A 
ATOM     21  C   UNL     1      -0.309  -3.856   0.110  0.00  0.00    -0.018 A 
ATOM     22  C   UNL     1      -0.084  -2.578   0.588  0.00  0.00    +0.009 A 
ATOM     23  C   UNL     1      -1.115  -1.658   0.620  0.00  0.00    +0.049 A 
ATOM     24  C   UNL     1      -2.375  -2.013   0.167  0.00  0.00    +0.158 A 
BRANCH  24  25
ATOM     25  O   UNL     1      -3.389  -1.107   0.192  0.00  0.00    -0.503 OA
ATOM     26  H   UNL     1      -3.897  -1.108   1.015  0.00  0.00    +0.292 HD
ENDBRANCH  24  25
BRANCH  19  27
ATOM     27  O   UNL     1      -3.839  -3.656  -0.749  0.00  0.00    -0.489 OA
BRANCH  27  29
ATOM     28  C   UNL     1      -5.446  -5.206  -1.674  0.00  0.00    +0.048 C 
ATOM     29  C   UNL     1      -3.999  -4.994  -1.224  0.00  0.00    +0.226 C 
ENDBRANCH  27  29
ENDBRANCH  19  27
ENDBRANCH   1  21
BRANCH  10  30
ATOM     30  C   UNL     1       0.828  -6.301  -2.066  0.00  0.00    +0.065 A 
ATOM     31  C   UNL     1       1.642  -5.410  -2.753  0.00  0.00    +0.028 A 
ATOM     32  C   UNL     1       2.010  -5.679  -4.057  0.00  0.00    +0.002 A 
ATOM     33  C   UNL     1       1.569  -6.834  -4.678  0.00  0.00    +0.000 A 
ATOM     34  C   UNL     1       0.759  -7.723  -3.996  0.00  0.00    +0.002 A 
ATOM     35  C   UNL     1       0.391  -7.463  -2.690  0.00  0.00    +0.028 A 
ENDBRANCH  10  30
TORSDOF 6
