REMARK  Name = ZINC36313731
REMARK  15 active torsions:
REMARK  status: ('A' for Active; 'I' for Inactive)
REMARK    1  A    between atoms: C_1  and  C_2
REMARK    2  A    between atoms: C_2  and  C_3
REMARK    3  A    between atoms: C_3  and  C_4
REMARK    4  A    between atoms: C_4  and  C_5
REMARK    5  A    between atoms: C_5  and  C_7
REMARK    6  A    between atoms: C_5  and  O_37
REMARK    7  A    between atoms: C_7  and  N_8
REMARK    8  A    between atoms: N_8  and  C_9
REMARK    9  A    between atoms: N_8  and  C_15
REMARK   10  A    between atoms: C_9  and  C_10
REMARK   11  A    between atoms: C_15  and  C_16
REMARK   12  A    between atoms: C_17  and  C_36
REMARK   13  A    between atoms: N_19  and  C_30
REMARK   14  A    between atoms: C_20  and  O_21
REMARK   15  A    between atoms: O_21  and  C_22
REMARK                            x       y       z     vdW  Elec       q    Type
REMARK                         _______ _______ _______ _____ _____    ______ ____
ROOT
ATOM      1  C   UNL     1       3.270  -6.812  -5.295  0.00  0.00    +0.021 A 
ATOM      2  C   UNL     1       3.256  -6.772  -6.692  0.00  0.00    +0.065 A 
ATOM      3  N   UNL     1       4.485  -6.892  -7.123  0.00  0.00    -0.168 NA
ATOM      4  N   UNL     1       5.332  -7.014  -6.014  0.00  0.00    -0.200 N 
ATOM      5  C   UNL     1       4.561  -6.956  -4.894  0.00  0.00    +0.225 A 
ATOM      6  C   UNL     1       2.031  -6.617  -7.557  0.00  0.00    +0.068 C 
ENDROOT
BRANCH   4   7
ATOM      7  C   UNL     1       6.725  -7.164  -6.051  0.00  0.00    +0.069 A 
ATOM      8  C   UNL     1       7.522  -6.484  -5.139  0.00  0.00    +0.028 A 
ATOM      9  C   UNL     1       8.895  -6.634  -5.177  0.00  0.00    +0.002 A 
ATOM     10  C   UNL     1       9.475  -7.460  -6.123  0.00  0.00    +0.000 A 
ATOM     11  C   UNL     1       8.684  -8.137  -7.032  0.00  0.00    +0.002 A 
ATOM     12  C   UNL     1       7.311  -7.996  -6.995  0.00  0.00    +0.028 A 
ENDBRANCH   4   7
BRANCH   1  13
ATOM     13  C   UNL     1       2.068  -6.707  -4.392  0.00  0.00    -0.035 C 
BRANCH  13  14
ATOM     14  N   UNL     1       1.913  -5.317  -3.942  0.00  0.00    +0.389 N 
ATOM     15  H   UNL     1       2.773  -5.002  -3.521  0.00  0.00    -0.081 HD
BRANCH  14  16
ATOM     16  C   UNL     1       1.589  -4.464  -5.093  0.00  0.00    -0.046 C 
BRANCH  16  17
ATOM     17  C   UNL     1       1.551  -3.001  -4.648  0.00  0.00    +0.098 C 
BRANCH  17  18
ATOM     18  O   UNL     1       2.856  -2.595  -4.231  0.00  0.00    -0.394 OA
ATOM     19  H   UNL     1       3.529  -2.665  -4.921  0.00  0.00    +0.210 HD
ENDBRANCH  17  18
BRANCH  17  20
ATOM     20  C   UNL     1       1.093  -2.124  -5.816  0.00  0.00    +0.029 C 
BRANCH  20  21
ATOM     21  C   UNL     1       0.934  -0.679  -5.337  0.00  0.00    +0.002 C 
BRANCH  21  23
ATOM     22  C   UNL     1       0.317   1.642  -6.026  0.00  0.00    +0.004 C 
ATOM     23  C   UNL     1       0.476   0.197  -6.505  0.00  0.00    -0.003 C 
ENDBRANCH  21  23
ENDBRANCH  20  21
ENDBRANCH  17  20
ENDBRANCH  16  17
ENDBRANCH  14  16
BRANCH  14  24
ATOM     24  C   UNL     1       0.827  -5.240  -2.956  0.00  0.00    -0.003 C 
BRANCH  24  25
ATOM     25  C   UNL     1       1.219  -6.005  -1.718  0.00  0.00    +0.089 A 
ATOM     26  C   UNL     1       1.803  -5.485  -0.623  0.00  0.00    +0.042 A 
ATOM     27  C   UNL     1       1.990  -6.550   0.287  0.00  0.00    +0.041 A 
ATOM     28  C   UNL     1       1.510  -7.658  -0.305  0.00  0.00    +0.195 A 
ATOM     29  O   UNL     1       1.038  -7.321  -1.517  0.00  0.00    -0.470 OA
ENDBRANCH  24  25
ENDBRANCH  14  24
ENDBRANCH  13  14
ENDBRANCH   1  13
BRANCH   5  30
ATOM     30  O   UNL     1       5.001  -7.031  -3.613  0.00  0.00    -0.435 OA
BRANCH  30  31
ATOM     31  C   UNL     1       5.178  -8.265  -3.070  0.00  0.00    +0.166 A 
ATOM     32  C   UNL     1       5.016  -9.398  -3.853  0.00  0.00    +0.052 A 
ATOM     33  C   UNL     1       5.197 -10.651  -3.300  0.00  0.00    +0.042 A 
ATOM     34  C   UNL     1       5.541 -10.778  -1.965  0.00  0.00    +0.126 A 
ATOM     35  C   UNL     1       5.704  -9.649  -1.181  0.00  0.00    +0.080 A 
ATOM     36  C   UNL     1       5.529  -8.392  -1.732  0.00  0.00    +0.168 A 
ATOM     37  F   UNL     1       5.693  -7.290  -0.968  0.00  0.00    -0.202 F 
ATOM     38  F   UNL     1       5.718 -12.005  -1.427  0.00  0.00    -0.205 F 
ENDBRANCH  30  31
ENDBRANCH   5  30
TORSDOF 13
