REMARK  Name = ZINC09795350
REMARK  7 active torsions:
REMARK  status: ('A' for Active; 'I' for Inactive)
REMARK    1  A    between atoms: C_4  and  C_7
REMARK    2  A    between atoms: C_7  and  C_9
REMARK    3  A    between atoms: C_7  and  N_14
REMARK    4  A    between atoms: C_15  and  C_17
REMARK    5  A    between atoms: C_17  and  N_53
REMARK    6  A    between atoms: N_20  and  S_23
REMARK    7  A    between atoms: S_23  and  C_26
REMARK                            x       y       z     vdW  Elec       q    Type
REMARK                         _______ _______ _______ _____ _____    ______ ____
ROOT
ATOM      1  C   UNL     1       3.712  -0.352  -5.744  0.00  0.00    +0.019 C 
ENDROOT
BRANCH   1   7
ATOM      2  C   UNL     1       4.316   0.720  -3.659  0.00  0.00    -0.061 C 
ATOM      3  C   UNL     1       5.082   0.517  -2.348  0.00  0.00    +0.091 C 
ATOM      4  N   UNL     1       4.483  -0.617  -1.627  0.00  0.00    -0.180 NA
ATOM      5  C   UNL     1       4.300  -1.883  -2.352  0.00  0.00    +0.091 C 
ATOM      6  C   UNL     1       3.559  -1.584  -3.665  0.00  0.00    -0.061 C 
ATOM      7  N   UNL     1       4.315  -0.554  -4.410  0.00  0.00    +0.387 N 
ATOM      8  H   UNL     1       5.284  -0.872  -4.527  0.00  0.00    -0.081 HD
BRANCH   4   9
ATOM      9  S   UNL     1       4.034  -0.473  -0.040  0.00  0.00    +0.067 S 
ATOM     10  O   UNL     1       4.814   0.580   0.509  0.00  0.00    -0.152 OA
ATOM     11  O   UNL     1       4.036  -1.786   0.503  0.00  0.00    -0.152 OA
BRANCH   9  12
ATOM     12  C   UNL     1       2.360   0.077  -0.020  0.00  0.00    +0.144 A 
ATOM     13  C   UNL     1       1.221  -0.657  -0.013  0.00  0.00    +0.038 A 
ATOM     14  C   UNL     1       0.002  -0.004   0.002  0.00  0.00    +0.030 A 
ATOM     15  C   UNL     1      -0.016   1.352   0.009  0.00  0.00    +0.080 A 
ATOM     16  S   UNL     1       1.725   1.745  -0.005  0.00  0.00    -0.057 S 
ATOM     17 CL   UNL     1      -1.379   2.427   0.022  0.00  0.00    -0.076 Cl
ENDBRANCH   9  12
ENDBRANCH   4   9
ENDBRANCH   1   7
BRANCH   1  19
ATOM     18  N   UNL     1       3.472  -1.654  -7.834  0.00  0.00    -0.303 N 
ATOM     19  C   UNL     1       3.920  -1.599  -6.564  0.00  0.00    +0.197 C 
ATOM     20  O   UNL     1       4.490  -2.555  -6.081  0.00  0.00    -0.278 OA
ATOM     21  H   UNL     1       3.015  -0.890  -8.220  0.00  0.00    +0.150 HD
BRANCH  18  22
ATOM     22  C   UNL     1       3.674  -2.866  -8.631  0.00  0.00    +0.169 C 
BRANCH  22  26
ATOM     23  C   UNL     1       3.668  -1.859 -12.782  0.00  0.00    +0.000 A 
ATOM     24  C   UNL     1       4.565  -2.793 -12.299  0.00  0.00    +0.000 A 
ATOM     25  C   UNL     1       4.567  -3.119 -10.956  0.00  0.00    +0.006 A 
ATOM     26  C   UNL     1       3.672  -2.511 -10.096  0.00  0.00    -0.020 A 
ATOM     27  C   UNL     1       2.771  -1.580 -10.580  0.00  0.00    +0.006 A 
ATOM     28  C   UNL     1       2.772  -1.251 -11.922  0.00  0.00    +0.000 A 
ENDBRANCH  22  26
BRANCH  22  29
ATOM     29  C   UNL     1       2.562  -3.844  -8.350  0.00  0.00    +0.129 A 
ATOM     30  C   UNL     1       2.699  -5.176  -8.225  0.00  0.00    +0.047 A 
ATOM     31  C   UNL     1       1.411  -5.697  -7.964  0.00  0.00    +0.041 A 
ATOM     32  C   UNL     1       0.563  -4.653  -7.953  0.00  0.00    +0.195 A 
ATOM     33  O   UNL     1       1.266  -3.533  -8.187  0.00  0.00    -0.466 OA
ENDBRANCH  22  29
ENDBRANCH  18  22
ENDBRANCH   1  19
TORSDOF 7
