REMARK  Name = ZINC36272645
REMARK  6 active torsions:
REMARK  status: ('A' for Active; 'I' for Inactive)
REMARK    1  A    between atoms: C_1  and  C_2
REMARK    2  A    between atoms: N_5  and  C_11
REMARK    3  A    between atoms: C_7  and  C_10
REMARK    4  A    between atoms: C_11  and  C_12
REMARK    5  A    between atoms: C_13  and  C_22
REMARK    6  A    between atoms: C_18  and  N_21
REMARK                            x       y       z     vdW  Elec       q    Type
REMARK                         _______ _______ _______ _____ _____    ______ ____
ROOT
ATOM      1  C   UNL     1       4.176   0.223  -2.490  0.00  0.00    +0.063 A 
ATOM      2  C   UNL     1       4.453   1.434  -3.051  0.00  0.00    +0.069 A 
ATOM      3  N   UNL     1       5.760   1.685  -2.886  0.00  0.00    -0.339 N 
ATOM      4  C   UNL     1       6.319   0.672  -2.238  0.00  0.00    +0.116 A 
ATOM      5  N   UNL     1       5.346  -0.256  -1.972  0.00  0.00    -0.302 N 
ATOM      6  C   UNL     1       5.653  -1.409  -1.302  0.00  0.00    +0.115 A 
ATOM      7  C   UNL     1       6.921  -1.648  -0.888  0.00  0.00    +0.041 A 
ATOM      8  C   UNL     1       7.939  -0.708  -1.145  0.00  0.00    +0.028 A 
ATOM      9  C   UNL     1       7.644   0.436  -1.818  0.00  0.00    +0.046 A 
ATOM     10  H   UNL     1       6.223   2.481  -3.191  0.00  0.00    +0.167 HD
ENDROOT
BRANCH   2  11
ATOM     11  C   UNL     1       3.476   2.322  -3.728  0.00  0.00    +0.004 A 
ATOM     12  C   UNL     1       2.560   1.790  -4.635  0.00  0.00    +0.014 A 
ATOM     13  C   UNL     1       1.654   2.617  -5.265  0.00  0.00    +0.050 A 
ATOM     14  C   UNL     1       1.649   3.980  -4.999  0.00  0.00    +0.162 A 
ATOM     15  C   UNL     1       2.558   4.515  -4.094  0.00  0.00    +0.163 A 
ATOM     16  C   UNL     1       3.467   3.688  -3.456  0.00  0.00    +0.059 A 
ATOM     17  O   UNL     1       2.562   5.848  -3.816  0.00  0.00    -0.485 OA
ATOM     18  C   UNL     1       1.884   6.701  -4.744  0.00  0.00    +0.270 C 
ATOM     19  C   UNL     1       0.521   6.072  -5.067  0.00  0.00    +0.270 C 
ATOM     20  O   UNL     1       0.748   4.778  -5.635  0.00  0.00    -0.485 OA
ENDBRANCH   2  11
BRANCH   7  21
ATOM     21  N   UNL     1       7.220  -2.833  -0.203  0.00  0.00    -0.357 N 
ATOM     22  H   UNL     1       6.521  -3.481  -0.025  0.00  0.00    +0.142 HD
ATOM     23  H   UNL     1       8.128  -3.005   0.095  0.00  0.00    +0.142 HD
ENDBRANCH   7  21
BRANCH   1  24
ATOM     24  C   UNL     1       2.832  -0.456  -2.443  0.00  0.00    +0.140 C 
BRANCH  24  28
ATOM     25  C   UNL     1      -0.019   1.526   0.010  0.00  0.00    +0.039 C 
ATOM     26  C   UNL     1       0.002  -0.004   0.002  0.00  0.00    +0.130 C 
ATOM     27  C   UNL     1       0.720  -0.499  -1.256  0.00  0.00    +0.116 C 
ATOM     28  N   UNL     1       2.120  -0.050  -1.224  0.00  0.00    -0.292 NA
ATOM     29  C   UNL     1       2.801  -0.554  -0.023  0.00  0.00    +0.116 C 
ATOM     30  C   UNL     1       2.062  -0.059   1.223  0.00  0.00    +0.130 C 
ATOM     31  O   UNL     1       0.695  -0.479   1.159  0.00  0.00    -0.371 OA
ATOM     32  C   UNL     1       2.719  -0.646   2.474  0.00  0.00    +0.039 C 
ENDBRANCH  24  28
ENDBRANCH   1  24
TORSDOF 4
