REMARK  Name = ZINC16178870
REMARK  4 active torsions:
REMARK  status: ('A' for Active; 'I' for Inactive)
REMARK    1  A    between atoms: C_7  and  C_11
REMARK    2  A    between atoms: C_11  and  C_12
REMARK    3  A    between atoms: N_14  and  N_15
REMARK    4  A    between atoms: C_16  and  C_18
REMARK                            x       y       z     vdW  Elec       q    Type
REMARK                         _______ _______ _______ _____ _____    ______ ____
ROOT
ATOM      1  C   UNL     1       5.193   4.564   4.513  0.00  0.00    +0.233 C 
ATOM      2  O   UNL     1       6.212   4.617   3.858  0.00  0.00    -0.274 OA
ATOM      3  N   UNL     1       4.013   4.328   3.907  0.00  0.00    -0.234 N 
ATOM      4  H   UNL     1       3.198   4.285   4.431  0.00  0.00    +0.173 HD
ENDROOT
BRANCH   3   5
ATOM      5  N   UNL     1       3.963   4.145   2.518  0.00  0.00    -0.231 N 
ATOM      6  C   UNL     1       2.784   3.909   1.911  0.00  0.00    +0.270 C 
ATOM      7  O   UNL     1       1.764   3.856   2.567  0.00  0.00    -0.270 OA
ATOM      8  H   UNL     1       4.779   4.188   1.994  0.00  0.00    +0.173 HD
BRANCH   6   9
ATOM      9  C   UNL     1       2.730   3.713   0.418  0.00  0.00    +0.264 C 
ATOM     10  C   UNL     1       3.490   2.429   0.007  0.00  0.00    +0.093 C 
ATOM     11  C   UNL     1       2.379   1.397  -0.004  0.00  0.00    -0.000 A 
ATOM     12  C   UNL     1       2.396   0.020  -0.015  0.00  0.00    +0.027 A 
ATOM     13  C   UNL     1       1.206  -0.687  -0.012  0.00  0.00    +0.041 A 
ATOM     14  C   UNL     1       0.002  -0.004   0.002  0.00  0.00    +0.023 A 
ATOM     15  C   UNL     1      -0.017   1.375   0.010  0.00  0.00    +0.047 A 
ATOM     16  C   UNL     1       1.177   2.093   0.002  0.00  0.00    +0.125 A 
ATOM     17  O   UNL     1       1.386   3.439  -0.011  0.00  0.00    -0.479 OA
ATOM     18 CL   UNL     1       1.223  -2.422  -0.028  0.00  0.00    -0.084 Cl
ENDBRANCH   6   9
ENDBRANCH   3   5
BRANCH   1  19
ATOM     19  C   UNL     1       5.247   4.760   6.007  0.00  0.00    +0.134 C 
BRANCH  19  26
ATOM     20  C   UNL     1       7.918   8.608   6.201  0.00  0.00    +0.001 A 
ATOM     21  C   UNL     1       9.200   8.353   6.666  0.00  0.00    +0.002 A 
ATOM     22  C   UNL     1       9.579   7.076   7.017  0.00  0.00    +0.026 A 
ATOM     23  C   UNL     1       8.670   6.029   6.904  0.00  0.00    +0.047 A 
ATOM     24  C   UNL     1       7.373   6.292   6.426  0.00  0.00    +0.003 A 
ATOM     25  C   UNL     1       7.008   7.595   6.082  0.00  0.00    +0.010 A 
ATOM     26  C   UNL     1       6.672   5.006   6.430  0.00  0.00    -0.014 A 
ATOM     27  C   UNL     1       7.541   4.086   6.878  0.00  0.00    +0.087 A 
ATOM     28  N   UNL     1       8.740   4.679   7.166  0.00  0.00    -0.360 N 
ATOM     29  H   UNL     1       9.523   4.218   7.505  0.00  0.00    +0.165 HD
ENDBRANCH  19  26
ENDBRANCH   1  19
TORSDOF 4
