REMARK  Name = ZINC34906186
REMARK  8 active torsions:
REMARK  status: ('A' for Active; 'I' for Inactive)
REMARK    1  A    between atoms: C_1  and  C_2
REMARK    2  A    between atoms: C_5  and  O_8
REMARK    3  A    between atoms: O_8  and  C_9
REMARK    4  A    between atoms: C_9  and  C_10
REMARK    5  A    between atoms: C_12  and  C_15
REMARK    6  A    between atoms: N_17  and  C_18
REMARK    7  A    between atoms: C_24  and  N_26
REMARK    8  A    between atoms: N_29  and  C_30
REMARK                            x       y       z     vdW  Elec       q    Type
REMARK                         _______ _______ _______ _____ _____    ______ ____
ROOT
ATOM      1  C   UNL     1       4.408  -9.844   0.544  0.00  0.00    +0.093 C 
ATOM      2  C   UNL     1       4.714 -10.465   1.909  0.00  0.00    +0.024 C 
ATOM      3  C   UNL     1       5.868 -11.459   1.769  0.00  0.00    +0.002 C 
ATOM      4  C   UNL     1       7.110 -10.730   1.252  0.00  0.00    +0.002 C 
ATOM      5  C   UNL     1       6.804 -10.108  -0.112  0.00  0.00    +0.024 C 
ATOM      6  C   UNL     1       5.650  -9.114   0.027  0.00  0.00    +0.095 C 
ENDROOT
BRANCH   6   7
ATOM      7  N   UNL     1       5.357  -8.519  -1.280  0.00  0.00    -0.295 N 
ATOM      8  C   UNL     1       6.057  -7.448  -1.704  0.00  0.00    +0.300 C 
ATOM      9  O   UNL     1       6.931  -6.976  -1.003  0.00  0.00    -0.253 OA
ATOM     10  N   UNL     1       5.788  -6.901  -2.906  0.00  0.00    -0.294 N 
ATOM     11  H   UNL     1       4.660  -8.896  -1.839  0.00  0.00    +0.151 HD
ATOM     12  H   UNL     1       5.091  -7.277  -3.465  0.00  0.00    +0.151 HD
BRANCH  10  13
ATOM     13  C   UNL     1       6.549  -5.737  -3.367  0.00  0.00    +0.037 C 
ATOM     14  C   UNL     1       6.359  -4.581  -2.383  0.00  0.00    +0.029 C 
ATOM     15  C   UNL     1       7.154  -3.365  -2.865  0.00  0.00    -0.008 C 
ATOM     16  C   UNL     1       6.654  -2.945  -4.249  0.00  0.00    +0.007 C 
ATOM     17  C   UNL     1       6.844  -4.101  -5.233  0.00  0.00    -0.008 C 
ATOM     18  C   UNL     1       6.049  -5.317  -4.751  0.00  0.00    +0.029 C 
ATOM     19  C   UNL     1       8.328  -4.462  -5.315  0.00  0.00    +0.007 C 
ATOM     20  C   UNL     1       8.828  -4.883  -3.931  0.00  0.00    -0.008 C 
ATOM     21  C   UNL     1       8.638  -3.726  -2.947  0.00  0.00    +0.007 C 
ATOM     22  C   UNL     1       8.034  -6.098  -3.449  0.00  0.00    +0.029 C 
ENDBRANCH  10  13
ENDBRANCH   6   7
BRANCH   1  25
ATOM     23  C   UNL     1       2.028  -9.327   0.620  0.00  0.00    +0.263 C 
ATOM     24  O   UNL     1       1.796 -10.510   0.457  0.00  0.00    -0.269 OA
ATOM     25  N   UNL     1       3.303  -8.892   0.677  0.00  0.00    -0.305 N 
ATOM     26  H   UNL     1       3.488  -7.949   0.807  0.00  0.00    +0.149 HD
BRANCH  23  29
ATOM     27  C   UNL     1       0.090  -6.277   1.043  0.00  0.00    +0.116 A 
ATOM     28  N   UNL     1       1.127  -7.062   0.933  0.00  0.00    -0.236 NA
ATOM     29  C   UNL     1       0.917  -8.370   0.754  0.00  0.00    +0.133 A 
ATOM     30  C   UNL     1      -0.392  -8.768   0.702  0.00  0.00    +0.080 A 
ATOM     31  S   UNL     1      -1.219  -7.320   0.909  0.00  0.00    -0.076 S 
BRANCH  27  32
ATOM     32  C   UNL     1       0.072  -4.785   1.249  0.00  0.00    +0.291 C 
BRANCH  32  33
ATOM     33  O   UNL     1       0.057  -4.129  -0.021  0.00  0.00    -0.485 OA
BRANCH  33  38
ATOM     34  C   UNL     1      -0.018   1.503   0.010  0.00  0.00    +0.044 C 
ATOM     35  C   UNL     1       0.002  -0.004   0.002  0.00  0.00    -0.050 A 
ATOM     36  C   UNL     1       0.006  -0.688  -1.200  0.00  0.00    +0.007 A 
ATOM     37  C   UNL     1       0.024  -2.069  -1.210  0.00  0.00    +0.046 A 
ATOM     38  C   UNL     1       0.039  -2.770  -0.013  0.00  0.00    +0.121 A 
ATOM     39  C   UNL     1       0.036  -2.082   1.191  0.00  0.00    +0.046 A 
ATOM     40  C   UNL     1       0.023  -0.701   1.196  0.00  0.00    +0.007 A 
ENDBRANCH  33  38
ENDBRANCH  32  33
ENDBRANCH  27  32
ENDBRANCH  23  29
ENDBRANCH   1  25
TORSDOF 7
