REMARK  Name = ZINC63743461
REMARK  9 active torsions:
REMARK  status: ('A' for Active; 'I' for Inactive)
REMARK    1  A    between atoms: C_1  and  C_2
REMARK    2  A    between atoms: C_5  and  N_29
REMARK    3  A    between atoms: C_6  and  S_8
REMARK    4  A    between atoms: S_8  and  N_11
REMARK    5  A    between atoms: N_11  and  C_12
REMARK    6  A    between atoms: C_17  and  C_18
REMARK    7  A    between atoms: C_18  and  C_19
REMARK    8  A    between atoms: C_19  and  C_20
REMARK    9  A    between atoms: C_30  and  C_32
REMARK                            x       y       z     vdW  Elec       q    Type
REMARK                         _______ _______ _______ _____ _____    ______ ____
ROOT
ATOM      1  C   UNL     1      -1.968  -4.923   2.366  0.00  0.00    +0.051 A 
ATOM      2  C   UNL     1      -0.997  -5.684   1.726  0.00  0.00    +0.025 A 
ATOM      3  C   UNL     1      -1.366  -6.788   0.983  0.00  0.00    +0.002 A 
ATOM      4  C   UNL     1      -2.700  -7.137   0.876  0.00  0.00    +0.000 A 
ATOM      5  C   UNL     1      -3.669  -6.382   1.511  0.00  0.00    +0.005 A 
ATOM      6  C   UNL     1      -3.306  -5.280   2.261  0.00  0.00    -0.025 A 
ENDROOT
BRANCH   1   7
ATOM      7  N   UNL     1      -1.598  -3.806   3.118  0.00  0.00    -0.216 N 
ATOM      8  H   UNL     1      -2.104  -3.566   3.910  0.00  0.00    +0.174 HD
BRANCH   7   9
ATOM      9  S   UNL     1      -0.297  -2.891   2.657  0.00  0.00    +0.074 S 
ATOM     10  O   UNL     1      -0.214  -1.811   3.577  0.00  0.00    -0.150 OA
ATOM     11  O   UNL     1      -0.418  -2.690   1.255  0.00  0.00    -0.150 OA
BRANCH   9  17
ATOM     12  C   UNL     1       3.903  -5.408   0.833  0.00  0.00    +0.044 C 
ATOM     13  C   UNL     1       3.055  -5.011   2.014  0.00  0.00    -0.048 A 
ATOM     14  C   UNL     1       3.410  -5.420   3.287  0.00  0.00    +0.005 A 
ATOM     15  C   UNL     1       2.635  -5.058   4.370  0.00  0.00    +0.025 A 
ATOM     16  C   UNL     1       1.498  -4.283   4.181  0.00  0.00    +0.060 A 
ATOM     17  C   UNL     1       1.144  -3.874   2.902  0.00  0.00    +0.130 A 
ATOM     18  C   UNL     1       1.927  -4.236   1.823  0.00  0.00    +0.034 A 
BRANCH  16  19
ATOM     19  N   UNL     1       0.709  -3.915   5.277  0.00  0.00    -0.284 N 
ATOM     20  C   UNL     1       1.249  -3.875   6.512  0.00  0.00    +0.214 C 
ATOM     21  O   UNL     1       2.438  -4.058   6.660  0.00  0.00    -0.276 OA
ATOM     22  C   UNL     1       0.373  -3.604   7.708  0.00  0.00    +0.109 C 
ATOM     23  H   UNL     1      -0.225  -3.688   5.149  0.00  0.00    +0.155 HD
ENDBRANCH  16  19
ENDBRANCH   9  17
ENDBRANCH   7   9
ENDBRANCH   1   7
BRANCH   6  24
ATOM     24  C   UNL     1      -4.362  -4.462   2.958  0.00  0.00    +0.041 C 
BRANCH  24  25
ATOM     25  C   UNL     1      -4.759  -3.279   2.072  0.00  0.00    +0.051 C 
BRANCH  25  26
ATOM     26  C   UNL     1      -5.831  -2.449   2.780  0.00  0.00    +0.174 C 
ATOM     27  N   UNL     1      -7.043  -3.253   2.978  0.00  0.00    -0.363 N 
ATOM     28  C   UNL     1      -8.012  -2.663   2.339  0.00  0.00    +0.060 A 
ATOM     29  C   UNL     1      -9.436  -2.983   2.167  0.00  0.00    +0.027 A 
ATOM     30  C   UNL     1     -10.217  -2.166   1.432  0.00  0.00    +0.002 A 
ATOM     31  C   UNL     1      -9.726  -1.004   0.811  0.00  0.00    +0.002 A 
ATOM     32  C   UNL     1      -8.437  -0.619   0.904  0.00  0.00    +0.027 A 
ATOM     33  C   UNL     1      -7.492  -1.433   1.682  0.00  0.00    +0.060 A 
ATOM     34  N   UNL     1      -6.223  -1.310   1.940  0.00  0.00    -0.363 N 
ATOM     35  H   UNL     1      -7.110  -4.074   3.490  0.00  0.00    +0.162 HD
ATOM     36  H   UNL     1      -5.641  -0.596   1.634  0.00  0.00    +0.162 HD
ENDBRANCH  25  26
ENDBRANCH  24  25
ENDBRANCH   6  24
TORSDOF 7
