REMARK  Name = ZINC16610394
REMARK  10 active torsions:
REMARK  status: ('A' for Active; 'I' for Inactive)
REMARK    1  A    between atoms: C_1  and  C_2
REMARK    2  A    between atoms: C_2  and  N_3
REMARK    3  A    between atoms: C_4  and  C_34
REMARK    4  A    between atoms: C_5  and  C_29
REMARK    5  A    between atoms: C_6  and  C_11
REMARK    6  A    between atoms: C_14  and  N_17
REMARK    7  A    between atoms: N_20  and  C_21
REMARK    8  A    between atoms: C_29  and  O_31
REMARK    9  A    between atoms: O_31  and  C_32
REMARK   10  A    between atoms: C_32  and  C_33
REMARK                            x       y       z     vdW  Elec       q    Type
REMARK                         _______ _______ _______ _____ _____    ______ ____
ROOT
ATOM      1  C   UNL     1       2.087   1.418   0.886  0.00  0.00    -0.022 A 
ATOM      2  C   UNL     1       1.050   0.512   0.762  0.00  0.00    +0.007 A 
ATOM      3  C   UNL     1      -0.245   0.961   0.587  0.00  0.00    +0.024 A 
ATOM      4  C   UNL     1      -0.504   2.324   0.535  0.00  0.00    +0.035 A 
ATOM      5  C   UNL     1       0.540   3.232   0.661  0.00  0.00    +0.024 A 
ATOM      6  C   UNL     1       1.832   2.776   0.836  0.00  0.00    +0.007 A 
ENDROOT
BRANCH   1  10
ATOM      7  N   UNL     1       5.808   2.317   0.467  0.00  0.00    -0.286 N 
ATOM      8  C   UNL     1       5.271   1.530  -0.509  0.00  0.00    +0.021 C 
ATOM      9  C   UNL     1       4.144   0.818  -0.290  0.00  0.00    +0.078 C 
ATOM     10  C   UNL     1       3.498   0.924   1.076  0.00  0.00    +0.141 C 
ATOM     11  N   UNL     1       4.156   1.801   2.059  0.00  0.00    -0.315 N 
ATOM     12  C   UNL     1       5.280   2.448   1.691  0.00  0.00    +0.138 C 
ATOM     13  S   UNL     1       6.057   3.469   2.824  0.00  0.00    -0.018 S 
ATOM     14  C   UNL     1       5.947   1.453  -1.854  0.00  0.00    +0.061 C 
ATOM     15  H   UNL     1       3.791   1.910   2.951  0.00  0.00    +0.149 HD
BRANCH   7  17
ATOM     16  C   UNL     1       8.248   2.160   0.387  0.00  0.00    +0.025 C 
ATOM     17  C   UNL     1       7.032   3.061   0.160  0.00  0.00    +0.109 C 
ENDBRANCH   7  17
BRANCH   9  18
ATOM     18  C   UNL     1       3.587   0.002  -1.301  0.00  0.00    +0.339 C 
ATOM     19  O   UNL     1       4.123  -0.068  -2.391  0.00  0.00    -0.245 OA
BRANCH  18  20
ATOM     20  O   UNL     1       2.460  -0.700  -1.057  0.00  0.00    -0.462 OA
BRANCH  20  21
ATOM     21  C   UNL     1       1.952  -1.504  -2.124  0.00  0.00    +0.229 C 
ATOM     22  C   UNL     1       0.681  -2.219  -1.663  0.00  0.00    +0.048 C 
ENDBRANCH  20  21
ENDBRANCH  18  20
ENDBRANCH   9  18
ENDBRANCH   1  10
BRANCH   4  23
ATOM     23  N   UNL     1      -1.813   2.783   0.352  0.00  0.00    -0.269 N 
ATOM     24  C   UNL     1      -2.840   2.146   0.950  0.00  0.00    +0.308 C 
ATOM     25  O   UNL     1      -2.639   1.123   1.577  0.00  0.00    -0.252 OA
ATOM     26  N   UNL     1      -4.089   2.643   0.854  0.00  0.00    -0.267 N 
ATOM     27  H   UNL     1      -1.982   3.558  -0.205  0.00  0.00    +0.156 HD
ATOM     28  H   UNL     1      -4.263   3.412   0.288  0.00  0.00    +0.156 HD
BRANCH  26  29
ATOM     29  C   UNL     1      -5.137   2.050   1.572  0.00  0.00    +0.070 A 
ATOM     30  C   UNL     1      -4.859   1.235   2.660  0.00  0.00    +0.029 A 
ATOM     31  C   UNL     1      -5.893   0.651   3.367  0.00  0.00    +0.040 A 
ATOM     32  C   UNL     1      -7.206   0.878   2.990  0.00  0.00    +0.126 A 
ATOM     33  C   UNL     1      -7.487   1.692   1.905  0.00  0.00    +0.078 A 
ATOM     34  C   UNL     1      -6.456   2.282   1.198  0.00  0.00    +0.147 A 
ATOM     35  F   UNL     1      -6.729   3.079   0.142  0.00  0.00    -0.203 F 
ATOM     36  F   UNL     1      -8.215   0.306   3.683  0.00  0.00    -0.205 F 
ENDBRANCH  26  29
ENDBRANCH   4  23
TORSDOF 7
