REMARK  Name = ZINC65523982
REMARK  12 active torsions:
REMARK  status: ('A' for Active; 'I' for Inactive)
REMARK    1  A    between atoms: C_1  and  C_2
REMARK    2  A    between atoms: C_2  and  C_3
REMARK    3  A    between atoms: C_3  and  N_4
REMARK    4  A    between atoms: C_5  and  C_7
REMARK    5  A    between atoms: C_7  and  N_8
REMARK    6  A    between atoms: N_16  and  C_17
REMARK    7  A    between atoms: C_17  and  C_18
REMARK    8  A    between atoms: C_18  and  C_19
REMARK    9  A    between atoms: C_18  and  C_20
REMARK   10  A    between atoms: C_18  and  N_21
REMARK   11  A    between atoms: C_23  and  C_28
REMARK   12  A    between atoms: C_25  and  C_27
REMARK                            x       y       z     vdW  Elec       q    Type
REMARK                         _______ _______ _______ _____ _____    ______ ____
ROOT
ATOM      1  N   UNL     1      -5.457  -4.293   1.214  0.00  0.00    -0.291 NA
ATOM      2  C   UNL     1      -5.700  -5.685   1.616  0.00  0.00    +0.104 C 
ATOM      3  C   UNL     1      -5.407  -6.614   0.432  0.00  0.00    +0.124 C 
ATOM      4  N   UNL     1      -6.190  -6.155  -0.726  0.00  0.00    -0.283 N 
ATOM      5  C   UNL     1      -6.104  -4.737  -1.106  0.00  0.00    +0.124 C 
ATOM      6  C   UNL     1      -6.369  -3.882   0.138  0.00  0.00    +0.104 C 
ATOM      7  C   UNL     1      -6.965  -7.012  -1.420  0.00  0.00    +0.302 C 
ATOM      8  O   UNL     1      -7.678  -6.599  -2.314  0.00  0.00    -0.253 OA
ATOM      9  N   UNL     1      -6.949  -8.326  -1.123  0.00  0.00    -0.301 N 
ATOM     10  H   UNL     1      -6.437  -8.646  -0.364  0.00  0.00    +0.150 HD
ENDROOT
BRANCH   1  11
ATOM     11  C   UNL     1      -5.559  -3.387   2.365  0.00  0.00    +0.180 C 
BRANCH  11  13
ATOM     12  N   UNL     1      -4.342  -2.973   4.479  0.00  0.00    -0.314 N 
ATOM     13  C   UNL     1      -4.449  -3.685   3.339  0.00  0.00    +0.227 C 
ATOM     14  O   UNL     1      -3.651  -4.566   3.098  0.00  0.00    -0.274 OA
ATOM     15  H   UNL     1      -4.980  -2.269   4.672  0.00  0.00    +0.149 HD
BRANCH  12  16
ATOM     16  C   UNL     1      -3.263  -3.263   5.426  0.00  0.00    +0.104 C 
BRANCH  16  18
ATOM     17  C   UNL     1      -2.242  -2.622   7.614  0.00  0.00    +0.005 C 
ATOM     18  C   UNL     1      -3.369  -2.319   6.625  0.00  0.00    +0.015 C 
ENDBRANCH  16  18
ENDBRANCH  12  16
ENDBRANCH  11  13
ENDBRANCH   1  11
BRANCH   9  19
ATOM     19  C   UNL     1      -7.707  -9.272  -1.946  0.00  0.00    +0.093 C 
BRANCH  19  20
ATOM     20  C   UNL     1      -7.521 -10.689  -1.397  0.00  0.00    -0.055 C 
ATOM     21  C   UNL     1      -8.312 -11.676  -2.257  0.00  0.00    -0.008 C 
ATOM     22  C   UNL     1      -6.037 -11.058  -1.431  0.00  0.00    -0.008 C 
BRANCH  20  23
ATOM     23  N   UNL     1      -8.008 -10.745  -0.013  0.00  0.00    +0.384 N 
ATOM     24  C   UNL     1      -9.430 -10.382   0.019  0.00  0.00    -0.075 C 
ATOM     25  C   UNL     1      -9.922 -10.361   1.468  0.00  0.00    -0.031 C 
ATOM     26  C   UNL     1      -9.735 -11.749   2.086  0.00  0.00    +0.003 C 
ATOM     27  C   UNL     1      -8.260 -12.149   1.980  0.00  0.00    -0.031 C 
ATOM     28  C   UNL     1      -7.829 -12.104   0.512  0.00  0.00    -0.075 C 
ATOM     29  C   UNL     1      -8.075 -13.567   2.524  0.00  0.00    +0.005 C 
ATOM     30  C   UNL     1      -9.117  -9.333   2.266  0.00  0.00    +0.005 C 
ATOM     31  H   UNL     1      -7.484 -10.095   0.554  0.00  0.00    -0.081 HD
ENDBRANCH  20  23
ENDBRANCH  19  20
ENDBRANCH   9  19
TORSDOF 7
