REMARK  Name = ZINC57415990
REMARK  7 active torsions:
REMARK  status: ('A' for Active; 'I' for Inactive)
REMARK    1  A    between atoms: C_1  and  O_2
REMARK    2  A    between atoms: O_2  and  C_3
REMARK    3  A    between atoms: C_3  and  C_5
REMARK    4  A    between atoms: C_6  and  C_18
REMARK    5  A    between atoms: C_11  and  C_13
REMARK    6  A    between atoms: C_18  and  N_19
REMARK    7  A    between atoms: N_22  and  C_25
REMARK                            x       y       z     vdW  Elec       q    Type
REMARK                         _______ _______ _______ _____ _____    ______ ____
ROOT
ATOM      1  C   UNL     1      -1.379  -2.184  -0.666  0.00  0.00    +0.080 C 
ATOM      2  C   UNL     1      -2.400  -2.632   0.096  0.00  0.00    +0.038 C 
ATOM      3  N   UNL     1      -2.311  -3.817   0.769  0.00  0.00    -0.271 N 
ATOM      4  C   UNL     1      -1.234  -4.612   0.732  0.00  0.00    +0.304 C 
ATOM      5  O   UNL     1      -1.247  -5.650   1.365  0.00  0.00    -0.252 OA
ATOM      6  N   UNL     1      -0.136  -4.300   0.015  0.00  0.00    -0.288 N 
ATOM      7  C   UNL     1      -0.134  -3.043  -0.753  0.00  0.00    +0.150 C 
ATOM      8  H   UNL     1      -3.069  -4.098   1.304  0.00  0.00    +0.156 HD
ATOM      9  H   UNL     1       0.633  -4.891   0.002  0.00  0.00    +0.151 HD
ENDROOT
BRANCH   7  10
ATOM     10  C   UNL     1       1.034  -2.218  -0.281  0.00  0.00    +0.015 A 
ATOM     11  C   UNL     1       1.965  -1.558  -1.013  0.00  0.00    +0.013 A 
ATOM     12  C   UNL     1       2.959  -0.855  -0.358  0.00  0.00    +0.008 A 
ATOM     13  C   UNL     1       2.974  -0.847   0.997  0.00  0.00    +0.045 A 
ATOM     14  S   UNL     1       1.549  -1.849   1.389  0.00  0.00    -0.099 S 
ENDBRANCH   7  10
BRANCH   1  15
ATOM     15  C   UNL     1      -1.471  -0.956  -1.363  0.00  0.00    +0.339 C 
ATOM     16  O   UNL     1      -2.521  -0.342  -1.377  0.00  0.00    -0.245 OA
BRANCH  15  18
ATOM     17  C   UNL     1      -0.558   0.777  -2.696  0.00  0.00    +0.280 C 
ATOM     18  O   UNL     1      -0.394  -0.468  -2.013  0.00  0.00    -0.465 OA
ENDBRANCH  15  18
ENDBRANCH   1  15
BRANCH   2  19
ATOM     19  C   UNL     1      -3.659  -1.810   0.207  0.00  0.00    +0.136 C 
BRANCH  19  20
ATOM     20  N   UNL     1      -4.547  -2.121  -0.921  0.00  0.00    -0.294 NA
ATOM     21  C   UNL     1      -5.127  -3.463  -0.779  0.00  0.00    +0.103 C 
ATOM     22  C   UNL     1      -5.898  -3.820  -2.055  0.00  0.00    +0.120 C 
ATOM     23  N   UNL     1      -6.868  -2.749  -2.330  0.00  0.00    -0.327 N 
ATOM     24  C   UNL     1      -6.384  -1.361  -2.351  0.00  0.00    +0.120 C 
ATOM     25  C   UNL     1      -5.594  -1.101  -1.064  0.00  0.00    +0.103 C 
BRANCH  23  26
ATOM     26  C   UNL     1      -8.213  -3.043  -2.564  0.00  0.00    +0.031 A 
ATOM     27  C   UNL     1      -9.136  -2.014  -2.710  0.00  0.00    +0.023 A 
ATOM     28  C   UNL     1     -10.465  -2.308  -2.943  0.00  0.00    +0.003 A 
ATOM     29  C   UNL     1     -10.879  -3.624  -3.030  0.00  0.00    +0.020 A 
ATOM     30  C   UNL     1      -9.964  -4.652  -2.885  0.00  0.00    +0.043 A 
ATOM     31  C   UNL     1      -8.631  -4.364  -2.658  0.00  0.00    +0.043 A 
ATOM     32 CL   UNL     1     -10.489  -6.303  -2.995  0.00  0.00    -0.083 Cl
ENDBRANCH  23  26
ENDBRANCH  19  20
ENDBRANCH   2  19
TORSDOF 6
