REMARK  Name = ZINC28731051
REMARK  11 active torsions:
REMARK  status: ('A' for Active; 'I' for Inactive)
REMARK    1  A    between atoms: C_1  and  C_2
REMARK    2  A    between atoms: C_2  and  C_27
REMARK    3  A    between atoms: N_5  and  N_9
REMARK    4  A    between atoms: C_10  and  C_12
REMARK    5  A    between atoms: C_12  and  N_13
REMARK    6  A    between atoms: N_13  and  C_14
REMARK    7  A    between atoms: N_13  and  C_20
REMARK    8  A    between atoms: C_14  and  C_15
REMARK    9  A    between atoms: C_20  and  C_21
REMARK   10  A    between atoms: C_27  and  C_28
REMARK   11  A    between atoms: C_28  and  C_29
REMARK                            x       y       z     vdW  Elec       q    Type
REMARK                         _______ _______ _______ _____ _____    ______ ____
ROOT
ATOM      1  N   UNL     1      -6.802   4.449  -4.270  0.00  0.00    -0.225 N 
ATOM      2  C   UNL     1      -6.923   3.232  -4.836  0.00  0.00    +0.213 C 
ATOM      3  O   UNL     1      -6.315   2.287  -4.379  0.00  0.00    -0.276 OA
ATOM      4  H   UNL     1      -7.352   5.306  -4.685  0.00  0.00    +0.173 HD
ENDROOT
BRANCH   1   9
ATOM      5  C   UNL     1      -4.025   6.597  -1.238  0.00  0.00    +0.041 C 
ATOM      6  C   UNL     1      -4.245   5.179  -1.767  0.00  0.00    +0.112 C 
ATOM      7  C   UNL     1      -4.765   5.215  -3.191  0.00  0.00    +0.263 C 
ATOM      8  O   UNL     1      -4.208   5.681  -4.162  0.00  0.00    -0.271 OA
ATOM      9  N   UNL     1      -5.974   4.622  -3.152  0.00  0.00    -0.137 N 
ATOM     10  C   UNL     1      -6.288   4.220  -1.916  0.00  0.00    +0.326 C 
ATOM     11  O   UNL     1      -7.327   3.659  -1.631  0.00  0.00    -0.251 OA
ATOM     12  N   UNL     1      -5.323   4.506  -1.022  0.00  0.00    -0.284 N 
ATOM     13  H   UNL     1      -5.221   4.336   0.060  0.00  0.00    +0.151 HD
BRANCH   6  14
ATOM     14  C   UNL     1      -2.949   4.369  -1.688  0.00  0.00    +0.040 C 
BRANCH  14  15
ATOM     15  C   UNL     1      -2.515   4.244  -0.226  0.00  0.00    +0.038 C 
BRANCH  15  16
ATOM     16  C   UNL     1      -1.239   3.446  -0.148  0.00  0.00    -0.047 A 
ATOM     17  C   UNL     1      -1.290   2.071  -0.015  0.00  0.00    +0.003 A 
ATOM     18  C   UNL     1      -0.119   1.340   0.062  0.00  0.00    +0.000 A 
ATOM     19  C   UNL     1       1.103   1.983  -0.005  0.00  0.00    +0.000 A 
ATOM     20  C   UNL     1       1.154   3.357  -0.143  0.00  0.00    +0.000 A 
ATOM     21  C   UNL     1      -0.017   4.089  -0.215  0.00  0.00    +0.003 A 
ENDBRANCH  15  16
ENDBRANCH  14  15
ENDBRANCH   6  14
ENDBRANCH   1   9
BRANCH   2  22
ATOM     22  C   UNL     1      -7.812   3.045  -6.038  0.00  0.00    +0.021 C 
BRANCH  22  23
ATOM     23  N   UNL     1      -7.773   1.639  -6.463  0.00  0.00    +0.390 N 
ATOM     24  H   UNL     1      -6.718   1.351  -6.578  0.00  0.00    -0.081 HD
BRANCH  23  25
ATOM     25  C   UNL     1      -8.434   1.464  -7.763  0.00  0.00    -0.035 C 
BRANCH  25  26
ATOM     26  C   UNL     1      -8.231   0.050  -8.243  0.00  0.00    -0.027 A 
ATOM     27  C   UNL     1      -8.959  -1.059  -7.963  0.00  0.00    +0.009 A 
ATOM     28  C   UNL     1      -8.584  -2.266  -8.523  0.00  0.00    +0.008 A 
ATOM     29  C   UNL     1      -7.499  -2.305  -9.335  0.00  0.00    +0.045 A 
ATOM     30  S   UNL     1      -6.975  -0.598  -9.333  0.00  0.00    -0.103 S 
ENDBRANCH  25  26
ENDBRANCH  23  25
BRANCH  23  31
ATOM     31  C   UNL     1      -8.372   0.765  -5.446  0.00  0.00    -0.046 C 
BRANCH  31  32
ATOM     32  C   UNL     1      -9.771   1.275  -5.095  0.00  0.00    +0.102 C 
ATOM     33  C   UNL     1     -10.361   0.434  -3.942  0.00  0.00    +0.032 C 
ATOM     34  C   UNL     1     -11.849   0.297  -4.362  0.00  0.00    +0.030 C 
ATOM     35  C   UNL     1     -11.715   0.232  -5.904  0.00  0.00    +0.160 C 
ATOM     36  O   UNL     1     -10.639   1.128  -6.224  0.00  0.00    -0.378 OA
ENDBRANCH  31  32
ENDBRANCH  23  31
ENDBRANCH  22  23
ENDBRANCH   2  22
TORSDOF 10
