REMARK  Name = ZINC66600239
REMARK  7 active torsions:
REMARK  status: ('A' for Active; 'I' for Inactive)
REMARK    1  A    between atoms: C_1  and  C_2
REMARK    2  A    between atoms: C_2  and  C_7
REMARK    3  A    between atoms: C_7  and  N_8
REMARK    4  A    between atoms: C_18  and  C_20
REMARK    5  A    between atoms: C_20  and  C_21
REMARK    6  A    between atoms: C_20  and  C_22
REMARK    7  A    between atoms: C_20  and  C_23
REMARK                            x       y       z     vdW  Elec       q    Type
REMARK                         _______ _______ _______ _____ _____    ______ ____
ROOT
ATOM      1  N   UNL     1      -3.208   1.500  -0.782  0.00  0.00    -0.299 N 
ATOM      2  C   UNL     1      -4.449   1.110  -1.136  0.00  0.00    +0.302 C 
ATOM      3  O   UNL     1      -5.191   0.619  -0.308  0.00  0.00    -0.253 OA
ATOM      4  N   UNL     1      -4.867   1.266  -2.408  0.00  0.00    -0.284 N 
ATOM      5  C   UNL     1      -6.170   0.871  -2.814  0.00  0.00    +0.111 C 
ATOM      6  C   UNL     1      -6.309  -0.643  -3.177  0.00  0.00    +0.038 C 
ATOM      7  C   UNL     1      -4.995  -1.066  -3.913  0.00  0.00    +0.109 C 
ATOM      8  N   UNL     1      -4.464  -0.082  -4.789  0.00  0.00    -0.299 N 
ATOM      9  C   UNL     1      -3.392   0.794  -4.251  0.00  0.00    +0.126 C 
ATOM     10  C   UNL     1      -3.988   1.863  -3.446  0.00  0.00    +0.128 C 
ATOM     11  C   UNL     1      -4.913   0.051  -6.053  0.00  0.00    +0.221 C 
ATOM     12  O   UNL     1      -5.759  -0.707  -6.479  0.00  0.00    -0.275 OA
ATOM     13  H   UNL     1      -2.616   1.893  -1.443  0.00  0.00    +0.150 HD
ENDROOT
BRANCH  11  14
ATOM     14  C   UNL     1      -4.363   1.140  -6.938  0.00  0.00    +0.039 C 
ATOM     15  C   UNL     1      -5.186   1.216  -8.225  0.00  0.00    +0.020 C 
ATOM     16  C   UNL     1      -4.440   2.480  -6.203  0.00  0.00    +0.020 C 
ATOM     17  C   UNL     1      -2.905   0.830  -7.282  0.00  0.00    +0.020 C 
ENDBRANCH  11  14
BRANCH   1  18
ATOM     18  C   UNL     1      -2.754   1.332   0.600  0.00  0.00    +0.112 C 
BRANCH  18  20
ATOM     19  C   UNL     1      -1.261   3.330   0.346  0.00  0.00    +0.013 C 
ATOM     20  C   UNL     1      -1.320   1.851   0.733  0.00  0.00    -0.016 C 
ATOM     21  C   UNL     1      -0.374   1.030  -0.168  0.00  0.00    +0.008 C 
ATOM     22  C   UNL     1       0.931   0.915   0.657  0.00  0.00    +0.001 C 
ATOM     23  C   UNL     1       0.407   0.736   2.103  0.00  0.00    +0.001 C 
ATOM     24  C   UNL     1      -0.824   1.664   2.177  0.00  0.00    +0.008 C 
ENDBRANCH  18  20
ENDBRANCH   1  18
TORSDOF 3
