REMARK  Name = ZINC57779682
REMARK  3 active torsions:
REMARK  status: ('A' for Active; 'I' for Inactive)
REMARK    1  A    between atoms: C_1  and  C_2
REMARK    2  A    between atoms: N_7  and  C_9
REMARK    3  A    between atoms: C_12  and  N_15
REMARK                            x       y       z     vdW  Elec       q    Type
REMARK                         _______ _______ _______ _____ _____    ______ ____
ROOT
ATOM      1  C   UNL     1       1.805  -2.750   1.358  0.00  0.00    +0.030 A 
ATOM      2  C   UNL     1       3.064  -2.166   1.336  0.00  0.00    +0.025 A 
ATOM      3  C   UNL     1       4.192  -2.953   1.459  0.00  0.00    +0.025 A 
ATOM      4  C   UNL     1       4.067  -4.329   1.605  0.00  0.00    +0.034 A 
ATOM      5  C   UNL     1       2.807  -4.913   1.627  0.00  0.00    +0.025 A 
ATOM      6  C   UNL     1       1.679  -4.125   1.509  0.00  0.00    +0.025 A 
ENDROOT
BRANCH   4   7
ATOM      7  N   UNL     1       5.212  -5.127   1.729  0.00  0.00    -0.285 N 
ATOM      8  C   UNL     1       6.312  -4.649   2.391  0.00  0.00    +0.200 A 
ATOM      9  N   UNL     1       7.461  -5.378   2.402  0.00  0.00    -0.295 N 
ATOM     10  H   UNL     1       7.505  -6.232   1.944  0.00  0.00    +0.172 HD
ATOM     11  C   UNL     1       8.534  -4.901   3.054  0.00  0.00    +0.257 A 
ATOM     12  O   UNL     1       9.572  -5.541   3.073  0.00  0.00    -0.267 OA
ATOM     13  C   UNL     1       8.460  -3.648   3.720  0.00  0.00    +0.049 A 
ATOM     14  C   UNL     1       7.290  -2.964   3.676  0.00  0.00    +0.064 A 
ATOM     15  N   UNL     1       6.249  -3.491   3.002  0.00  0.00    -0.219 NA
ATOM     16  C   UNL     1       7.244  -1.620   4.404  0.00  0.00    +0.125 C 
ATOM     17  S   UNL     1       8.741  -1.718   5.468  0.00  0.00    -0.150 S 
ATOM     18  C   UNL     1       9.614  -3.009   4.492  0.00  0.00    +0.111 C 
ATOM     19  H   UNL     1       5.225  -6.018   1.346  0.00  0.00    +0.155 HD
ENDBRANCH   4   7
BRANCH   1  25
ATOM     20  C   UNL     1       0.041   1.560  -0.035  0.00  0.00    +0.009 C 
ATOM     21  C   UNL     1       0.054   0.030  -0.052  0.00  0.00    +0.003 C 
ATOM     22  C   UNL     1      -1.384  -0.493  -0.065  0.00  0.00    +0.006 C 
ATOM     23  C   UNL     1      -1.371  -2.023  -0.115  0.00  0.00    +0.019 C 
ATOM     24  C   UNL     1      -0.671  -2.565   1.135  0.00  0.00    +0.105 C 
ATOM     25  N   UNL     1       0.662  -1.953   1.234  0.00  0.00    -0.330 N 
ATOM     26  C   UNL     1       0.771  -0.488   1.199  0.00  0.00    +0.108 C 
ENDBRANCH   1  25
TORSDOF 2
