REMARK  Name = ZINC09805260
REMARK  13 active torsions:
REMARK  status: ('A' for Active; 'I' for Inactive)
REMARK    1  A    between atoms: C_1  and  C_2
REMARK    2  A    between atoms: C_2  and  O_3
REMARK    3  A    between atoms: O_3  and  C_4
REMARK    4  A    between atoms: C_7  and  C_12
REMARK    5  A    between atoms: C_9  and  O_10
REMARK    6  A    between atoms: O_10  and  C_11
REMARK    7  A    between atoms: C_17  and  C_27
REMARK    8  A    between atoms: C_29  and  O_37
REMARK    9  A    between atoms: C_30  and  O_35
REMARK   10  A    between atoms: C_32  and  O_33
REMARK   11  A    between atoms: O_33  and  C_34
REMARK   12  A    between atoms: O_35  and  C_36
REMARK   13  A    between atoms: O_37  and  C_38
REMARK                            x       y       z     vdW  Elec       q    Type
REMARK                         _______ _______ _______ _____ _____    ______ ____
ROOT
ATOM      1  C   UNL     1      -1.128  -1.915   3.686  0.00  0.00    +0.032 C 
ATOM      2  C   UNL     1       0.338  -1.492   3.619  0.00  0.00    +0.059 C 
ATOM      3  C   UNL     1       0.694  -1.082   2.199  0.00  0.00    +0.017 C 
ATOM      4  C   UNL     1      -0.223  -0.494   1.413  0.00  0.00    +0.037 C 
ATOM      5  C   UNL     1       0.002  -0.004   0.002  0.00  0.00    +0.140 C 
ATOM      6  N   UNL     1       1.247  -0.443  -0.593  0.00  0.00    -0.331 N 
ATOM      7  C   UNL     1       2.475  -0.036  -0.075  0.00  0.00    +0.049 A 
ATOM      8  C   UNL     1       3.338   0.766  -0.805  0.00  0.00    +0.025 A 
ATOM      9  C   UNL     1       4.527   1.183  -0.233  0.00  0.00    +0.002 A 
ATOM     10  C   UNL     1       4.854   0.806   1.057  0.00  0.00    +0.002 A 
ATOM     11  C   UNL     1       4.001  -0.009   1.783  0.00  0.00    +0.025 A 
ATOM     12  C   UNL     1       2.821  -0.443   1.204  0.00  0.00    +0.052 A 
ATOM     13  N   UNL     1       1.974  -1.347   1.836  0.00  0.00    -0.316 N 
ATOM     14  C   UNL     1      -1.541  -0.287   1.885  0.00  0.00    +0.163 C 
ATOM     15  O   UNL     1      -2.345   0.258   1.155  0.00  0.00    -0.292 OA
ATOM     16  C   UNL     1      -1.980  -0.717   3.252  0.00  0.00    +0.088 C 
ATOM     17  H   UNL     1       1.226  -1.031  -1.364  0.00  0.00    +0.147 HD
ATOM     18  H   UNL     1       2.324  -2.230   2.032  0.00  0.00    +0.152 HD
ENDROOT
BRANCH   1  22
ATOM     19  C   UNL     1      -2.130  -3.027   7.692  0.00  0.00    +0.162 A 
ATOM     20  C   UNL     1      -1.680  -1.746   7.418  0.00  0.00    +0.050 A 
ATOM     21  C   UNL     1      -1.351  -1.391   6.122  0.00  0.00    +0.008 A 
ATOM     22  C   UNL     1      -1.482  -2.309   5.097  0.00  0.00    -0.040 A 
ATOM     23  C   UNL     1      -1.930  -3.589   5.364  0.00  0.00    +0.053 A 
ATOM     24  C   UNL     1      -2.256  -3.953   6.660  0.00  0.00    +0.162 A 
BRANCH  24  25
ATOM     25  O   UNL     1      -2.697  -5.212   6.925  0.00  0.00    -0.491 OA
ATOM     26  C   UNL     1      -2.801  -6.109   5.817  0.00  0.00    +0.277 C 
ENDBRANCH  24  25
BRANCH  19  27
ATOM     27  O   UNL     1      -2.448  -3.380   8.966  0.00  0.00    -0.489 OA
BRANCH  27  29
ATOM     28  C   UNL     1      -2.697  -2.955  11.332  0.00  0.00    +0.048 C 
ATOM     29  C   UNL     1      -2.294  -2.378   9.974  0.00  0.00    +0.226 C 
ENDBRANCH  27  29
ENDBRANCH  19  27
ENDBRANCH   1  22
BRANCH   5  30
ATOM     30  C   UNL     1      -0.018   1.503   0.010  0.00  0.00    +0.023 A 
ATOM     31  C   UNL     1       0.231   2.190   1.184  0.00  0.00    +0.058 A 
ATOM     32  C   UNL     1       0.212   3.575   1.194  0.00  0.00    +0.162 A 
ATOM     33  C   UNL     1      -0.057   4.275   0.021  0.00  0.00    +0.165 A 
ATOM     34  C   UNL     1      -0.306   3.585  -1.153  0.00  0.00    +0.095 A 
ATOM     35  C   UNL     1      -0.281   2.198  -1.160  0.00  0.00    +0.129 A 
BRANCH  35  36
ATOM     36  O   UNL     1      -0.520   1.520  -2.314  0.00  0.00    -0.495 OA
ATOM     37  C   UNL     1      -0.784   2.300  -3.482  0.00  0.00    +0.277 C 
ENDBRANCH  35  36
BRANCH  33  38
ATOM     38  O   UNL     1      -0.076   5.635   0.029  0.00  0.00    -0.491 OA
ATOM     39  C   UNL     1      -0.359   6.287  -1.210  0.00  0.00    +0.277 C 
ENDBRANCH  33  38
BRANCH  32  40
ATOM     40  O   UNL     1       0.458   4.251   2.349  0.00  0.00    -0.491 OA
ATOM     41  C   UNL     1       0.727   3.468   3.514  0.00  0.00    +0.277 C 
ENDBRANCH  32  40
ENDBRANCH   5  30
TORSDOF 8
