REMARK  Name = ZINC39684664
REMARK  10 active torsions:
REMARK  status: ('A' for Active; 'I' for Inactive)
REMARK    1  A    between atoms: C_1  and  C_2
REMARK    2  A    between atoms: C_2  and  C_4
REMARK    3  A    between atoms: C_2  and  N_8
REMARK    4  A    between atoms: C_4  and  C_5
REMARK    5  A    between atoms: C_4  and  C_6
REMARK    6  A    between atoms: C_4  and  C_7
REMARK    7  A    between atoms: C_9  and  C_11
REMARK    8  A    between atoms: C_22  and  C_24
REMARK    9  A    between atoms: C_27  and  O_31
REMARK   10  A    between atoms: O_31  and  C_32
REMARK                            x       y       z     vdW  Elec       q    Type
REMARK                         _______ _______ _______ _____ _____    ______ ____
ROOT
ATOM      1  C   UNL     1       0.558  -0.472  -3.540  0.00  0.00    +0.100 C 
ATOM      2  C   UNL     1       1.777   0.303  -4.088  0.00  0.00    +0.121 C 
ATOM      3  N   UNL     1       1.670   0.177  -5.561  0.00  0.00    -0.296 N 
ATOM      4  C   UNL     1       0.219   0.305  -5.837  0.00  0.00    +0.115 C 
ATOM      5  C   UNL     1      -0.463  -0.468  -4.690  0.00  0.00    -0.004 C 
ATOM      6  C   UNL     1      -1.740   0.246  -4.260  0.00  0.00    -0.010 C 
ATOM      7  C   UNL     1      -2.762   0.186  -5.399  0.00  0.00    -0.082 C 
ATOM      8  N   UNL     1      -3.048  -1.215  -5.730  0.00  0.00    +0.379 N 
ATOM      9  C   UNL     1      -1.833  -1.869  -6.231  0.00  0.00    -0.082 C 
ATOM     10  C   UNL     1      -0.772  -1.896  -5.127  0.00  0.00    -0.010 C 
ATOM     11  C   UNL     1       2.666  -0.012  -6.449  0.00  0.00    +0.247 C 
ATOM     12  O   UNL     1       3.800  -0.209  -6.057  0.00  0.00    -0.270 OA
ATOM     13  H   UNL     1      -3.369  -1.695  -4.903  0.00  0.00    -0.086 HD
ATOM     14  H   UNL     1      -3.765  -1.252  -6.438  0.00  0.00    -0.086 HD
ENDROOT
BRANCH  11  15
ATOM     15  C   UNL     1       2.380   0.020  -7.896  0.00  0.00    +0.040 A 
ATOM     16  C   UNL     1       1.238   0.671  -8.371  0.00  0.00    +0.036 A 
ATOM     17  C   UNL     1       0.975   0.699  -9.723  0.00  0.00    +0.085 A 
ATOM     18  C   UNL     1       1.843   0.079 -10.615  0.00  0.00    +0.157 A 
ATOM     19  C   UNL     1       2.980  -0.570 -10.147  0.00  0.00    +0.085 A 
ATOM     20  C   UNL     1       3.253  -0.597  -8.796  0.00  0.00    +0.036 A 
ATOM     21 CL   UNL     1       4.060  -1.343 -11.265  0.00  0.00    -0.080 Cl
ATOM     22 CL   UNL     1      -0.443   1.508 -10.314  0.00  0.00    -0.080 Cl
BRANCH  18  23
ATOM     23  O   UNL     1       1.580   0.108 -11.947  0.00  0.00    -0.492 OA
ATOM     24  C   UNL     1       2.116   1.204 -12.691  0.00  0.00    +0.277 C 
ENDBRANCH  18  23
ENDBRANCH  11  15
BRANCH   1  26
ATOM     25  N   UNL     1      -0.635  -0.482  -1.373  0.00  0.00    -0.312 N 
ATOM     26  C   UNL     1      -0.009   0.229  -2.332  0.00  0.00    +0.218 C 
ATOM     27  O   UNL     1       0.098   1.432  -2.223  0.00  0.00    -0.275 OA
ATOM     28  H   UNL     1      -0.721  -1.444  -1.461  0.00  0.00    +0.149 HD
BRANCH  25  30
ATOM     29  C   UNL     1      -0.089   0.373   0.852  0.00  0.00    +0.028 C 
ATOM     30  C   UNL     1      -1.187   0.199  -0.199  0.00  0.00    +0.075 C 
BRANCH  30  31
ATOM     31  C   UNL     1      -2.326  -0.637   0.387  0.00  0.00    -0.020 C 
ATOM     32  C   UNL     1      -2.902   0.074   1.613  0.00  0.00    +0.012 C 
ATOM     33  C   UNL     1      -3.424  -0.811  -0.664  0.00  0.00    +0.012 C 
ATOM     34  C   UNL     1      -1.792  -2.011   0.798  0.00  0.00    +0.012 C 
ENDBRANCH  30  31
ENDBRANCH  25  30
ENDBRANCH   1  26
TORSDOF 5
