REMARK  Name = ZINC38994954
REMARK  9 active torsions:
REMARK  status: ('A' for Active; 'I' for Inactive)
REMARK    1  A    between atoms: C_1  and  O_2
REMARK    2  A    between atoms: O_2  and  C_3
REMARK    3  A    between atoms: C_6  and  C_9
REMARK    4  A    between atoms: C_11  and  C_15
REMARK    5  A    between atoms: C_19  and  S_23
REMARK    6  A    between atoms: N_21  and  N_22
REMARK    7  A    between atoms: S_23  and  C_24
REMARK    8  A    between atoms: C_24  and  C_25
REMARK    9  A    between atoms: N_27  and  C_28
REMARK                            x       y       z     vdW  Elec       q    Type
REMARK                         _______ _______ _______ _____ _____    ______ ____
ROOT
ATOM      1  C   UNL     1       2.522  -4.668  -6.898  0.00  0.00    +0.185 C 
ATOM      2  N   UNL     1       2.132  -6.014  -6.402  0.00  0.00    -0.234 NA
ATOM      3  N   UNL     1       1.861  -6.788  -7.616  0.00  0.00    -0.228 NA
ATOM      4  C   UNL     1       2.610  -6.142  -8.713  0.00  0.00    +0.214 C 
ATOM      5  N   UNL     1       3.312  -4.978  -8.119  0.00  0.00    -0.197 NA
ATOM      6  H   UNL     1       1.312  -5.960  -5.816  0.00  0.00    +0.143 HD
ATOM      7  H   UNL     1       0.872  -6.809  -7.818  0.00  0.00    +0.143 HD
ENDROOT
BRANCH   1  10
ATOM      8  C   UNL     1       2.547  -2.453  -4.385  0.00  0.00    +0.091 C 
ATOM      9  C   UNL     1       2.635  -3.787  -4.553  0.00  0.00    +0.034 C 
ATOM     10  C   UNL     1       3.384  -3.939  -5.866  0.00  0.00    +0.187 C 
ATOM     11  N   UNL     1       3.627  -2.546  -6.277  0.00  0.00    -0.176 NA
ATOM     12  N   UNL     1       3.137  -1.804  -5.423  0.00  0.00    -0.154 NA
BRANCH   8  16
ATOM     13  C   UNL     1       0.668  -0.543  -1.081  0.00  0.00    +0.120 A 
ATOM     14  C   UNL     1       1.242   0.221  -2.088  0.00  0.00    +0.046 A 
ATOM     15  C   UNL     1       1.852  -0.395  -3.160  0.00  0.00    +0.013 A 
ATOM     16  C   UNL     1       1.892  -1.787  -3.233  0.00  0.00    +0.002 A 
ATOM     17  C   UNL     1       1.315  -2.551  -2.220  0.00  0.00    +0.013 A 
ATOM     18  C   UNL     1       0.711  -1.929  -1.147  0.00  0.00    +0.046 A 
BRANCH  13  20
ATOM     19  C   UNL     1       0.061   1.496  -0.021  0.00  0.00    +0.277 C 
ATOM     20  O   UNL     1       0.069   0.067  -0.026  0.00  0.00    -0.495 OA
ENDBRANCH  13  20
ENDBRANCH   8  16
ENDBRANCH   1  10
BRANCH   5  21
ATOM     21  N   UNL     1       3.321  -3.848  -9.034  0.00  0.00    -0.264 NA
ATOM     22  H   UNL     1       3.857  -4.058  -9.863  0.00  0.00    +0.137 HD
ATOM     23  H   UNL     1       2.381  -3.568  -9.273  0.00  0.00    +0.137 HD
ENDBRANCH   5  21
BRANCH   4  24
ATOM     24  S   UNL     1       3.812  -7.306  -9.414  0.00  0.00    -0.115 S 
BRANCH  24  25
ATOM     25  C   UNL     1       4.860  -7.757  -8.004  0.00  0.00    +0.168 C 
BRANCH  25  26
ATOM     26  C   UNL     1       5.916  -8.733  -8.455  0.00  0.00    +0.227 C 
ATOM     27  O   UNL     1       5.957  -9.089  -9.613  0.00  0.00    -0.275 OA
ATOM     28  N   UNL     1       6.814  -9.210  -7.571  0.00  0.00    -0.283 N 
ATOM     29  H   UNL     1       6.822  -8.877  -6.660  0.00  0.00    +0.155 HD
BRANCH  28  30
ATOM     30  C   UNL     1       7.737 -10.188  -7.967  0.00  0.00    +0.069 A 
ATOM     31  C   UNL     1       8.249 -10.178  -9.257  0.00  0.00    +0.029 A 
ATOM     32  C   UNL     1       9.158 -11.142  -9.646  0.00  0.00    +0.040 A 
ATOM     33  C   UNL     1       9.559 -12.120  -8.752  0.00  0.00    +0.126 A 
ATOM     34  C   UNL     1       9.050 -12.134  -7.464  0.00  0.00    +0.078 A 
ATOM     35  C   UNL     1       8.144 -11.167  -7.068  0.00  0.00    +0.147 A 
ATOM     36  F   UNL     1       7.652 -11.176  -5.810  0.00  0.00    -0.203 F 
ATOM     37  F   UNL     1      10.449 -13.061  -9.135  0.00  0.00    -0.205 F 
ENDBRANCH  28  30
ENDBRANCH  25  26
ENDBRANCH  24  25
ENDBRANCH   4  24
TORSDOF 8
