REMARK  Name = ZINC38658083
REMARK  10 active torsions:
REMARK  status: ('A' for Active; 'I' for Inactive)
REMARK    1  A    between atoms: C_2  and  C_3
REMARK    2  A    between atoms: C_3  and  O_4
REMARK    3  A    between atoms: O_4  and  C_5
REMARK    4  A    between atoms: C_8  and  C_11
REMARK    5  A    between atoms: C_16  and  O_25
REMARK    6  A    between atoms: C_20  and  N_24
REMARK    7  A    between atoms: C_21  and  C_22
REMARK    8  A    between atoms: O_25  and  C_26
REMARK    9  A    between atoms: C_26  and  C_28
REMARK   10  A    between atoms: C_31  and  N_34
REMARK                            x       y       z     vdW  Elec       q    Type
REMARK                         _______ _______ _______ _____ _____    ______ ____
ROOT
ATOM      1  C   UNL     1       5.948  -4.952   1.374  0.00  0.00    +0.098 C 
ATOM      2  C   UNL     1       6.457  -4.881   2.789  0.00  0.00    +0.008 A 
ATOM      3  C   UNL     1       7.227  -3.800   3.182  0.00  0.00    +0.012 A 
ATOM      4  C   UNL     1       7.703  -3.718   4.475  0.00  0.00    +0.047 A 
ATOM      5  C   UNL     1       7.410  -4.722   5.387  0.00  0.00    +0.135 A 
ATOM      6  C   UNL     1       6.640  -5.806   4.997  0.00  0.00    +0.093 A 
ATOM      7  C   UNL     1       6.161  -5.886   3.696  0.00  0.00    +0.138 A 
ATOM      8  O   UNL     1       5.409  -6.953   3.330  0.00  0.00    -0.441 OA
ATOM      9  C   UNL     1       5.263  -7.256   2.029  0.00  0.00    +0.199 C 
ATOM     10  C   UNL     1       5.503  -6.351   1.055  0.00  0.00    +0.098 C 
ENDROOT
BRANCH   1  14
ATOM     11  C   UNL     1       2.643  -2.280   0.923  0.00  0.00    +0.121 A 
ATOM     12  C   UNL     1       3.784  -2.111   0.152  0.00  0.00    +0.046 A 
ATOM     13  C   UNL     1       4.851  -2.975   0.299  0.00  0.00    +0.008 A 
ATOM     14  C   UNL     1       4.782  -4.009   1.215  0.00  0.00    -0.034 A 
ATOM     15  C   UNL     1       3.647  -4.180   1.985  0.00  0.00    +0.008 A 
ATOM     16  C   UNL     1       2.579  -3.314   1.845  0.00  0.00    +0.046 A 
BRANCH  11  17
ATOM     17  O   UNL     1       1.593  -1.430   0.780  0.00  0.00    -0.488 OA
BRANCH  17  18
ATOM     18  C   UNL     1       1.728  -0.388  -0.188  0.00  0.00    +0.256 C 
BRANCH  18  20
ATOM     19  C   UNL     1       0.558   1.755  -0.226  0.00  0.00    +0.007 C 
ATOM     20  C   UNL     1       0.474   0.448  -0.206  0.00  0.00    +0.006 C 
ENDBRANCH  18  20
ENDBRANCH  17  18
ENDBRANCH  11  17
ENDBRANCH   1  14
BRANCH   9  21
ATOM     21  N   UNL     1       4.859  -8.521   1.681  0.00  0.00    -0.328 N 
ATOM     22  H   UNL     1       4.683  -9.181   2.370  0.00  0.00    +0.145 HD
ATOM     23  H   UNL     1       4.750  -8.755   0.746  0.00  0.00    +0.145 HD
ENDBRANCH   9  21
BRANCH  10  24
ATOM     24  C   UNL     1       5.328  -6.737  -0.313  0.00  0.00    +0.101 C 
ATOM     25  N   UNL     1       5.189  -7.043  -1.398  0.00  0.00    -0.191 NA
ENDBRANCH  10  24
BRANCH   5  26
ATOM     26  O   UNL     1       7.878  -4.643   6.660  0.00  0.00    -0.422 OA
BRANCH  26  27
ATOM     27  C   UNL     1       7.361  -3.696   7.467  0.00  0.00    +0.344 C 
ATOM     28  O   UNL     1       6.432  -3.013   7.084  0.00  0.00    -0.245 OA
BRANCH  27  29
ATOM     29  C   UNL     1       7.925  -3.486   8.816  0.00  0.00    +0.060 A 
ATOM     30  C   UNL     1       8.997  -4.265   9.257  0.00  0.00    +0.017 A 
ATOM     31  C   UNL     1       9.518  -4.064  10.518  0.00  0.00    +0.033 A 
ATOM     32  C   UNL     1       8.981  -3.094  11.346  0.00  0.00    +0.126 A 
ATOM     33  C   UNL     1       7.919  -2.319  10.915  0.00  0.00    +0.033 A 
ATOM     34  C   UNL     1       7.392  -2.505   9.654  0.00  0.00    +0.017 A 
BRANCH  32  35
ATOM     35  N   UNL     1       9.545  -2.885  12.698  0.00  0.00    +0.056 N 
ATOM     36  O   UNL     1      10.473  -3.561  13.077  0.00  0.00    -0.126 OA
ATOM     37  O   UNL     1       9.078  -2.038  13.424  0.00  0.00    -0.126 OA
ENDBRANCH  32  35
ENDBRANCH  27  29
ENDBRANCH  26  27
ENDBRANCH   5  26
TORSDOF 10
