REMARK  Name = ZINC38735554
REMARK  8 active torsions:
REMARK  status: ('A' for Active; 'I' for Inactive)
REMARK    1  A    between atoms: C_1  and  C_2
REMARK    2  A    between atoms: C_4  and  C_9
REMARK    3  A    between atoms: C_5  and  C_8
REMARK    4  A    between atoms: C_9  and  C_10
REMARK    5  A    between atoms: C_10  and  C_11
REMARK    6  A    between atoms: N_13  and  C_14
REMARK    7  A    between atoms: C_14  and  C_16
REMARK    8  A    between atoms: C_14  and  C_22
REMARK                            x       y       z     vdW  Elec       q    Type
REMARK                         _______ _______ _______ _____ _____    ______ ____
ROOT
ATOM      1  C   UNL     1      -2.350  -1.621  -6.521  0.00  0.00    +0.134 C 
ENDROOT
BRANCH   1   2
ATOM      2  C   UNL     1      -2.843  -2.905  -7.136  0.00  0.00    -0.021 A 
ATOM      3  C   UNL     1      -3.650  -3.758  -6.397  0.00  0.00    +0.008 A 
ATOM      4  C   UNL     1      -4.107  -4.927  -6.936  0.00  0.00    +0.030 A 
ATOM      5  C   UNL     1      -3.761  -5.272  -8.245  0.00  0.00    +0.089 A 
ATOM      6  C   UNL     1      -2.944  -4.409  -8.994  0.00  0.00    +0.066 A 
ATOM      7  C   UNL     1      -2.493  -3.223  -8.431  0.00  0.00    +0.033 A 
ATOM      8  N   UNL     1      -2.781  -5.012 -10.225  0.00  0.00    -0.344 N 
ATOM      9  C   UNL     1      -3.475  -6.182 -10.198  0.00  0.00    +0.197 A 
ATOM     10  N   UNL     1      -4.049  -6.335  -9.040  0.00  0.00    -0.236 NA
ATOM     11  H   UNL     1      -2.268  -4.666 -10.972  0.00  0.00    +0.167 HD
ENDBRANCH   1   2
BRANCH   1  12
ATOM     12  C   UNL     1      -3.444  -0.585  -6.577  0.00  0.00    -0.023 A 
ATOM     13  C   UNL     1      -4.457  -0.600  -5.638  0.00  0.00    +0.006 A 
ATOM     14  C   UNL     1      -5.461   0.350  -5.689  0.00  0.00    +0.000 A 
ATOM     15  C   UNL     1      -5.450   1.314  -6.679  0.00  0.00    +0.000 A 
ATOM     16  C   UNL     1      -4.435   1.329  -7.618  0.00  0.00    +0.000 A 
ATOM     17  C   UNL     1      -3.430   0.382  -7.565  0.00  0.00    +0.006 A 
ENDBRANCH   1  12
BRANCH   1  20
ATOM     18  C   UNL     1      -1.071  -1.060  -4.525  0.00  0.00    +0.214 C 
ATOM     19  O   UNL     1      -0.569  -0.143  -5.139  0.00  0.00    -0.276 OA
ATOM     20  N   UNL     1      -1.975  -1.860  -5.126  0.00  0.00    -0.304 N 
ATOM     21  H   UNL     1      -2.376  -2.593  -4.634  0.00  0.00    +0.150 HD
BRANCH  18  22
ATOM     22  C   UNL     1      -0.685  -1.306  -3.089  0.00  0.00    +0.100 C 
BRANCH  22  23
ATOM     23  C   UNL     1       0.349  -0.266  -2.654  0.00  0.00    +0.044 C 
BRANCH  23  26
ATOM     24  C   UNL     1      -0.019   1.526   0.010  0.00  0.00    +0.045 C 
ATOM     25  C   UNL     1       0.002  -0.004   0.002  0.00  0.00    +0.173 C 
ATOM     26  C   UNL     1       0.735  -0.512  -1.218  0.00  0.00    -0.018 C 
ATOM     27  C   UNL     1       1.772  -1.208  -0.801  0.00  0.00    +0.038 C 
ATOM     28  N   UNL     1       1.832  -1.235   0.581  0.00  0.00    -0.270 N 
ATOM     29  O   UNL     1       0.748  -0.498   1.124  0.00  0.00    -0.267 OA
ATOM     30  C   UNL     1       2.763  -1.888  -1.710  0.00  0.00    +0.065 C 
ATOM     31  H   UNL     1       2.513  -1.690   1.100  0.00  0.00    +0.194 HD
ENDBRANCH  23  26
ENDBRANCH  22  23
ENDBRANCH  18  22
ENDBRANCH   1  20
TORSDOF 6
