REMARK  Name = ZINC22927005
REMARK  8 active torsions:
REMARK  status: ('A' for Active; 'I' for Inactive)
REMARK    1  A    between atoms: C_1  and  O_2
REMARK    2  A    between atoms: O_2  and  C_3
REMARK    3  A    between atoms: C_3  and  C_5
REMARK    4  A    between atoms: C_21  and  C_35
REMARK    5  A    between atoms: C_24  and  N_27
REMARK    6  A    between atoms: N_27  and  C_28
REMARK    7  A    between atoms: C_28  and  C_29
REMARK    8  A    between atoms: C_29  and  N_30
REMARK                            x       y       z     vdW  Elec       q    Type
REMARK                         _______ _______ _______ _____ _____    ______ ____
ROOT
ATOM      1  C   UNL     1       0.422  -1.699  -1.172  0.00  0.00    +0.172 C 
ATOM      2  C   UNL     1       1.190  -1.997   0.123  0.00  0.00    +0.068 C 
ATOM      3  C   UNL     1       2.638  -1.635  -0.096  0.00  0.00    -0.016 A 
ATOM      4  C   UNL     1       3.689  -1.437   0.877  0.00  0.00    +0.003 A 
ATOM      5  C   UNL     1       3.718  -1.510   2.273  0.00  0.00    +0.010 A 
ATOM      6  C   UNL     1       4.921  -1.255   2.884  0.00  0.00    +0.001 A 
ATOM      7  C   UNL     1       6.060  -0.938   2.162  0.00  0.00    +0.002 A 
ATOM      8  C   UNL     1       6.061  -0.859   0.780  0.00  0.00    +0.026 A 
ATOM      9  C   UNL     1       4.854  -1.113   0.133  0.00  0.00    +0.047 A 
ATOM     10  N   UNL     1       4.508  -1.119  -1.188  0.00  0.00    -0.356 N 
ATOM     11  H   UNL     1       5.111  -0.932  -1.924  0.00  0.00    +0.166 HD
ATOM     12  C   UNL     1       3.181  -1.430  -1.318  0.00  0.00    +0.038 A 
ATOM     13  C   UNL     1       2.387  -1.542  -2.595  0.00  0.00    +0.103 C 
ATOM     14  N   UNL     1       1.143  -2.273  -2.313  0.00  0.00    -0.274 NA
ATOM     15  C   UNL     1       0.297  -2.350  -3.510  0.00  0.00    +0.090 C 
ATOM     16  C   UNL     1       1.036  -3.129  -4.601  0.00  0.00    +0.008 C 
ATOM     17  C   UNL     1       2.358  -2.428  -4.925  0.00  0.00    -0.068 C 
ATOM     18  C   UNL     1       3.197  -2.299  -3.650  0.00  0.00    +0.009 C 
ENDROOT
BRANCH  15  19
ATOM     19  C   UNL     1      -0.991  -3.056  -3.171  0.00  0.00    +0.005 A 
ATOM     20  C   UNL     1      -2.198  -2.532  -3.592  0.00  0.00    +0.008 A 
ATOM     21  C   UNL     1      -3.379  -3.179  -3.282  0.00  0.00    +0.000 A 
ATOM     22  C   UNL     1      -3.355  -4.351  -2.549  0.00  0.00    +0.003 A 
ATOM     23  C   UNL     1      -2.149  -4.877  -2.126  0.00  0.00    +0.038 A 
ATOM     24  C   UNL     1      -0.964  -4.232  -2.441  0.00  0.00    +0.128 A 
ATOM     25  F   UNL     1       0.216  -4.748  -2.033  0.00  0.00    -0.205 F 
ENDBRANCH  15  19
BRANCH  17  26
ATOM     26  N   UNL     1       2.083  -1.089  -5.461  0.00  0.00    +0.382 N 
ATOM     27  H   UNL     1       1.506  -0.577  -4.811  0.00  0.00    -0.085 HD
ATOM     28  H   UNL     1       2.954  -0.596  -5.597  0.00  0.00    -0.085 HD
BRANCH  26  29
ATOM     29  C   UNL     1       1.384  -1.210  -6.747  0.00  0.00    -0.067 C 
BRANCH  29  30
ATOM     30  C   UNL     1       1.098   0.185  -7.306  0.00  0.00    +0.065 C 
BRANCH  30  31
ATOM     31  N   UNL     1       0.399   0.064  -8.592  0.00  0.00    -0.304 NA
ATOM     32  C   UNL     1      -1.006  -0.378  -8.395  0.00  0.00    +0.084 C 
ATOM     33  C   UNL     1      -1.701   0.051  -9.711  0.00  0.00    +0.017 C 
ATOM     34  C   UNL     1      -1.023   1.403 -10.035  0.00  0.00    +0.017 C 
ATOM     35  C   UNL     1       0.317   1.372  -9.277  0.00  0.00    +0.084 C 
ENDBRANCH  30  31
ENDBRANCH  29  30
ENDBRANCH  26  29
ENDBRANCH  17  26
BRANCH   1  36
ATOM     36  C   UNL     1       0.302  -0.207  -1.353  0.00  0.00    +0.325 C 
ATOM     37  O   UNL     1       0.584   0.297  -2.414  0.00  0.00    -0.249 OA
BRANCH  36  39
ATOM     38  C   UNL     1      -0.209   1.966  -0.578  0.00  0.00    +0.280 C 
ATOM     39  O   UNL     1      -0.119   0.560  -0.336  0.00  0.00    -0.467 OA
ENDBRANCH  36  39
ENDBRANCH   1  36
TORSDOF 7
