REMARK  Name = ZINC03833333
REMARK  6 active torsions:
REMARK  status: ('A' for Active; 'I' for Inactive)
REMARK    1  A    between atoms: C_6  and  N_7
REMARK    2  A    between atoms: C_11  and  S_14
REMARK    3  A    between atoms: S_14  and  C_15
REMARK    4  A    between atoms: C_15  and  C_16
REMARK    5  A    between atoms: N_18  and  C_19
REMARK    6  A    between atoms: C_20  and  C_28
REMARK                            x       y       z     vdW  Elec       q    Type
REMARK                         _______ _______ _______ _____ _____    ______ ____
ROOT
ATOM      1  C   UNL     1      -2.653   8.627  -3.320  0.00  0.00    +0.173 C 
ENDROOT
BRANCH   1   2
ATOM      2  C   UNL     1      -2.279   7.222  -2.922  0.00  0.00    +0.228 C 
ATOM      3  O   UNL     1      -2.260   6.341  -3.755  0.00  0.00    -0.275 OA
ATOM      4  N   UNL     1      -1.965   6.946  -1.641  0.00  0.00    -0.278 N 
ATOM      5  H   UNL     1      -1.980   7.652  -0.975  0.00  0.00    +0.155 HD
BRANCH   4   6
ATOM      6  C   UNL     1      -1.621   5.653  -1.274  0.00  0.00    +0.090 A 
ATOM      7  C   UNL     1      -1.271   5.177  -0.019  0.00  0.00    +0.084 A 
ATOM      8  C   UNL     1      -0.951   3.765   0.100  0.00  0.00    -0.018 A 
ATOM      9  C   UNL     1      -1.032   3.059  -1.049  0.00  0.00    -0.004 A 
ATOM     10  S   UNL     1      -1.524   4.240  -2.273  0.00  0.00    -0.077 S 
ATOM     11  C   UNL     1      -0.761   1.597  -1.232  0.00  0.00    +0.043 C 
ATOM     12  C   UNL     1      -0.013   1.086   0.008  0.00  0.00    +0.005 C 
ATOM     13  C   UNL     1      -0.735   1.583   1.264  0.00  0.00    +0.005 C 
ATOM     14  C   UNL     1      -0.551   3.094   1.407  0.00  0.00    +0.037 C 
BRANCH   7  15
ATOM     15  C   UNL     1      -1.226   6.046   1.118  0.00  0.00    +0.102 C 
ATOM     16  N   UNL     1      -1.191   6.736   2.020  0.00  0.00    -0.191 NA
ENDBRANCH   7  15
ENDBRANCH   4   6
ENDBRANCH   1   2
BRANCH   1  17
ATOM     17  S   UNL     1      -3.016   8.675  -5.093  0.00  0.00    -0.079 S 
BRANCH  17  25
ATOM     18  C   UNL     1      -4.523  14.649  -6.357  0.00  0.00    +0.035 A 
ATOM     19  C   UNL     1      -4.380  13.408  -6.945  0.00  0.00    +0.030 A 
ATOM     20  C   UNL     1      -3.998  12.320  -6.176  0.00  0.00    +0.067 A 
ATOM     21  C   UNL     1      -3.758  12.482  -4.802  0.00  0.00    +0.092 A 
ATOM     22  C   UNL     1      -3.908  13.744  -4.222  0.00  0.00    +0.062 A 
ATOM     23  C   UNL     1      -4.288  14.815  -5.001  0.00  0.00    +0.128 A 
ATOM     24  N   UNL     1      -3.409  11.265  -4.310  0.00  0.00    -0.222 NA
ATOM     25  C   UNL     1      -3.411  10.382  -5.278  0.00  0.00    +0.168 A 
ATOM     26  N   UNL     1      -3.771  10.982  -6.452  0.00  0.00    -0.333 N 
ATOM     27  H   UNL     1      -3.855  10.537  -7.344  0.00  0.00    +0.168 HD
BRANCH  23  28
ATOM     28  N   UNL     1      -4.447  16.151  -4.386  0.00  0.00    +0.056 N 
ATOM     29  O   UNL     1      -4.242  16.302  -3.195  0.00  0.00    -0.126 OA
ATOM     30  O   UNL     1      -4.783  17.101  -5.071  0.00  0.00    -0.126 OA
ENDBRANCH  23  28
ENDBRANCH  17  25
ENDBRANCH   1  17
TORSDOF 6
