REMARK  Name = ZINC15034272
REMARK  6 active torsions:
REMARK  status: ('A' for Active; 'I' for Inactive)
REMARK    1  A    between atoms: C_4  and  C_7
REMARK    2  A    between atoms: C_16  and  C_17
REMARK    3  A    between atoms: C_16  and  N_60
REMARK    4  A    between atoms: N_19  and  C_20
REMARK    5  A    between atoms: C_24  and  S_26
REMARK    6  A    between atoms: S_26  and  N_29
REMARK                            x       y       z     vdW  Elec       q    Type
REMARK                         _______ _______ _______ _____ _____    ______ ____
ROOT
ATOM      1  C   UNL     1      -4.127   0.874   4.833  0.00  0.00    +0.201 C 
ATOM      2  O   UNL     1      -3.961   1.974   5.317  0.00  0.00    -0.278 OA
ATOM      3  N   UNL     1      -3.507   0.543   3.684  0.00  0.00    -0.287 N 
ATOM      4  H   UNL     1      -3.690  -0.312   3.263  0.00  0.00    +0.155 HD
ENDROOT
BRANCH   3   5
ATOM      5  C   UNL     1      -2.598   1.431   3.097  0.00  0.00    +0.035 A 
ATOM      6  C   UNL     1      -2.815   2.800   3.176  0.00  0.00    +0.023 A 
ATOM      7  C   UNL     1      -1.916   3.674   2.597  0.00  0.00    +0.004 A 
ATOM      8  C   UNL     1      -0.799   3.187   1.944  0.00  0.00    +0.028 A 
ATOM      9  C   UNL     1      -0.583   1.824   1.859  0.00  0.00    +0.107 A 
ATOM     10  C   UNL     1      -1.478   0.945   2.436  0.00  0.00    +0.051 A 
BRANCH   9  11
ATOM     11  S   UNL     1       0.839   1.208   1.021  0.00  0.00    +0.061 S 
ATOM     12  O   UNL     1       1.100  -0.081   1.557  0.00  0.00    -0.153 OA
ATOM     13  O   UNL     1       1.804   2.251   1.039  0.00  0.00    -0.153 OA
BRANCH  11  14
ATOM     14  N   UNL     1       0.414   0.985  -0.564  0.00  0.00    -0.177 NA
ATOM     15  C   UNL     1      -0.137  -0.252  -1.137  0.00  0.00    +0.109 C 
ATOM     16  C   UNL     1      -0.355  -0.002  -2.644  0.00  0.00    +0.018 C 
ATOM     17  C   UNL     1       0.621   1.166  -2.945  0.00  0.00    +0.018 C 
ATOM     18  C   UNL     1       0.533   1.990  -1.636  0.00  0.00    +0.109 C 
ENDBRANCH  11  14
ENDBRANCH   9  11
ENDBRANCH   3   5
BRANCH   1  19
ATOM     19  C   UNL     1      -5.028  -0.121   5.518  0.00  0.00    +0.020 C 
BRANCH  19  28
ATOM     20  C   UNL     1      -6.550   1.610   6.257  0.00  0.00    -0.005 C 
ATOM     21  C   UNL     1      -7.167   2.244   7.500  0.00  0.00    -0.047 A 
ATOM     22  C   UNL     1      -8.308   3.042   7.481  0.00  0.00    +0.010 A 
ATOM     23  C   UNL     1      -8.789   3.564   8.633  0.00  0.00    +0.045 A 
ATOM     24  S   UNL     1      -7.623   2.940   9.835  0.00  0.00    -0.101 S 
ATOM     25  C   UNL     1      -6.590   2.037   8.717  0.00  0.00    -0.010 A 
ATOM     26  C   UNL     1      -5.366   1.227   8.998  0.00  0.00    +0.024 C 
ATOM     27  C   UNL     1      -4.665   0.958   7.656  0.00  0.00    -0.072 C 
ATOM     28  N   UNL     1      -5.687   0.486   6.691  0.00  0.00    +0.393 N 
ATOM     29  H   UNL     1      -6.272  -0.223   7.148  0.00  0.00    -0.080 HD
BRANCH  20  33
ATOM     30  C   UNL     1      -9.646   0.074   3.746  0.00  0.00    +0.000 A 
ATOM     31  C   UNL     1      -9.052   1.286   3.447  0.00  0.00    +0.000 A 
ATOM     32  C   UNL     1      -8.050   1.783   4.260  0.00  0.00    +0.002 A 
ATOM     33  C   UNL     1      -7.643   1.069   5.371  0.00  0.00    -0.057 A 
ATOM     34  C   UNL     1      -8.234  -0.145   5.667  0.00  0.00    +0.002 A 
ATOM     35  C   UNL     1      -9.239  -0.640   4.857  0.00  0.00    +0.000 A 
ENDBRANCH  20  33
ENDBRANCH  19  28
ENDBRANCH   1  19
TORSDOF 6
