REMARK  Name = ZINC38183603
REMARK  7 active torsions:
REMARK  status: ('A' for Active; 'I' for Inactive)
REMARK    1  A    between atoms: C_1  and  C_2
REMARK    2  A    between atoms: C_3  and  C_12
REMARK    3  A    between atoms: N_16  and  C_30
REMARK    4  A    between atoms: N_18  and  C_19
REMARK    5  A    between atoms: C_22  and  C_25
REMARK    6  A    between atoms: C_25  and  O_27
REMARK    7  A    between atoms: O_27  and  C_28
REMARK                            x       y       z     vdW  Elec       q    Type
REMARK                         _______ _______ _______ _____ _____    ______ ____
ROOT
ATOM      1  C   UNL     1       1.141   1.795  -1.801  0.00  0.00    +0.030 C 
ATOM      2  C   UNL     1      -0.027   2.325  -2.258  0.00  0.00    +0.078 C 
ATOM      3  C   UNL     1      -0.364   2.774  -3.569  0.00  0.00    +0.259 C 
ATOM      4  O   UNL     1       0.446   2.713  -4.477  0.00  0.00    -0.269 OA
ATOM      5  N   UNL     1      -1.577   3.257  -3.775  0.00  0.00    -0.249 N 
ATOM      6  C   UNL     1      -2.482   3.320  -2.737  0.00  0.00    +0.168 C 
ATOM      7  N   UNL     1      -3.723   3.764  -2.749  0.00  0.00    -0.226 NA
ATOM      8  S   UNL     1      -1.549   2.637  -1.376  0.00  0.00    -0.049 S 
ATOM      9  C   UNL     1      -1.959   3.728  -5.108  0.00  0.00    +0.140 C 
ENDROOT
BRANCH   1  12
ATOM     10  C   UNL     1       3.250   2.654   0.319  0.00  0.00    +0.064 C 
ATOM     11  C   UNL     1       2.144   1.649   0.517  0.00  0.00    +0.021 A 
ATOM     12  C   UNL     1       1.229   1.289  -0.431  0.00  0.00    +0.004 A 
ATOM     13  C   UNL     1       0.346   0.288   0.199  0.00  0.00    +0.007 A 
ATOM     14  C   UNL     1      -0.754  -0.443  -0.241  0.00  0.00    +0.010 A 
ATOM     15  C   UNL     1      -1.376  -1.323   0.618  0.00  0.00    +0.001 A 
ATOM     16  C   UNL     1      -0.909  -1.483   1.915  0.00  0.00    +0.002 A 
ATOM     17  C   UNL     1       0.179  -0.766   2.363  0.00  0.00    +0.026 A 
ATOM     18  C   UNL     1       0.820   0.128   1.511  0.00  0.00    +0.047 A 
ATOM     19  N   UNL     1       1.909   0.962   1.664  0.00  0.00    -0.358 N 
ATOM     20  H   UNL     1       2.430   1.046   2.478  0.00  0.00    +0.166 HD
ENDBRANCH   1  12
BRANCH   7  21
ATOM     21  C   UNL     1      -4.213   4.387  -3.857  0.00  0.00    +0.067 A 
ATOM     22  C   UNL     1      -4.735   3.630  -4.913  0.00  0.00    +0.028 A 
ATOM     23  C   UNL     1      -5.225   4.255  -6.022  0.00  0.00    +0.017 A 
ATOM     24  C   UNL     1      -5.206   5.653  -6.104  0.00  0.00    +0.059 A 
ATOM     25  C   UNL     1      -4.684   6.410  -5.048  0.00  0.00    +0.017 A 
ATOM     26  C   UNL     1      -4.200   5.786  -3.936  0.00  0.00    +0.028 A 
BRANCH  24  27
ATOM     27  C   UNL     1      -5.734   6.326  -7.302  0.00  0.00    +0.339 C 
ATOM     28  O   UNL     1      -6.187   5.669  -8.219  0.00  0.00    -0.245 OA
BRANCH  27  29
ATOM     29  O   UNL     1      -5.716   7.672  -7.381  0.00  0.00    -0.464 OA
ATOM     30  C   UNL     1      -6.245   8.259  -8.572  0.00  0.00    +0.280 C 
ENDBRANCH  27  29
ENDBRANCH  24  27
ENDBRANCH   7  21
TORSDOF 4
