REMARK  Name = ZINC29827833
REMARK  10 active torsions:
REMARK  status: ('A' for Active; 'I' for Inactive)
REMARK    1  A    between atoms: C_1  and  C_2
REMARK    2  A    between atoms: C_6  and  N_8
REMARK    3  A    between atoms: C_9  and  C_28
REMARK    4  A    between atoms: C_12  and  S_13
REMARK    5  A    between atoms: S_13  and  C_14
REMARK    6  A    between atoms: C_14  and  C_16
REMARK    7  A    between atoms: C_14  and  C_17
REMARK    8  A    between atoms: N_19  and  C_20
REMARK    9  A    between atoms: C_25  and  O_26
REMARK   10  A    between atoms: O_26  and  C_27
REMARK                            x       y       z     vdW  Elec       q    Type
REMARK                         _______ _______ _______ _____ _____    ______ ____
ROOT
ATOM      1  N   UNL     1       3.588   0.990   1.924  0.00  0.00    -0.270 N 
ATOM      2  C   UNL     1       3.617   0.173   3.033  0.00  0.00    +0.171 A 
ATOM      3  N   UNL     1       2.420  -0.355   3.153  0.00  0.00    -0.128 NA
ATOM      4  N   UNL     1       1.654   0.074   2.215  0.00  0.00    -0.122 NA
ATOM      5  C   UNL     1       2.313   0.893   1.430  0.00  0.00    +0.197 A 
ENDROOT
BRANCH   2   6
ATOM      6  C   UNL     1       4.774  -0.065   3.918  0.00  0.00    +0.045 A 
ATOM      7  C   UNL     1       6.015   0.473   3.794  0.00  0.00    +0.095 A 
ATOM      8  N   UNL     1       6.816   0.021   4.802  0.00  0.00    -0.360 N 
ATOM      9  H   UNL     1       7.861   0.358   4.868  0.00  0.00    +0.165 HD
ATOM     10  C   UNL     1       6.116  -0.843   5.616  0.00  0.00    +0.047 A 
ATOM     11  C   UNL     1       4.811  -0.938   5.104  0.00  0.00    +0.010 A 
ATOM     12  C   UNL     1       3.871  -1.752   5.734  0.00  0.00    +0.011 A 
ATOM     13  C   UNL     1       4.229  -2.461   6.859  0.00  0.00    +0.001 A 
ATOM     14  C   UNL     1       5.518  -2.369   7.365  0.00  0.00    +0.002 A 
ATOM     15  C   UNL     1       6.457  -1.568   6.753  0.00  0.00    +0.026 A 
ENDBRANCH   2   6
BRANCH   1  21
ATOM     16  C   UNL     1       5.498   5.405   0.899  0.00  0.00    +0.044 C 
ATOM     17  C   UNL     1       5.592   3.901   0.901  0.00  0.00    -0.048 A 
ATOM     18  C   UNL     1       6.719   3.278   0.396  0.00  0.00    +0.003 A 
ATOM     19  C   UNL     1       6.809   1.899   0.396  0.00  0.00    +0.002 A 
ATOM     20  C   UNL     1       5.775   1.138   0.906  0.00  0.00    +0.026 A 
ATOM     21  C   UNL     1       4.641   1.760   1.410  0.00  0.00    +0.051 A 
ATOM     22  C   UNL     1       4.553   3.145   1.408  0.00  0.00    +0.029 A 
ENDBRANCH   1  21
BRANCH   5  23
ATOM     23  S   UNL     1       1.676   1.721   0.011  0.00  0.00    -0.073 S 
BRANCH  23  24
ATOM     24  C   UNL     1      -0.022   1.095   0.018  0.00  0.00    +0.137 C 
ATOM     25  C   UNL     1      -0.745   1.596   1.269  0.00  0.00    +0.029 C 
BRANCH  24  26
ATOM     26  C   UNL     1      -0.744   1.587  -1.210  0.00  0.00    +0.230 C 
ATOM     27  O   UNL     1      -0.326   2.553  -1.813  0.00  0.00    -0.274 OA
ATOM     28  N   UNL     1      -1.854   0.954  -1.639  0.00  0.00    -0.282 N 
ATOM     29  H   UNL     1      -2.181   0.025  -1.148  0.00  0.00    +0.155 HD
BRANCH  28  30
ATOM     30  C   UNL     1      -2.590   1.478  -2.710  0.00  0.00    +0.076 A 
ATOM     31  C   UNL     1      -2.528   2.833  -2.999  0.00  0.00    +0.027 A 
ATOM     32  C   UNL     1      -3.251   3.347  -4.059  0.00  0.00    +0.002 A 
ATOM     33  C   UNL     1      -4.046   2.515  -4.826  0.00  0.00    +0.004 A 
ATOM     34  C   UNL     1      -4.117   1.164  -4.540  0.00  0.00    +0.047 A 
ATOM     35  C   UNL     1      -3.391   0.640  -3.483  0.00  0.00    +0.141 A 
BRANCH  35  36
ATOM     36  O   UNL     1      -3.460  -0.688  -3.200  0.00  0.00    -0.493 OA
ATOM     37  C   UNL     1      -4.301  -1.486  -4.035  0.00  0.00    +0.277 C 
ENDBRANCH  35  36
ENDBRANCH  28  30
ENDBRANCH  24  26
ENDBRANCH  23  24
ENDBRANCH   5  23
TORSDOF 7
