REMARK  Name = ZINC63372385
REMARK  10 active torsions:
REMARK  status: ('A' for Active; 'I' for Inactive)
REMARK    1  A    between atoms: C_1  and  C_2
REMARK    2  A    between atoms: C_2  and  C_3
REMARK    3  A    between atoms: C_6  and  C_9
REMARK    4  A    between atoms: N_16  and  C_31
REMARK    5  A    between atoms: C_19  and  C_30
REMARK    6  A    between atoms: C_31  and  C_32
REMARK    7  A    between atoms: C_35  and  O_40
REMARK    8  A    between atoms: C_36  and  O_38
REMARK    9  A    between atoms: O_38  and  C_39
REMARK   10  A    between atoms: O_40  and  C_41
REMARK                            x       y       z     vdW  Elec       q    Type
REMARK                         _______ _______ _______ _____ _____    ______ ____
ROOT
ATOM      1  C   UNL     1      -5.419  -2.005   0.043  0.00  0.00    +0.065 C 
ATOM      2  C   UNL     1      -6.347  -1.028  -0.700  0.00  0.00    +0.121 C 
ATOM      3  N   UNL     1      -7.635  -1.694  -0.978  0.00  0.00    -0.283 N 
ATOM      4  C   UNL     1      -8.748  -1.143  -0.483  0.00  0.00    +0.234 C 
ATOM      5  O   UNL     1      -8.628  -0.140   0.188  0.00  0.00    -0.274 OA
ATOM      6  C   UNL     1     -10.128  -1.671  -0.695  0.00  0.00    +0.204 C 
ATOM      7  N   UNL     1     -10.137  -2.866  -1.521  0.00  0.00    -0.287 N 
ATOM      8  C   UNL     1      -9.035  -3.432  -2.009  0.00  0.00    +0.242 C 
ATOM      9  O   UNL     1      -9.163  -4.428  -2.689  0.00  0.00    -0.273 OA
ATOM     10  C   UNL     1      -7.652  -2.922  -1.775  0.00  0.00    +0.135 C 
ATOM     11  C   UNL     1      -6.818  -3.980  -1.045  0.00  0.00    +0.139 C 
ATOM     12  C   UNL     1      -5.489  -3.318  -0.696  0.00  0.00    -0.027 C 
ATOM     13  C   UNL     1      -4.540  -4.109  -1.180  0.00  0.00    -0.000 A 
ATOM     14  C   UNL     1      -3.073  -4.058  -1.072  0.00  0.00    +0.010 A 
ATOM     15  C   UNL     1      -2.390  -5.036  -1.725  0.00  0.00    +0.001 A 
ATOM     16  C   UNL     1      -3.012  -6.046  -2.465  0.00  0.00    +0.002 A 
ATOM     17  C   UNL     1      -4.355  -6.175  -2.610  0.00  0.00    +0.026 A 
ATOM     18  C   UNL     1      -5.181  -5.212  -1.960  0.00  0.00    +0.043 A 
ATOM     19  N   UNL     1      -6.498  -5.120  -1.904  0.00  0.00    -0.375 N 
ATOM     20  C   UNL     1      -6.992  -2.642  -3.127  0.00  0.00    +0.044 C 
ATOM     21  H   UNL     1      -7.141  -5.696  -2.346  0.00  0.00    +0.160 HD
ENDROOT
BRANCH   1  25
ATOM     22  C   UNL     1      -1.412  -0.526   0.013  0.00  0.00    -0.048 A 
ATOM     23  C   UNL     1      -2.051  -0.766   1.215  0.00  0.00    +0.004 A 
ATOM     24  C   UNL     1      -3.348  -1.244   1.225  0.00  0.00    +0.004 A 
ATOM     25  C   UNL     1      -4.006  -1.482   0.032  0.00  0.00    -0.039 A 
ATOM     26  C   UNL     1      -3.367  -1.241  -1.170  0.00  0.00    +0.004 A 
ATOM     27  C   UNL     1      -2.072  -0.758  -1.179  0.00  0.00    +0.004 A 
BRANCH  22  29
ATOM     28  C   UNL     1      -0.019   1.526   0.010  0.00  0.00    +0.009 C 
ATOM     29  C   UNL     1       0.002  -0.004   0.002  0.00  0.00    +0.032 C 
ENDBRANCH  22  29
ENDBRANCH   1  25
BRANCH   7  30
ATOM     30  C   UNL     1     -11.428  -3.483  -1.833  0.00  0.00    +0.143 C 
BRANCH  30  31
ATOM     31  C   UNL     1     -11.975  -2.889  -3.106  0.00  0.00    -0.026 A 
ATOM     32  C   UNL     1     -12.779  -1.766  -3.053  0.00  0.00    +0.009 A 
ATOM     33  C   UNL     1     -13.282  -1.217  -4.217  0.00  0.00    +0.050 A 
ATOM     34  C   UNL     1     -12.981  -1.793  -5.441  0.00  0.00    +0.162 A 
ATOM     35  C   UNL     1     -12.172  -2.924  -5.494  0.00  0.00    +0.162 A 
ATOM     36  C   UNL     1     -11.666  -3.466  -4.324  0.00  0.00    +0.054 A 
BRANCH  35  37
ATOM     37  O   UNL     1     -11.873  -3.492  -6.693  0.00  0.00    -0.491 OA
ATOM     38  C   UNL     1     -11.037  -4.651  -6.671  0.00  0.00    +0.277 C 
ENDBRANCH  35  37
BRANCH  34  39
ATOM     39  O   UNL     1     -13.476  -1.255  -6.588  0.00  0.00    -0.491 OA
ATOM     40  C   UNL     1     -14.300  -0.095  -6.457  0.00  0.00    +0.277 C 
ENDBRANCH  34  39
ENDBRANCH  30  31
ENDBRANCH   7  30
TORSDOF 6
