REMARK  Name = ZINC03314515
REMARK  7 active torsions:
REMARK  status: ('A' for Active; 'I' for Inactive)
REMARK    1  A    between atoms: C_6  and  S_7
REMARK    2  A    between atoms: S_7  and  N_10
REMARK    3  A    between atoms: N_10  and  N_11
REMARK    4  A    between atoms: C_12  and  C_13
REMARK    5  A    between atoms: C_16  and  O_21
REMARK    6  A    between atoms: C_17  and  O_20
REMARK    7  A    between atoms: C_18  and  O_19
REMARK                            x       y       z     vdW  Elec       q    Type
REMARK                         _______ _______ _______ _____ _____    ______ ____
ROOT
ATOM      1  N   UNL     1       0.002  -0.004   0.002  0.00  0.00    -0.174 NA
ATOM      2  C   UNL     1      -0.015   1.293   0.009  0.00  0.00    +0.143 C 
ENDROOT
BRANCH   2   3
ATOM      3  C   UNL     1      -1.302   2.013   0.019  0.00  0.00    +0.040 A 
ATOM      4  C   UNL     1      -1.324   3.410   0.033  0.00  0.00    +0.017 A 
ATOM      5  C   UNL     1      -2.528   4.081   0.037  0.00  0.00    +0.050 A 
ATOM      6  C   UNL     1      -3.723   3.374   0.038  0.00  0.00    +0.162 A 
ATOM      7  C   UNL     1      -3.713   1.984   0.030  0.00  0.00    +0.201 A 
ATOM      8  C   UNL     1      -2.507   1.299   0.021  0.00  0.00    +0.171 A 
BRANCH   8   9
ATOM      9  O   UNL     1      -2.494  -0.061   0.014  0.00  0.00    -0.503 OA
ATOM     10  H   UNL     1      -2.486  -0.459   0.895  0.00  0.00    +0.292 HD
ENDBRANCH   8   9
BRANCH   7  11
ATOM     11  O   UNL     1      -4.887   1.295   0.033  0.00  0.00    -0.501 OA
ATOM     12  H   UNL     1      -5.222   1.091   0.917  0.00  0.00    +0.292 HD
ENDBRANCH   7  11
BRANCH   6  13
ATOM     13  O   UNL     1      -4.906   4.043   0.047  0.00  0.00    -0.503 OA
ATOM     14  H   UNL     1      -5.245   4.232   0.933  0.00  0.00    +0.292 HD
ENDBRANCH   6  13
ENDBRANCH   2   3
BRANCH   1  15
ATOM     15  N   UNL     1       1.225  -0.688  -0.013  0.00  0.00    -0.137 N 
ATOM     16  H   UNL     1       2.058  -0.192  -0.019  0.00  0.00    +0.197 HD
BRANCH  15  17
ATOM     17  S   UNL     1       1.247  -2.344  -0.022  0.00  0.00    +0.086 S 
ATOM     18  O   UNL     1       2.605  -2.731  -0.183  0.00  0.00    -0.149 OA
ATOM     19  O   UNL     1       0.460  -2.767   1.083  0.00  0.00    -0.149 OA
BRANCH  17  25
ATOM     20  C   UNL     1      -0.964  -3.097  -1.435  0.00  0.00    +0.030 A 
ATOM     21  C   UNL     1      -1.631  -3.504  -2.575  0.00  0.00    +0.017 A 
ATOM     22  C   UNL     1      -0.932  -3.692  -3.754  0.00  0.00    +0.018 A 
ATOM     23  C   UNL     1       0.432  -3.469  -3.793  0.00  0.00    +0.017 A 
ATOM     24  C   UNL     1       1.097  -3.057  -2.653  0.00  0.00    +0.030 A 
ATOM     25  C   UNL     1       0.399  -2.868  -1.475  0.00  0.00    +0.110 A 
ATOM     26 BR   UNL     1      -1.843  -4.255  -5.313  0.00  0.00    -0.050 Br
ENDBRANCH  17  25
ENDBRANCH  15  17
ENDBRANCH   1  15
TORSDOF 7
