REMARK  Name = ZINC09485129
REMARK  8 active torsions:
REMARK  status: ('A' for Active; 'I' for Inactive)
REMARK    1  A    between atoms: C_1  and  C_2
REMARK    2  A    between atoms: C_2  and  N_3
REMARK    3  A    between atoms: C_4  and  C_31
REMARK    4  A    between atoms: C_7  and  S_8
REMARK    5  A    between atoms: S_8  and  C_9
REMARK    6  A    between atoms: C_9  and  C_11
REMARK    7  A    between atoms: C_9  and  C_12
REMARK    8  A    between atoms: N_14  and  C_15
REMARK                            x       y       z     vdW  Elec       q    Type
REMARK                         _______ _______ _______ _____ _____    ______ ____
ROOT
ATOM      1  C   UNL     1      -3.851  10.313   0.564  0.00  0.00    +0.230 C 
ATOM      2  O   UNL     1      -4.879   9.672   0.505  0.00  0.00    -0.274 OA
ATOM      3  N   UNL     1      -2.688   9.696   0.854  0.00  0.00    -0.285 N 
ATOM      4  H   UNL     1      -1.878  10.217   0.968  0.00  0.00    +0.155 HD
ENDROOT
BRANCH   3   5
ATOM      5  C   UNL     1      -2.650   8.309   0.990  0.00  0.00    +0.034 A 
ATOM      6  C   UNL     1      -1.535   7.601   0.557  0.00  0.00    +0.024 A 
ATOM      7  C   UNL     1      -1.486   6.228   0.687  0.00  0.00    +0.014 A 
ATOM      8  C   UNL     1      -2.560   5.542   1.254  0.00  0.00    +0.033 A 
ATOM      9  C   UNL     1      -3.692   6.255   1.693  0.00  0.00    +0.035 A 
ATOM     10  C   UNL     1      -3.730   7.638   1.559  0.00  0.00    +0.035 A 
ATOM     11  C   UNL     1      -4.832   5.534   2.297  0.00  0.00    +0.195 C 
ATOM     12  O   UNL     1      -5.810   6.149   2.675  0.00  0.00    -0.287 OA
ATOM     13  C   UNL     1      -4.783   4.064   2.438  0.00  0.00    +0.033 A 
ATOM     14  C   UNL     1      -5.852   3.376   3.005  0.00  0.00    +0.012 A 
ATOM     15  C   UNL     1      -5.796   2.000   3.133  0.00  0.00    +0.001 A 
ATOM     16  C   UNL     1      -4.684   1.300   2.702  0.00  0.00    +0.001 A 
ATOM     17  C   UNL     1      -3.610   1.969   2.141  0.00  0.00    +0.012 A 
ATOM     18  C   UNL     1      -3.652   3.353   1.998  0.00  0.00    +0.033 A 
ATOM     19  C   UNL     1      -2.511   4.074   1.395  0.00  0.00    +0.195 C 
ATOM     20  O   UNL     1      -1.535   3.459   1.015  0.00  0.00    -0.287 OA
ENDBRANCH   3   5
BRANCH   1  21
ATOM     21  C   UNL     1      -3.873  11.799   0.313  0.00  0.00    +0.137 C 
ATOM     22  C   UNL     1      -3.856  12.542   1.650  0.00  0.00    +0.029 C 
BRANCH  21  23
ATOM     23  S   UNL     1      -5.374  12.234  -0.601  0.00  0.00    -0.074 S 
BRANCH  23  28
ATOM     24  N   UNL     1      -5.896  14.814  -1.545  0.00  0.00    -0.302 N 
ATOM     25  C   UNL     1      -5.252  16.030  -1.516  0.00  0.00    +0.165 A 
ATOM     26  N   UNL     1      -4.124  15.854  -0.868  0.00  0.00    -0.128 NA
ATOM     27  N   UNL     1      -4.022  14.629  -0.491  0.00  0.00    -0.122 NA
ATOM     28  C   UNL     1      -5.075  13.947  -0.883  0.00  0.00    +0.193 A 
BRANCH  25  29
ATOM     29  C   UNL     1      -5.740  17.297  -2.102  0.00  0.00    +0.019 A 
ATOM     30  C   UNL     1      -7.084  17.436  -2.450  0.00  0.00    +0.011 A 
ATOM     31  C   UNL     1      -7.534  18.622  -2.993  0.00  0.00    +0.001 A 
ATOM     32  C   UNL     1      -6.653  19.668  -3.202  0.00  0.00    +0.000 A 
ATOM     33  C   UNL     1      -5.318  19.535  -2.864  0.00  0.00    +0.001 A 
ATOM     34  C   UNL     1      -4.856  18.356  -2.316  0.00  0.00    +0.011 A 
ENDBRANCH  25  29
BRANCH  24  36
ATOM     35  C   UNL     1      -8.299  14.665  -1.115  0.00  0.00    +0.027 C 
ATOM     36  C   UNL     1      -7.191  14.513  -2.160  0.00  0.00    +0.122 C 
ENDBRANCH  24  36
ENDBRANCH  23  28
ENDBRANCH  21  23
ENDBRANCH   1  21
TORSDOF 6
