REMARK  Name = ZINC63856537
REMARK  7 active torsions:
REMARK  status: ('A' for Active; 'I' for Inactive)
REMARK    1  A    between atoms: C_1  and  N_2
REMARK    2  A    between atoms: N_2  and  C_3
REMARK    3  A    between atoms: N_2  and  C_15
REMARK    4  A    between atoms: C_3  and  C_4
REMARK    5  A    between atoms: C_6  and  C_9
REMARK    6  A    between atoms: C_15  and  C_16
REMARK    7  A    between atoms: C_16  and  O_27
REMARK                            x       y       z     vdW  Elec       q    Type
REMARK                         _______ _______ _______ _____ _____    ______ ____
ROOT
ATOM      1  C   UNL     1      -0.399  -2.675  -0.749  0.00  0.00    +0.105 C 
ATOM      2  N   UNL     1      -1.399  -2.007   0.096  0.00  0.00    -0.296 NA
ENDROOT
BRANCH   2   3
ATOM      3  C   UNL     1      -1.294  -2.456   1.490  0.00  0.00    +0.161 C 
BRANCH   3   4
ATOM      4  C   UNL     1      -1.666  -3.913   1.579  0.00  0.00    +0.152 A 
ATOM      5  C   UNL     1      -0.820  -4.952   1.463  0.00  0.00    +0.079 A 
ATOM      6  C   UNL     1      -1.567  -6.145   1.607  0.00  0.00    +0.132 A 
ATOM      7  N   UNL     1      -2.820  -5.812   1.802  0.00  0.00    -0.076 NA
ATOM      8  O   UNL     1      -2.899  -4.398   1.792  0.00  0.00    -0.358 OA
BRANCH   6   9
ATOM      9  C   UNL     1      -1.028  -7.527   1.547  0.00  0.00    +0.092 A 
ATOM     10  C   UNL     1      -1.889  -8.611   1.701  0.00  0.00    +0.030 A 
ATOM     11  C   UNL     1      -1.372  -9.894   1.642  0.00  0.00    +0.004 A 
ATOM     12  C   UNL     1      -0.009 -10.050   1.431  0.00  0.00    +0.020 A 
ATOM     13  C   UNL     1       0.787  -8.929   1.286  0.00  0.00    +0.111 A 
ATOM     14  N   UNL     1       0.268  -7.719   1.341  0.00  0.00    -0.253 NA
ENDBRANCH   6   9
ENDBRANCH   3   4
ENDBRANCH   2   3
BRANCH   2  15
ATOM     15  C   UNL     1      -1.275  -0.546   0.002  0.00  0.00    +0.117 C 
BRANCH  15  16
ATOM     16  C   UNL     1      -1.921  -0.062  -1.298  0.00  0.00    +0.067 C 
ATOM     17  C   UNL     1      -1.653   1.434  -1.472  0.00  0.00    +0.032 C 
ATOM     18  C   UNL     1      -2.316   2.189  -0.315  0.00  0.00    -0.016 C 
ATOM     19  C   UNL     1      -3.811   1.874  -0.313  0.00  0.00    -0.078 C 
ATOM     20  N   UNL     1      -4.025   0.430  -0.128  0.00  0.00    +0.383 N 
ATOM     21  C   UNL     1      -3.431  -0.315  -1.242  0.00  0.00    -0.035 C 
ATOM     22  C   UNL     1      -3.655  -1.819  -1.046  0.00  0.00    -0.013 C 
ATOM     23  C   UNL     1      -5.154  -2.112  -0.964  0.00  0.00    -0.003 C 
ATOM     24  C   UNL     1      -5.752  -1.292   0.184  0.00  0.00    -0.019 C 
ATOM     25  C   UNL     1      -5.474   0.189  -0.071  0.00  0.00    -0.078 C 
ATOM     26  H   UNL     1      -3.600   0.136   0.738  0.00  0.00    -0.081 HD
BRANCH  16  27
ATOM     27  O   UNL     1      -1.359  -0.776  -2.401  0.00  0.00    -0.389 OA
ATOM     28  H   UNL     1      -0.404  -0.663  -2.498  0.00  0.00    +0.210 HD
ENDBRANCH  16  27
ENDBRANCH  15  16
ENDBRANCH   2  15
TORSDOF 6
