REMARK  Name = ZINC03929029
REMARK  6 active torsions:
REMARK  status: ('A' for Active; 'I' for Inactive)
REMARK    1  A    between atoms: C_2  and  C_11
REMARK    2  A    between atoms: C_5  and  C_7
REMARK    3  A    between atoms: N_8  and  O_9
REMARK    4  A    between atoms: C_13  and  C_16
REMARK    5  A    between atoms: C_19  and  C_22
REMARK    6  A    between atoms: N_23  and  O_24
REMARK                            x       y       z     vdW  Elec       q    Type
REMARK                         _______ _______ _______ _____ _____    ______ ____
ROOT
ATOM      1  C   UNL     1       1.904   4.666   0.841  0.00  0.00    +0.136 A 
ATOM      2  O   UNL     1       0.730   5.326   0.808  0.00  0.00    -0.455 OA
ATOM      3  C   UNL     1       0.961   6.636   0.595  0.00  0.00    +0.136 A 
ATOM      4  C   UNL     1       2.308   6.823   0.489  0.00  0.00    +0.050 A 
ATOM      5  C   UNL     1       2.909   5.567   0.652  0.00  0.00    +0.050 A 
ENDROOT
BRANCH   1   7
ATOM      6  C   UNL     1       0.952   2.400   1.236  0.00  0.00    +0.012 A 
ATOM      7  C   UNL     1       2.073   3.216   1.053  0.00  0.00    +0.017 A 
ATOM      8  C   UNL     1       3.354   2.656   1.071  0.00  0.00    +0.012 A 
ATOM      9  C   UNL     1       3.511   1.308   1.267  0.00  0.00    +0.012 A 
ATOM     10  C   UNL     1       2.390   0.494   1.449  0.00  0.00    +0.018 A 
ATOM     11  C   UNL     1       1.110   1.053   1.432  0.00  0.00    +0.012 A 
BRANCH  10  12
ATOM     12  C   UNL     1       2.560  -0.959   1.661  0.00  0.00    +0.162 C 
ATOM     13  N   UNL     1       3.639  -1.413   2.230  0.00  0.00    -0.072 NA
ATOM     14  N   UNL     1       1.570  -1.839   1.253  0.00  0.00    -0.340 N 
ATOM     15  H   UNL     1       0.766  -1.501   0.829  0.00  0.00    +0.144 HD
ATOM     16  H   UNL     1       1.682  -2.792   1.392  0.00  0.00    +0.144 HD
BRANCH  13  17
ATOM     17  O   UNL     1       4.587  -0.510   2.770  0.00  0.00    -0.408 OA
ATOM     18  H   UNL     1       5.355  -0.940   3.171  0.00  0.00    +0.328 HD
ENDBRANCH  13  17
ENDBRANCH  10  12
ENDBRANCH   1   7
BRANCH   3  19
ATOM     19  C   UNL     1      -0.068   7.688   0.493  0.00  0.00    +0.017 A 
ATOM     20  C   UNL     1       0.309   9.015   0.263  0.00  0.00    +0.012 A 
ATOM     21  C   UNL     1      -0.647   9.992   0.168  0.00  0.00    +0.012 A 
ATOM     22  C   UNL     1      -1.998   9.664   0.303  0.00  0.00    +0.018 A 
ATOM     23  C   UNL     1      -2.376   8.338   0.533  0.00  0.00    +0.012 A 
ATOM     24  C   UNL     1      -1.421   7.359   0.622  0.00  0.00    +0.012 A 
BRANCH  22  25
ATOM     25  C   UNL     1      -3.029  10.719   0.202  0.00  0.00    +0.162 C 
ATOM     26  N   UNL     1      -2.808  11.778  -0.521  0.00  0.00    -0.072 NA
ATOM     27  N   UNL     1      -4.231  10.580   0.877  0.00  0.00    -0.340 N 
ATOM     28  H   UNL     1      -4.395   9.791   1.416  0.00  0.00    +0.144 HD
ATOM     29  H   UNL     1      -4.907  11.272   0.811  0.00  0.00    +0.144 HD
BRANCH  26  30
ATOM     30  O   UNL     1      -1.645  11.855  -1.327  0.00  0.00    -0.408 OA
ATOM     31  H   UNL     1      -1.568  12.679  -1.827  0.00  0.00    +0.328 HD
ENDBRANCH  26  30
ENDBRANCH  22  25
ENDBRANCH   3  19
TORSDOF 6
