REMARK  Name = ZINC08800181
REMARK  7 active torsions:
REMARK  status: ('A' for Active; 'I' for Inactive)
REMARK    1  A    between atoms: C_1  and  N_2
REMARK    2  A    between atoms: C_10  and  C_12
REMARK    3  A    between atoms: C_12  and  C_14
REMARK    4  A    between atoms: C_12  and  N_60
REMARK    5  A    between atoms: C_14  and  N_15
REMARK    6  A    between atoms: N_15  and  S_16
REMARK    7  A    between atoms: S_16  and  C_19
REMARK                            x       y       z     vdW  Elec       q    Type
REMARK                         _______ _______ _______ _____ _____    ______ ____
ROOT
ATOM      1  C   UNL     1       2.732  -1.913   4.346  0.00  0.00    -0.022 C 
ENDROOT
BRANCH   1  11
ATOM      2  C   UNL     1      -1.233   1.056   0.426  0.00  0.00    +0.129 C 
ATOM      3  N   UNL     1       0.225   1.156   0.282  0.00  0.00    -0.333 N 
ATOM      4  C   UNL     1       0.651   2.554   0.206  0.00  0.00    +0.105 C 
ATOM      5  C   UNL     1       2.179   2.597   0.086  0.00  0.00    +0.024 C 
ATOM      6  C   UNL     1       2.770   2.113   1.412  0.00  0.00    +0.038 C 
ATOM      7  C   UNL     1       2.076   0.846   1.844  0.00  0.00    -0.026 A 
ATOM      8  C   UNL     1       0.876   0.439   1.286  0.00  0.00    +0.033 A 
ATOM      9  C   UNL     1       0.277  -0.739   1.733  0.00  0.00    +0.023 A 
ATOM     10  C   UNL     1       0.874  -1.495   2.719  0.00  0.00    +0.004 A 
ATOM     11  C   UNL     1       2.075  -1.087   3.270  0.00  0.00    -0.059 A 
ATOM     12  C   UNL     1       2.672   0.079   2.832  0.00  0.00    +0.007 A 
ENDBRANCH   1  11
BRANCH   1  18
ATOM     13  C   UNL     1       3.766  -2.990   2.440  0.00  0.00    -0.078 C 
ATOM     14  C   UNL     1       4.358  -4.309   1.939  0.00  0.00    -0.019 C 
ATOM     15  C   UNL     1       3.256  -5.370   1.885  0.00  0.00    -0.004 C 
ATOM     16  C   UNL     1       2.636  -5.522   3.277  0.00  0.00    -0.019 C 
ATOM     17  C   UNL     1       2.094  -4.168   3.739  0.00  0.00    -0.078 C 
ATOM     18  N   UNL     1       3.208  -3.198   3.793  0.00  0.00    +0.385 N 
ATOM     19  H   UNL     1       3.945  -3.571   4.404  0.00  0.00    -0.081 HD
ENDBRANCH   1  18
BRANCH   1  20
ATOM     20  C   UNL     1       1.725  -2.186   5.465  0.00  0.00    +0.095 C 
BRANCH  20  21
ATOM     21  N   UNL     1       2.367  -2.980   6.516  0.00  0.00    -0.191 NA
ATOM     22  H   UNL     1       3.172  -3.484   6.320  0.00  0.00    +0.148 HD
BRANCH  21  23
ATOM     23  S   UNL     1       1.718  -3.017   8.039  0.00  0.00    +0.060 S 
ATOM     24  O   UNL     1       2.540  -3.882   8.810  0.00  0.00    -0.153 OA
ATOM     25  O   UNL     1       1.474  -1.667   8.410  0.00  0.00    -0.153 OA
BRANCH  23  26
ATOM     26  C   UNL     1       0.142  -3.797   7.915  0.00  0.00    +0.123 A 
ATOM     27  C   UNL     1      -0.077  -5.013   8.534  0.00  0.00    +0.030 A 
ATOM     28  C   UNL     1      -1.314  -5.623   8.441  0.00  0.00    +0.002 A 
ATOM     29  C   UNL     1      -2.329  -5.022   7.720  0.00  0.00    +0.002 A 
ATOM     30  C   UNL     1      -2.109  -3.809   7.096  0.00  0.00    +0.022 A 
ATOM     31  C   UNL     1      -0.873  -3.195   7.193  0.00  0.00    +0.067 A 
ATOM     32 CL   UNL     1      -0.596  -1.671   6.410  0.00  0.00    -0.082 Cl
ENDBRANCH  23  26
ENDBRANCH  21  23
ENDBRANCH  20  21
ENDBRANCH   1  20
TORSDOF 6
