REMARK  Name = ZINC62272975
REMARK  8 active torsions:
REMARK  status: ('A' for Active; 'I' for Inactive)
REMARK    1  A    between atoms: C_1  and  C_2
REMARK    2  A    between atoms: C_2  and  C_3
REMARK    3  A    between atoms: C_3  and  C_4
REMARK    4  A    between atoms: C_4  and  C_5
REMARK    5  A    between atoms: C_6  and  C_16
REMARK    6  A    between atoms: N_9  and  C_10
REMARK    7  A    between atoms: C_10  and  C_12
REMARK    8  A    between atoms: C_10  and  C_13
REMARK                            x       y       z     vdW  Elec       q    Type
REMARK                         _______ _______ _______ _____ _____    ______ ____
ROOT
ATOM      1  C   UNL     1       1.444  -2.513  -2.505  0.00  0.00    +0.075 A 
ATOM      2  C   UNL     1       0.868  -2.783  -3.727  0.00  0.00    +0.196 A 
ATOM      3  N   UNL     1       1.836  -3.193  -4.567  0.00  0.00    -0.122 NA
ATOM      4  N   UNL     1       2.967  -3.196  -3.953  0.00  0.00    -0.064 NA
ATOM      5  N   UNL     1       2.762  -2.763  -2.635  0.00  0.00    -0.234 N 
ENDROOT
BRANCH   2   6
ATOM      6  C   UNL     1      -0.560  -2.647  -4.057  0.00  0.00    +0.408 C 
ATOM      7  O   UNL     1      -1.350  -2.263  -3.205  0.00  0.00    -0.239 OA
ATOM      8  O   UNL     1      -0.956  -2.917  -5.182  0.00  0.00    -0.239 OA
ENDBRANCH   2   6
BRANCH   5   9
ATOM      9  C   UNL     1       3.784  -2.614  -1.597  0.00  0.00    +0.218 C 
ATOM     10  C   UNL     1       4.834  -1.600  -2.058  0.00  0.00    +0.045 C 
BRANCH   9  11
ATOM     11  C   UNL     1       4.446  -3.944  -1.349  0.00  0.00    +0.380 C 
ATOM     12  O   UNL     1       4.096  -4.927  -1.981  0.00  0.00    -0.244 OA
ATOM     13  O   UNL     1       5.332  -4.039  -0.517  0.00  0.00    -0.244 OA
ENDBRANCH   9  11
ENDBRANCH   5   9
BRANCH   1  14
ATOM     14  C   UNL     1       0.739  -2.027  -1.265  0.00  0.00    +0.057 C 
BRANCH  14  15
ATOM     15  C   UNL     1       0.718  -0.497  -1.257  0.00  0.00    +0.006 C 
BRANCH  15  17
ATOM     16  C   UNL     1      -0.019   1.526   0.010  0.00  0.00    +0.004 C 
ATOM     17  C   UNL     1       0.002  -0.004   0.002  0.00  0.00    -0.003 C 
ENDBRANCH  15  17
ENDBRANCH  14  15
ENDBRANCH   1  14
TORSDOF 6
