REMARK  Name = ZINC39597876
REMARK  5 active torsions:
REMARK  status: ('A' for Active; 'I' for Inactive)
REMARK    1  A    between atoms: C_7  and  C_11
REMARK    2  A    between atoms: C_15  and  C_24
REMARK    3  A    between atoms: N_26  and  C_27
REMARK    4  A    between atoms: C_27  and  C_28
REMARK    5  A    between atoms: C_28  and  C_29
REMARK                            x       y       z     vdW  Elec       q    Type
REMARK                         _______ _______ _______ _____ _____    ______ ____
ROOT
ATOM      1  C   UNL     1       0.618  -2.838  -0.765  0.00  0.00    +0.224 C 
ATOM      2  O   UNL     1      -0.115  -2.056  -1.333  0.00  0.00    -0.275 OA
ATOM      3  N   UNL     1       0.451  -4.164  -0.936  0.00  0.00    -0.300 N 
ATOM      4  C   UNL     1       1.236  -5.264  -0.328  0.00  0.00    +0.121 C 
ATOM      5  C   UNL     1       0.189  -6.348   0.013  0.00  0.00    +0.100 C 
ATOM      6  C   UNL     1      -0.985  -6.074  -0.943  0.00  0.00    -0.004 C 
ATOM      7  C   UNL     1      -0.562  -4.852  -1.772  0.00  0.00    +0.115 C 
ATOM      8  C   UNL     1      -1.218  -7.276  -1.852  0.00  0.00    -0.010 C 
ATOM      9  C   UNL     1      -2.426  -7.002  -2.753  0.00  0.00    -0.082 C 
ATOM     10  N   UNL     1      -3.611  -6.755  -1.923  0.00  0.00    +0.379 N 
ATOM     11  C   UNL     1      -3.415  -5.542  -1.119  0.00  0.00    -0.082 C 
ATOM     12  C   UNL     1      -2.248  -5.754  -0.149  0.00  0.00    -0.010 C 
ATOM     13  H   UNL     1      -4.418  -6.635  -2.518  0.00  0.00    -0.086 HD
ATOM     14  H   UNL     1      -3.762  -7.542  -1.311  0.00  0.00    -0.086 HD
ENDROOT
BRANCH   1  21
ATOM     15  C   UNL     1       0.631   1.360   0.212  0.00  0.00    +0.000 A 
ATOM     16  C   UNL     1       1.866   1.983   0.232  0.00  0.00    +0.001 A 
ATOM     17  C   UNL     1       3.010   1.209   0.198  0.00  0.00    +0.015 A 
ATOM     18  C   UNL     1       2.909  -0.169   0.150  0.00  0.00    +0.012 A 
ATOM     19  C   UNL     1       1.677  -0.817   0.144  0.00  0.00    -0.021 A 
ATOM     20  C   UNL     1       0.535  -0.013   0.168  0.00  0.00    +0.005 A 
ATOM     21  C   UNL     1       1.715  -2.326   0.132  0.00  0.00    +0.116 C 
ATOM     22  C   UNL     1       3.071  -2.861  -0.379  0.00  0.00    +0.092 C 
ATOM     23  S   UNL     1       4.151  -1.442   0.077  0.00  0.00    -0.124 S 
ENDBRANCH   1  21
BRANCH   5  24
ATOM     24  C   UNL     1      -0.257  -6.216   1.446  0.00  0.00    +0.218 C 
ATOM     25  O   UNL     1      -0.264  -5.127   1.981  0.00  0.00    -0.275 OA
ATOM     26  N   UNL     1      -0.647  -7.307   2.134  0.00  0.00    -0.315 N 
ATOM     27  H   UNL     1      -0.641  -8.178   1.706  0.00  0.00    +0.149 HD
BRANCH  26  28
ATOM     28  C   UNL     1      -1.080  -7.179   3.528  0.00  0.00    +0.109 C 
BRANCH  28  29
ATOM     29  C   UNL     1      -1.466  -8.556   4.071  0.00  0.00    +0.056 C 
BRANCH  29  30
ATOM     30  C   UNL     1      -1.912  -8.424   5.505  0.00  0.00    -0.021 A 
ATOM     31  C   UNL     1      -3.257  -8.077   5.971  0.00  0.00    +0.003 A 
ATOM     32  C   UNL     1      -4.460  -7.782   5.328  0.00  0.00    +0.010 A 
ATOM     33  C   UNL     1      -5.571  -7.492   6.069  0.00  0.00    +0.001 A 
ATOM     34  C   UNL     1      -5.513  -7.487   7.456  0.00  0.00    +0.002 A 
ATOM     35  C   UNL     1      -4.335  -7.775   8.110  0.00  0.00    +0.026 A 
ATOM     36  C   UNL     1      -3.192  -8.074   7.376  0.00  0.00    +0.047 A 
ATOM     37  N   UNL     1      -1.899  -8.396   7.724  0.00  0.00    -0.360 N 
ATOM     38  C   UNL     1      -1.153  -8.607   6.596  0.00  0.00    +0.087 A 
ATOM     39  H   UNL     1      -1.568  -8.467   8.633  0.00  0.00    +0.165 HD
ENDBRANCH  29  30
ENDBRANCH  28  29
ENDBRANCH  26  28
ENDBRANCH   5  24
TORSDOF 5
