REMARK  Name = ZINC51330533
REMARK  6 active torsions:
REMARK  status: ('A' for Active; 'I' for Inactive)
REMARK    1  A    between atoms: C_3  and  O_30
REMARK    2  A    between atoms: C_6  and  C_7
REMARK    3  A    between atoms: C_18  and  C_20
REMARK    4  A    between atoms: C_23  and  O_26
REMARK    5  A    between atoms: O_26  and  C_27
REMARK    6  A    between atoms: O_30  and  C_31
REMARK                            x       y       z     vdW  Elec       q    Type
REMARK                         _______ _______ _______ _____ _____    ______ ____
ROOT
ATOM      1  C   UNL     1      -1.257  -0.758   0.011  0.00  0.00    +0.013 C 
ATOM      2  C   UNL     1      -1.290  -2.111  -0.084  0.00  0.00    -0.027 C 
ATOM      3  C   UNL     1      -2.624  -2.774  -0.181  0.00  0.00    +0.037 C 
ATOM      4  C   UNL     1      -2.527  -4.291  -0.214  0.00  0.00    +0.005 C 
ATOM      5  C   UNL     1      -1.294  -4.744  -0.992  0.00  0.00    +0.012 C 
ATOM      6  C   UNL     1      -0.037  -4.298  -0.240  0.00  0.00    +0.063 C 
ATOM      7  C   UNL     1      -0.071  -2.798  -0.090  0.00  0.00    +0.027 C 
ATOM      8  N   UNL     1       1.054  -2.131   0.061  0.00  0.00    -0.339 N 
ATOM      9  C   UNL     1       2.245  -2.739   0.004  0.00  0.00    +0.152 C 
ATOM     10  S   UNL     1       3.594  -1.940   0.550  0.00  0.00    -0.013 SA
ATOM     11  N   UNL     1       2.372  -4.008  -0.498  0.00  0.00    -0.358 N 
ATOM     12  C   UNL     1       1.204  -4.697  -1.041  0.00  0.00    +0.120 C 
ATOM     13  H   UNL     1       1.020  -1.175   0.218  0.00  0.00    +0.167 HD
ATOM     14  H   UNL     1       3.235  -4.451  -0.486  0.00  0.00    +0.162 HD
ENDROOT
BRANCH   1  20
ATOM     15  C   UNL     1       0.544  -0.546  -1.690  0.00  0.00    +0.011 A 
ATOM     16  C   UNL     1       1.574   0.164  -2.263  0.00  0.00    +0.046 A 
ATOM     17  C   UNL     1       1.921   1.415  -1.764  0.00  0.00    +0.127 A 
ATOM     18  C   UNL     1       1.229   1.956  -0.686  0.00  0.00    +0.046 A 
ATOM     19  C   UNL     1       0.197   1.255  -0.106  0.00  0.00    +0.011 A 
ATOM     20  C   UNL     1      -0.157  -0.006  -0.604  0.00  0.00    -0.024 A 
BRANCH  17  21
ATOM     21  O   UNL     1       2.939   2.110  -2.332  0.00  0.00    -0.434 OA
BRANCH  21  22
ATOM     22  C   UNL     1       3.243   3.389  -1.772  0.00  0.00    +0.541 C 
ATOM     23  F   UNL     1       2.121   4.219  -1.868  0.00  0.00    -0.166 F 
ATOM     24  F   UNL     1       3.597   3.236  -0.427  0.00  0.00    -0.166 F 
ENDBRANCH  21  22
ENDBRANCH  17  21
ENDBRANCH   1  20
BRANCH  12  25
ATOM     25  C   UNL     1       1.405  -6.188  -0.951  0.00  0.00    -0.024 A 
ATOM     26  C   UNL     1       1.991  -6.739   0.174  0.00  0.00    +0.009 A 
ATOM     27  C   UNL     1       2.176  -8.105   0.259  0.00  0.00    +0.046 A 
ATOM     28  C   UNL     1       1.775  -8.925  -0.786  0.00  0.00    +0.127 A 
ATOM     29  C   UNL     1       1.187  -8.369  -1.914  0.00  0.00    +0.046 A 
ATOM     30  C   UNL     1       0.999  -7.003  -1.991  0.00  0.00    +0.009 A 
BRANCH  28  31
ATOM     31  O   UNL     1       1.957 -10.269  -0.705  0.00  0.00    -0.434 OA
BRANCH  31  32
ATOM     32  C   UNL     1       1.519 -11.051  -1.818  0.00  0.00    +0.541 C 
ATOM     33  F   UNL     1       0.144 -10.868  -2.005  0.00  0.00    -0.166 F 
ATOM     34  F   UNL     1       2.204 -10.647  -2.970  0.00  0.00    -0.166 F 
ENDBRANCH  31  32
ENDBRANCH  28  31
ENDBRANCH  12  25
TORSDOF 6
