REMARK  Name = ZINC02444088
REMARK  12 active torsions:
REMARK  status: ('A' for Active; 'I' for Inactive)
REMARK    1  A    between atoms: C_1  and  C_2
REMARK    2  A    between atoms: C_2  and  C_3
REMARK    3  A    between atoms: C_2  and  C_4
REMARK    4  A    between atoms: C_2  and  C_5
REMARK    5  A    between atoms: C_8  and  C_11
REMARK    6  A    between atoms: C_14  and  S_17
REMARK    7  A    between atoms: N_15  and  C_16
REMARK    8  A    between atoms: S_17  and  C_18
REMARK    9  A    between atoms: C_18  and  C_19
REMARK   10  A    between atoms: N_21  and  C_22
REMARK   11  A    between atoms: C_25  and  S_28
REMARK   12  A    between atoms: S_28  and  N_31
REMARK                            x       y       z     vdW  Elec       q    Type
REMARK                         _______ _______ _______ _____ _____    ______ ____
ROOT
ATOM      1  S   UNL     1      -0.299   1.118  -0.837  0.00  0.00    -0.077 S 
ENDROOT
BRANCH   1   5
ATOM      2  C   UNL     1       0.957   1.165  -4.536  0.00  0.00    +0.165 A 
ATOM      3  N   UNL     1       1.729   0.259  -3.981  0.00  0.00    -0.128 NA
ATOM      4  N   UNL     1       1.433   0.133  -2.737  0.00  0.00    -0.122 NA
ATOM      5  C   UNL     1       0.447   0.944  -2.424  0.00  0.00    +0.192 A 
ATOM      6  N   UNL     1       0.112   1.631  -3.556  0.00  0.00    -0.305 N 
ATOM      7  C   UNL     1      -0.930   2.651  -3.697  0.00  0.00    +0.153 C 
BRANCH   2  11
ATOM      8  C   UNL     1       1.051   2.418  -8.594  0.00  0.00    -0.042 A 
ATOM      9  C   UNL     1       0.418   3.202  -7.645  0.00  0.00    +0.005 A 
ATOM     10  C   UNL     1       0.384   2.800  -6.326  0.00  0.00    +0.012 A 
ATOM     11  C   UNL     1       0.990   1.601  -5.949  0.00  0.00    +0.019 A 
ATOM     12  C   UNL     1       1.631   0.818  -6.909  0.00  0.00    +0.012 A 
ATOM     13  C   UNL     1       1.653   1.228  -8.226  0.00  0.00    +0.005 A 
BRANCH   8  15
ATOM     14  C   UNL     1       1.795   4.214 -10.133  0.00  0.00    +0.015 C 
ATOM     15  C   UNL     1       1.084   2.863 -10.033  0.00  0.00    -0.013 C 
ATOM     16  C   UNL     1       1.837   1.827 -10.870  0.00  0.00    +0.015 C 
ATOM     17  C   UNL     1      -0.347   2.999 -10.558  0.00  0.00    +0.015 C 
ENDBRANCH   8  15
ENDBRANCH   2  11
ENDBRANCH   1   5
BRANCH   1  18
ATOM     18  C   UNL     1       0.666  -0.094   0.099  0.00  0.00    +0.173 C 
BRANCH  18  19
ATOM     19  C   UNL     1       0.190  -0.120   1.528  0.00  0.00    +0.227 C 
ATOM     20  O   UNL     1      -0.713   0.609   1.880  0.00  0.00    -0.275 OA
ATOM     21  N   UNL     1       0.768  -0.953   2.416  0.00  0.00    -0.285 N 
ATOM     22  H   UNL     1       1.538  -1.482   2.155  0.00  0.00    +0.155 HD
BRANCH  21  23
ATOM     23  C   UNL     1       0.257  -1.055   3.715  0.00  0.00    +0.034 A 
ATOM     24  C   UNL     1       1.114  -1.286   4.783  0.00  0.00    +0.025 A 
ATOM     25  C   UNL     1       0.607  -1.380   6.065  0.00  0.00    +0.030 A 
ATOM     26  C   UNL     1      -0.753  -1.257   6.283  0.00  0.00    +0.105 A 
ATOM     27  C   UNL     1      -1.609  -1.033   5.220  0.00  0.00    +0.030 A 
ATOM     28  C   UNL     1      -1.108  -0.932   3.937  0.00  0.00    +0.025 A 
BRANCH  26  29
ATOM     29  S   UNL     1      -1.396  -1.385   7.918  0.00  0.00    +0.056 S 
ATOM     30  O   UNL     1      -0.332  -1.052   8.800  0.00  0.00    -0.153 OA
ATOM     31  O   UNL     1      -2.635  -0.691   7.923  0.00  0.00    -0.153 OA
BRANCH  29  32
ATOM     32  N   UNL     1      -1.747  -2.982   8.183  0.00  0.00    -0.204 NA
ATOM     33  H   UNL     1      -1.584  -3.636   7.485  0.00  0.00    +0.144 HD
ATOM     34  H   UNL     1      -2.115  -3.263   9.035  0.00  0.00    +0.144 HD
ENDBRANCH  29  32
ENDBRANCH  26  29
ENDBRANCH  21  23
ENDBRANCH  18  19
ENDBRANCH   1  18
TORSDOF 8
