REMARK  Name = ZINC18935165
REMARK  10 active torsions:
REMARK  status: ('A' for Active; 'I' for Inactive)
REMARK    1  A    between atoms: C_1  and  C_2
REMARK    2  A    between atoms: C_2  and  N_3
REMARK    3  A    between atoms: N_3  and  C_4
REMARK    4  A    between atoms: C_5  and  N_20
REMARK    5  A    between atoms: N_6  and  C_13
REMARK    6  A    between atoms: C_13  and  C_14
REMARK    7  A    between atoms: C_21  and  C_23
REMARK    8  A    between atoms: C_23  and  N_65
REMARK    9  A    between atoms: C_24  and  N_65
REMARK   10  A    between atoms: C_25  and  N_65
REMARK                            x       y       z     vdW  Elec       q    Type
REMARK                         _______ _______ _______ _____ _____    ______ ____
ROOT
ATOM      1  N   UNL     1       0.488  -5.267   0.818  0.00  0.00    -0.266 N 
ATOM      2  C   UNL     1      -0.399  -4.288   1.094  0.00  0.00    +0.203 C 
ATOM      3  O   UNL     1      -1.263  -4.471   1.927  0.00  0.00    -0.277 OA
ENDROOT
BRANCH   1   4
ATOM      4  C   UNL     1       0.345  -6.538   1.413  0.00  0.00    +0.140 A 
ATOM      5  C   UNL     1       0.494  -6.695   2.776  0.00  0.00    +0.128 A 
ATOM      6  N   UNL     1       0.345  -7.947   3.328  0.00  0.00    -0.276 N 
ATOM      7  C   UNL     1       0.066  -9.006   2.546  0.00  0.00    +0.331 A 
ATOM      8  O   UNL     1      -0.058 -10.104   3.053  0.00  0.00    -0.246 OA
ATOM      9  N   UNL     1      -0.078  -8.872   1.216  0.00  0.00    -0.273 N 
ATOM     10  H   UNL     1      -0.285  -9.676   0.658  0.00  0.00    +0.173 HD
ATOM     11  C   UNL     1       0.054  -7.668   0.626  0.00  0.00    +0.277 A 
ATOM     12  O   UNL     1      -0.078  -7.558  -0.581  0.00  0.00    -0.266 OA
BRANCH   5  13
ATOM     13  N   UNL     1       0.784  -5.614   3.573  0.00  0.00    -0.343 N 
ATOM     14  H   UNL     1       0.830  -4.725   3.187  0.00  0.00    +0.144 HD
ATOM     15  H   UNL     1       0.942  -5.740   4.522  0.00  0.00    +0.144 HD
ENDBRANCH   5  13
BRANCH   6  16
ATOM     16  C   UNL     1       0.495  -8.127   4.774  0.00  0.00    +0.163 C 
BRANCH  16  17
ATOM     17  C   UNL     1       1.937  -8.427   5.095  0.00  0.00    -0.028 A 
ATOM     18  C   UNL     1       2.381  -9.736   5.124  0.00  0.00    +0.005 A 
ATOM     19  C   UNL     1       3.704 -10.010   5.414  0.00  0.00    +0.000 A 
ATOM     20  C   UNL     1       4.581  -8.976   5.685  0.00  0.00    +0.000 A 
ATOM     21  C   UNL     1       4.136  -7.668   5.662  0.00  0.00    +0.000 A 
ATOM     22  C   UNL     1       2.813  -7.393   5.367  0.00  0.00    +0.005 A 
ENDBRANCH  16  17
ENDBRANCH   6  16
ENDBRANCH   1   4
BRANCH   1  24
ATOM     23  C   UNL     1       2.839  -4.600   0.700  0.00  0.00    +0.025 C 
ATOM     24  C   UNL     1       1.600  -5.009  -0.101  0.00  0.00    +0.110 C 
ENDBRANCH   1  24
BRANCH   2  25
ATOM     25  C   UNL     1      -0.317  -2.970   0.370  0.00  0.00    +0.020 C 
BRANCH  25  27
ATOM     26  C   UNL     1      -1.094  -1.587   2.199  0.00  0.00    -0.095 C 
ATOM     27  N   UNL     1      -1.410  -2.097   0.848  0.00  0.00    +0.388 N 
ATOM     28  H   UNL     1      -2.278  -2.643   0.892  0.00  0.00    -0.081 HD
BRANCH  27  29
ATOM     29  C   UNL     1      -1.600  -0.968  -0.087  0.00  0.00    -0.037 C 
ATOM     30  C   UNL     1      -0.278  -0.237  -0.312  0.00  0.00    -0.010 C 
ATOM     31  C   UNL     1      -0.473   0.779  -1.443  0.00  0.00    +0.003 C 
ATOM     32  C   UNL     1      -0.646   0.015  -2.754  0.00  0.00    +0.035 C 
ATOM     33  C   UNL     1      -1.705  -1.047  -2.613  0.00  0.00    -0.046 A 
ATOM     34  C   UNL     1      -2.135  -1.506  -1.388  0.00  0.00    -0.058 A 
ATOM     35  C   UNL     1      -3.104  -2.499  -1.327  0.00  0.00    +0.002 A 
ATOM     36  C   UNL     1      -3.643  -3.024  -2.483  0.00  0.00    +0.000 A 
ATOM     37  C   UNL     1      -3.216  -2.559  -3.713  0.00  0.00    +0.000 A 
ATOM     38  C   UNL     1      -2.251  -1.575  -3.775  0.00  0.00    +0.004 A 
ENDBRANCH  27  29
ENDBRANCH  25  27
ENDBRANCH   2  25
TORSDOF 8
