REMARK  Name = ZINC63796193
REMARK  5 active torsions:
REMARK  status: ('A' for Active; 'I' for Inactive)
REMARK    1  A    between atoms: C_1  and  C_2
REMARK    2  A    between atoms: C_2  and  C_3
REMARK    3  A    between atoms: C_2  and  C_4
REMARK    4  A    between atoms: C_4  and  C_5
REMARK    5  A    between atoms: C_10  and  C_12
REMARK                            x       y       z     vdW  Elec       q    Type
REMARK                         _______ _______ _______ _____ _____    ______ ____
ROOT
ATOM      1  C   UNL     1      -2.125  -0.137  -1.266  0.00  0.00    +0.104 A 
ATOM      2  N   UNL     1      -2.204  -0.775  -2.417  0.00  0.00    -0.145 NA
ATOM      3  N   UNL     1      -2.846  -0.248  -3.369  0.00  0.00    -0.126 NA
ATOM      4  C   UNL     1      -3.438   0.924  -3.245  0.00  0.00    +0.188 A 
ATOM      5  N   UNL     1      -4.176   1.637  -4.184  0.00  0.00    -0.262 N 
ATOM      6  C   UNL     1      -4.360   1.133  -5.421  0.00  0.00    +0.243 C 
ATOM      7  O   UNL     1      -3.882   0.058  -5.715  0.00  0.00    -0.273 OA
ATOM      8  S   UNL     1      -3.075   1.327  -1.649  0.00  0.00    -0.035 S 
ATOM      9  H   UNL     1      -4.558   2.497  -3.949  0.00  0.00    +0.157 HD
ENDROOT
BRANCH   6  10
ATOM     10  C   UNL     1      -5.160   1.906  -6.438  0.00  0.00    +0.208 C 
ATOM     11  C   UNL     1      -6.641   1.673  -6.248  0.00  0.00    -0.001 C 
ATOM     12  C   UNL     1      -7.056   0.828  -7.155  0.00  0.00    +0.127 C 
ATOM     13  C   UNL     1      -8.498   0.348  -7.276  0.00  0.00    +0.076 C 
ATOM     14  C   UNL     1      -8.818  -0.461  -6.013  0.00  0.00    +0.008 C 
ATOM     15  C   UNL     1      -9.151   0.444  -4.852  0.00  0.00    +0.001 C 
ATOM     16  C   UNL     1      -7.995   1.205  -4.248  0.00  0.00    +0.004 C 
ATOM     17  C   UNL     1      -7.520   2.319  -5.191  0.00  0.00    +0.036 C 
ATOM     18  O   UNL     1      -6.045   0.422  -7.966  0.00  0.00    -0.410 OA
ATOM     19  N   UNL     1      -4.925   1.377  -7.808  0.00  0.00    -0.139 NA
ATOM     20  H   UNL     1      -4.978   2.114  -8.495  0.00  0.00    +0.168 HD
ENDBRANCH   6  10
BRANCH   1  21
ATOM     21  C   UNL     1      -1.433  -0.534   0.013  0.00  0.00    +0.068 C 
BRANCH  21  23
ATOM     22  C   UNL     1      -0.019   1.526   0.010  0.00  0.00    +0.007 C 
ATOM     23  C   UNL     1       0.002  -0.004   0.002  0.00  0.00    -0.011 C 
ATOM     24  C   UNL     1       0.742  -0.511   1.242  0.00  0.00    +0.007 C 
ENDBRANCH  21  23
ENDBRANCH   1  21
TORSDOF 3
