REMARK  Name = ZINC09008932
REMARK  10 active torsions:
REMARK  status: ('A' for Active; 'I' for Inactive)
REMARK    1  A    between atoms: C_1  and  C_2
REMARK    2  A    between atoms: C_2  and  N_48
REMARK    3  A    between atoms: C_3  and  C_4
REMARK    4  A    between atoms: C_3  and  N_48
REMARK    5  A    between atoms: C_5  and  C_6
REMARK    6  A    between atoms: C_5  and  N_48
REMARK    7  A    between atoms: C_6  and  N_7
REMARK    8  A    between atoms: N_14  and  C_16
REMARK    9  A    between atoms: C_16  and  C_17
REMARK   10  A    between atoms: C_17  and  C_19
REMARK                            x       y       z     vdW  Elec       q    Type
REMARK                         _______ _______ _______ _____ _____    ______ ____
ROOT
ATOM      1  N   UNL     1       0.595   4.709   0.154  0.00  0.00    -0.313 N 
ATOM      2  C   UNL     1      -0.567   5.477   0.098  0.00  0.00    +0.068 A 
ATOM      3  C   UNL     1      -0.789   6.842  -0.012  0.00  0.00    +0.028 A 
ATOM      4  C   UNL     1      -2.082   7.329  -0.044  0.00  0.00    +0.002 A 
ATOM      5  C   UNL     1      -3.156   6.461   0.035  0.00  0.00    +0.002 A 
ATOM      6  C   UNL     1      -2.945   5.100   0.144  0.00  0.00    +0.028 A 
ATOM      7  C   UNL     1      -1.651   4.601   0.171  0.00  0.00    +0.069 A 
ATOM      8  N   UNL     1      -1.137   3.309   0.279  0.00  0.00    -0.304 N 
ATOM      9  C   UNL     1       0.233   3.391   0.264  0.00  0.00    +0.183 A 
ATOM     10  H   UNL     1       0.805   1.440   0.420  0.00  0.00    +0.159 HD
ATOM     11  N   UNL     1       1.121   2.406   0.339  0.00  0.00    -0.371 N 
ATOM     12  H   UNL     1       2.125   2.618   0.314  0.00  0.00    +0.159 HD
ENDROOT
BRANCH   1  13
ATOM     13  C   UNL     1       1.967   5.222   0.103  0.00  0.00    +0.107 C 
BRANCH  13  14
ATOM     14  C   UNL     1       2.435   5.282  -1.352  0.00  0.00    -0.057 C 
BRANCH  14  15
ATOM     15  N   UNL     1       3.811   5.820  -1.388  0.00  0.00    +0.380 N 
ATOM     16  H   UNL     1       3.840   6.698  -0.857  0.00  0.00    -0.082 HD
BRANCH  15  18
ATOM     17  C   UNL     1       4.716   3.523  -1.524  0.00  0.00    -0.017 C 
ATOM     18  C   UNL     1       4.747   4.856  -0.773  0.00  0.00    -0.082 C 
ENDBRANCH  15  18
BRANCH  15  19
ATOM     19  C   UNL     1       4.211   6.091  -2.785  0.00  0.00    -0.082 C 
ATOM     20  C   UNL     1       5.463   6.971  -2.776  0.00  0.00    -0.017 C 
ENDBRANCH  15  19
ENDBRANCH  14  15
ENDBRANCH  13  14
ENDBRANCH   1  13
BRANCH   8  21
ATOM     21  C   UNL     1      -1.923   2.078   0.385  0.00  0.00    +0.205 C 
BRANCH  21  22
ATOM     22  C   UNL     1      -2.184   1.772   1.838  0.00  0.00    +0.189 C 
ATOM     23  O   UNL     1      -1.755   2.511   2.701  0.00  0.00    -0.290 OA
BRANCH  22  24
ATOM     24  C   UNL     1      -2.928   0.627   2.195  0.00  0.00    +0.057 A 
ATOM     25  C   UNL     1      -3.277   0.168   3.462  0.00  0.00    +0.020 A 
ATOM     26  C   UNL     1      -4.012  -0.986   3.524  0.00  0.00    +0.023 A 
ATOM     27  C   UNL     1      -4.360  -1.617   2.368  0.00  0.00    +0.056 A 
ATOM     28  S   UNL     1      -3.671  -0.606   1.141  0.00  0.00    -0.078 S 
ATOM     29 BR   UNL     1      -5.361  -3.208   2.154  0.00  0.00    -0.043 Br
ENDBRANCH  22  24
ENDBRANCH  21  22
ENDBRANCH   8  21
TORSDOF 8
