REMARK  Name = ZINC15586372
REMARK  15 active torsions:
REMARK  status: ('A' for Active; 'I' for Inactive)
REMARK    1  A    between atoms: C_1  and  C_2
REMARK    2  A    between atoms: C_2  and  C_3
REMARK    3  A    between atoms: C_3  and  C_4
REMARK    4  A    between atoms: C_4  and  N_5
REMARK    5  A    between atoms: C_6  and  N_32
REMARK    6  A    between atoms: C_7  and  N_14
REMARK    7  A    between atoms: N_14  and  C_15
REMARK    8  A    between atoms: C_15  and  C_16
REMARK    9  A    between atoms: C_16  and  C_17
REMARK   10  A    between atoms: C_17  and  C_18
REMARK   11  A    between atoms: C_19  and  C_21
REMARK   12  A    between atoms: C_23  and  O_30
REMARK   13  A    between atoms: C_25  and  O_27
REMARK   14  A    between atoms: O_27  and  C_28
REMARK   15  A    between atoms: O_30  and  C_31
REMARK                            x       y       z     vdW  Elec       q    Type
REMARK                         _______ _______ _______ _____ _____    ______ ____
ROOT
ATOM      1  N   UNL     1       2.323   4.285   0.007  0.00  0.00    -0.260 N 
ATOM      2  C   UNL     1       3.512   3.661  -0.110  0.00  0.00    +0.251 C 
ATOM      3  O   UNL     1       4.544   4.298  -0.025  0.00  0.00    -0.270 OA
ENDROOT
BRANCH   1   6
ATOM      4  N   UNL     1      -0.300   1.940   1.064  0.00  0.00    -0.280 N 
ATOM      5  C   UNL     1       0.872   2.660   1.069  0.00  0.00    +0.127 A 
ATOM      6  C   UNL     1       1.131   3.531   0.031  0.00  0.00    +0.140 A 
ATOM      7  C   UNL     1       0.185   3.656  -1.004  0.00  0.00    +0.277 A 
ATOM      8  O   UNL     1       0.389   4.418  -1.934  0.00  0.00    -0.266 OA
ATOM      9  N   UNL     1      -0.947   2.927  -0.961  0.00  0.00    -0.273 N 
ATOM     10  H   UNL     1      -1.621   3.017  -1.694  0.00  0.00    +0.173 HD
ATOM     11  C   UNL     1      -1.181   2.079   0.056  0.00  0.00    +0.331 A 
ATOM     12  O   UNL     1      -2.208   1.429   0.068  0.00  0.00    -0.246 OA
BRANCH   5  13
ATOM     13  N   UNL     1       1.773   2.515   2.096  0.00  0.00    -0.343 N 
ATOM     14  H   UNL     1       1.553   1.957   2.859  0.00  0.00    +0.144 HD
ATOM     15  H   UNL     1       2.629   2.970   2.059  0.00  0.00    +0.144 HD
ENDBRANCH   5  13
BRANCH   4  16
ATOM     16  C   UNL     1      -0.589   1.011   2.160  0.00  0.00    +0.128 C 
BRANCH  16  17
ATOM     17  C   UNL     1      -1.344   1.748   3.268  0.00  0.00    +0.021 C 
BRANCH  17  19
ATOM     18  C   UNL     1      -2.400   1.516   5.520  0.00  0.00    +0.004 C 
ATOM     19  C   UNL     1      -1.645   0.778   4.412  0.00  0.00    -0.002 C 
ENDBRANCH  17  19
ENDBRANCH  16  17
ENDBRANCH   4  16
ENDBRANCH   1   6
BRANCH   2  20
ATOM     20  C   UNL     1       3.562   2.202  -0.342  0.00  0.00    +0.044 A 
ATOM     21  C   UNL     1       4.587   1.438   0.218  0.00  0.00    +0.060 A 
ATOM     22  C   UNL     1       4.626   0.071   0.003  0.00  0.00    +0.138 A 
ATOM     23  C   UNL     1       3.654  -0.539  -0.778  0.00  0.00    +0.101 A 
ATOM     24  C   UNL     1       2.636   0.218  -1.342  0.00  0.00    +0.138 A 
ATOM     25  C   UNL     1       2.586   1.585  -1.127  0.00  0.00    +0.060 A 
ATOM     26 BR   UNL     1       3.717  -2.405  -1.075  0.00  0.00    -0.043 Br
BRANCH  24  27
ATOM     27  O   UNL     1       1.687  -0.384  -2.107  0.00  0.00    -0.494 OA
ATOM     28  C   UNL     1       0.669   0.455  -2.656  0.00  0.00    +0.277 C 
ENDBRANCH  24  27
BRANCH  22  29
ATOM     29  O   UNL     1       5.621  -0.674   0.554  0.00  0.00    -0.494 OA
ATOM     30  C   UNL     1       6.524  -0.002   1.434  0.00  0.00    +0.277 C 
ENDBRANCH  22  29
ENDBRANCH   2  20
BRANCH   1  31
ATOM     31  C   UNL     1       2.269   5.745   0.110  0.00  0.00    +0.114 C 
BRANCH  31  32
ATOM     32  C   UNL     1       2.216   6.151   1.584  0.00  0.00    +0.019 C 
BRANCH  32  33
ATOM     33  C   UNL     1       2.034   7.666   1.690  0.00  0.00    -0.002 C 
ATOM     34  C   UNL     1       2.105   8.087   3.159  0.00  0.00    +0.004 C 
ENDBRANCH  32  33
ENDBRANCH  31  32
ENDBRANCH   1  31
TORSDOF 11
