REMARK  Name = ZINC39676574
REMARK  10 active torsions:
REMARK  status: ('A' for Active; 'I' for Inactive)
REMARK    1  A    between atoms: C_1  and  N_2
REMARK    2  A    between atoms: C_6  and  C_7
REMARK    3  A    between atoms: C_11  and  C_20
REMARK    4  A    between atoms: N_22  and  C_23
REMARK    5  A    between atoms: C_23  and  C_24
REMARK    6  A    between atoms: C_23  and  C_32
REMARK    7  A    between atoms: C_27  and  O_30
REMARK    8  A    between atoms: O_30  and  C_31
REMARK    9  A    between atoms: C_35  and  O_38
REMARK   10  A    between atoms: O_38  and  C_39
REMARK                            x       y       z     vdW  Elec       q    Type
REMARK                         _______ _______ _______ _____ _____    ______ ____
ROOT
ATOM      1  C   UNL     1      -1.439   4.372   2.241  0.00  0.00    +0.219 C 
ATOM      2  O   UNL     1      -0.298   4.776   2.164  0.00  0.00    -0.275 OA
ATOM      3  N   UNL     1      -2.469   5.227   2.083  0.00  0.00    -0.304 N 
ATOM      4  H   UNL     1      -3.381   4.904   2.144  0.00  0.00    +0.150 HD
ENDROOT
BRANCH   1   9
ATOM      5  C   UNL     1      -0.185  -0.373   2.518  0.00  0.00    +0.263 C 
ATOM      6  O   UNL     1      -0.131  -1.185   3.422  0.00  0.00    -0.268 OA
ATOM      7  N   UNL     1      -0.392   0.930   2.794  0.00  0.00    -0.295 N 
ATOM      8  C   UNL     1      -0.630   2.035   1.836  0.00  0.00    +0.121 C 
ATOM      9  C   UNL     1      -1.706   2.914   2.512  0.00  0.00    +0.100 C 
ATOM     10  C   UNL     1      -1.571   2.613   4.014  0.00  0.00    -0.004 C 
ATOM     11  C   UNL     1      -0.440   1.580   4.126  0.00  0.00    +0.115 C 
ATOM     12  C   UNL     1      -2.870   2.024   4.554  0.00  0.00    -0.010 C 
ATOM     13  C   UNL     1      -2.731   1.786   6.060  0.00  0.00    -0.082 C 
ATOM     14  N   UNL     1      -2.430   3.056   6.732  0.00  0.00    +0.379 N 
ATOM     15  C   UNL     1      -1.133   3.570   6.274  0.00  0.00    -0.082 C 
ATOM     16  C   UNL     1      -1.205   3.883   4.777  0.00  0.00    -0.010 C 
ATOM     17  H   UNL     1      -3.151   3.728   6.517  0.00  0.00    -0.086 HD
ATOM     18  H   UNL     1      -2.398   2.909   7.730  0.00  0.00    -0.086 HD
BRANCH   5  24
ATOM     19  C   UNL     1      -0.043  -3.307   1.534  0.00  0.00    +0.149 C 
ATOM     20  N   UNL     1       0.037  -2.114   0.687  0.00  0.00    -0.346 N 
ATOM     21  C   UNL     1       0.181  -2.110  -0.660  0.00  0.00    +0.086 A 
ATOM     22  C   UNL     1       0.216  -0.827  -1.093  0.00  0.00    +0.020 A 
ATOM     23  C   UNL     1       0.090   0.006   0.023  0.00  0.00    +0.032 A 
ATOM     24  C   UNL     1      -0.026  -0.811   1.127  0.00  0.00    +0.104 A 
ENDBRANCH   5  24
ENDBRANCH   1   9
BRANCH   3  25
ATOM     25  C   UNL     1      -2.210   6.645   1.819  0.00  0.00    +0.134 C 
BRANCH  25  26
ATOM     26  C   UNL     1      -3.389   7.245   1.098  0.00  0.00    -0.023 A 
ATOM     27  C   UNL     1      -4.675   6.897   1.468  0.00  0.00    +0.009 A 
ATOM     28  C   UNL     1      -5.757   7.445   0.808  0.00  0.00    +0.046 A 
ATOM     29  C   UNL     1      -5.553   8.348  -0.226  0.00  0.00    +0.120 A 
ATOM     30  C   UNL     1      -4.262   8.697  -0.595  0.00  0.00    +0.046 A 
ATOM     31  C   UNL     1      -3.183   8.149   0.072  0.00  0.00    +0.009 A 
BRANCH  29  32
ATOM     32  O   UNL     1      -6.617   8.889  -0.877  0.00  0.00    -0.495 OA
ATOM     33  C   UNL     1      -6.332   9.810  -1.931  0.00  0.00    +0.277 C 
ENDBRANCH  29  32
ENDBRANCH  25  26
BRANCH  25  34
ATOM     34  C   UNL     1      -1.997   7.368   3.124  0.00  0.00    -0.023 A 
ATOM     35  C   UNL     1      -2.777   7.055   4.221  0.00  0.00    +0.009 A 
ATOM     36  C   UNL     1      -2.585   7.717   5.419  0.00  0.00    +0.046 A 
ATOM     37  C   UNL     1      -1.607   8.696   5.519  0.00  0.00    +0.120 A 
ATOM     38  C   UNL     1      -0.825   9.008   4.417  0.00  0.00    +0.046 A 
ATOM     39  C   UNL     1      -1.018   8.340   3.223  0.00  0.00    +0.009 A 
BRANCH  37  40
ATOM     40  O   UNL     1      -1.416   9.349   6.696  0.00  0.00    -0.495 OA
ATOM     41  C   UNL     1      -0.392  10.345   6.726  0.00  0.00    +0.277 C 
ENDBRANCH  37  40
ENDBRANCH  25  34
ENDBRANCH   3  25
TORSDOF 7
