REMARK  Name = ZINC30339021
REMARK  4 active torsions:
REMARK  status: ('A' for Active; 'I' for Inactive)
REMARK    1  A    between atoms: C_1  and  N_2
REMARK    2  A    between atoms: C_3  and  C_5
REMARK    3  A    between atoms: N_11  and  S_12
REMARK    4  A    between atoms: S_12  and  N_15
REMARK                            x       y       z     vdW  Elec       q    Type
REMARK                         _______ _______ _______ _____ _____    ______ ____
ROOT
ATOM      1  C   UNL     1       1.310   2.169   0.273  0.00  0.00    +0.051 C 
ATOM      2  C   UNL     1       2.073   1.502  -0.876  0.00  0.00    -0.003 C 
ATOM      3  C   UNL     1       3.296   2.350  -1.232  0.00  0.00    -0.003 C 
ATOM      4  C   UNL     1       2.841   3.736  -1.695  0.00  0.00    -0.015 C 
ATOM      5  C   UNL     1       2.087   4.428  -0.555  0.00  0.00    -0.042 C 
ATOM      6  N   UNL     1       0.995   3.552  -0.109  0.00  0.00    +0.447 N 
ATOM      7  H   UNL     1       2.028   3.178  -0.159  0.00  0.00    -0.043 HD
ENDROOT
BRANCH   1  10
ATOM      8  C   UNL     1      -1.508   0.280   2.046  0.00  0.00    +0.128 C 
ATOM      9  N   UNL     1      -0.266   1.014   1.789  0.00  0.00    -0.320 N 
ATOM     10  C   UNL     1       0.033   1.414   0.537  0.00  0.00    +0.202 C 
ATOM     11  O   UNL     1      -0.723   1.162  -0.377  0.00  0.00    -0.277 OA
ATOM     12  H   UNL     1       0.421   1.238   2.618  0.00  0.00    +0.148 HD
ENDBRANCH   1  10
BRANCH   6  13
ATOM     13  S   UNL     1      -0.562   4.113  -0.038  0.00  0.00    +0.016 S 
ATOM     14  O   UNL     1      -1.288   3.194   0.766  0.00  0.00    -0.173 OA
ATOM     15  O   UNL     1      -0.481   5.497   0.271  0.00  0.00    -0.173 OA
BRANCH  13  16
ATOM     16  N   UNL     1      -1.191   4.005  -1.566  0.00  0.00    -0.193 NA
ATOM     17  C   UNL     1      -1.048   5.136  -2.455  0.00  0.00    +0.107 C 
ATOM     18  C   UNL     1      -2.245   6.095  -2.283  0.00  0.00    +0.017 C 
ATOM     19  C   UNL     1      -3.465   5.495  -2.845  0.00  0.00    +0.001 C 
ATOM     20  C   UNL     1      -3.907   4.208  -2.156  0.00  0.00    +0.001 C 
ATOM     21  C   UNL     1      -3.168   3.039  -2.758  0.00  0.00    +0.017 C 
ATOM     22  C   UNL     1      -1.880   2.761  -1.961  0.00  0.00    +0.107 C 
ENDBRANCH  13  16
ENDBRANCH   6  13
TORSDOF 3
