REMARK  Name = ZINC05183329
REMARK  8 active torsions:
REMARK  status: ('A' for Active; 'I' for Inactive)
REMARK    1  A    between atoms: C_1  and  C_2
REMARK    2  A    between atoms: C_2  and  C_3
REMARK    3  A    between atoms: C_3  and  N_4
REMARK    4  A    between atoms: C_8  and  S_18
REMARK    5  A    between atoms: N_13  and  C_14
REMARK    6  A    between atoms: C_14  and  C_16
REMARK    7  A    between atoms: C_16  and  C_17
REMARK    8  A    between atoms: S_18  and  N_21
REMARK                            x       y       z     vdW  Elec       q    Type
REMARK                         _______ _______ _______ _____ _____    ______ ____
ROOT
ATOM      1  N   UNL     1      -1.435   3.582   2.481  0.00  0.00    -0.321 N 
ATOM      2  C   UNL     1      -0.715   3.815   3.637  0.00  0.00    +0.058 A 
ATOM      3  C   UNL     1       0.663   3.659   3.852  0.00  0.00    +0.029 A 
ATOM      4  C   UNL     1       1.220   3.939   5.077  0.00  0.00    +0.030 A 
ATOM      5  C   UNL     1       0.443   4.383   6.134  0.00  0.00    +0.106 A 
ATOM      6  C   UNL     1      -0.918   4.545   5.951  0.00  0.00    +0.045 A 
ATOM      7  C   UNL     1      -1.476   4.265   4.726  0.00  0.00    +0.041 A 
ATOM      8  S   UNL     1      -3.125   4.331   4.070  0.00  0.00    -0.052 S 
ATOM      9  C   UNL     1      -2.777   3.795   2.458  0.00  0.00    +0.166 A 
ATOM     10  N   UNL     1      -3.623   3.630   1.443  0.00  0.00    -0.156 NA
ENDROOT
BRANCH   5  11
ATOM     11  S   UNL     1       1.180   4.734   7.695  0.00  0.00    +0.056 S 
ATOM     12  O   UNL     1       0.151   4.610   8.668  0.00  0.00    -0.153 OA
ATOM     13  O   UNL     1       2.382   3.978   7.757  0.00  0.00    -0.153 OA
BRANCH  11  14
ATOM     14  N   UNL     1       1.625   6.330   7.678  0.00  0.00    -0.204 NA
ATOM     15  H   UNL     1       1.458   6.871   6.892  0.00  0.00    +0.144 HD
ATOM     16  H   UNL     1       2.054   6.722   8.455  0.00  0.00    +0.144 HD
ENDBRANCH  11  14
ENDBRANCH   5  11
BRANCH  10  17
ATOM     17  C   UNL     1      -4.915   3.891   1.605  0.00  0.00    +0.238 C 
ATOM     18  O   UNL     1      -5.326   4.280   2.682  0.00  0.00    -0.274 OA
BRANCH  17  19
ATOM     19  C   UNL     1      -5.872   3.704   0.456  0.00  0.00    +0.094 C 
ATOM     20  C   UNL     1      -7.288   4.071   0.906  0.00  0.00    +0.013 C 
ENDBRANCH  17  19
ENDBRANCH  10  17
BRANCH   1  21
ATOM     21  C   UNL     1      -0.750   3.109   1.275  0.00  0.00    +0.124 C 
BRANCH  21  23
ATOM     22  C   UNL     1      -0.013   1.086   0.008  0.00  0.00    +0.005 C 
ATOM     23  C   UNL     1      -0.729   1.579   1.267  0.00  0.00    +0.018 C 
ENDBRANCH  21  23
ENDBRANCH   1  21
TORSDOF 6
