REMARK  Name = ZINC05370403
REMARK  8 active torsions:
REMARK  status: ('A' for Active; 'I' for Inactive)
REMARK    1  A    between atoms: C_1  and  C_2
REMARK    2  A    between atoms: C_10  and  O_31
REMARK    3  A    between atoms: N_22  and  N_23
REMARK    4  A    between atoms: C_24  and  O_26
REMARK    5  A    between atoms: O_26  and  C_27
REMARK    6  A    between atoms: C_27  and  C_28
REMARK    7  A    between atoms: C_27  and  C_29
REMARK    8  A    between atoms: C_27  and  C_30
REMARK                            x       y       z     vdW  Elec       q    Type
REMARK                         _______ _______ _______ _____ _____    ______ ____
ROOT
ATOM      1  C   UNL     1      -0.019   1.526   0.010  0.00  0.00    +0.018 C 
ATOM      2  C   UNL     1       0.002  -0.004   0.002  0.00  0.00    +0.011 C 
ATOM      3  C   UNL     1       0.630  -0.473  -1.290  0.00  0.00    +0.013 C 
ATOM      4  C   UNL     1       0.849  -1.988  -1.295  0.00  0.00    +0.009 C 
ATOM      5  C   UNL     1       1.745  -2.339  -0.106  0.00  0.00    +0.023 C 
ATOM      6  C   UNL     1       2.092  -3.801  -0.111  0.00  0.00    -0.041 A 
ATOM      7  C   UNL     1       2.374  -4.403  -1.329  0.00  0.00    +0.008 A 
ATOM      8  C   UNL     1       2.710  -5.739  -1.392  0.00  0.00    +0.046 A 
ATOM      9  C   UNL     1       2.766  -6.489  -0.226  0.00  0.00    +0.117 A 
ATOM     10  C   UNL     1       2.479  -5.889   0.989  0.00  0.00    +0.049 A 
ATOM     11  C   UNL     1       2.137  -4.545   1.049  0.00  0.00    -0.040 A 
ATOM     12  C   UNL     1       1.814  -3.967   2.402  0.00  0.00    +0.036 C 
ATOM     13  C   UNL     1       1.847  -2.439   2.369  0.00  0.00    +0.009 C 
ATOM     14  C   UNL     1       1.002  -1.988   1.179  0.00  0.00    +0.001 C 
ATOM     15  C   UNL     1       0.751  -0.493   1.257  0.00  0.00    +0.005 C 
ATOM     16  C   UNL     1      -0.328  -0.277   2.359  0.00  0.00    +0.010 C 
ATOM     17  C   UNL     1      -1.645  -0.675   1.657  0.00  0.00    +0.053 C 
ATOM     18  C   UNL     1      -1.413  -0.506   0.166  0.00  0.00    +0.043 C 
ATOM     19  N   UNL     1      -2.253  -0.743  -0.770  0.00  0.00    -0.186 NA
ENDROOT
BRANCH  19  20
ATOM     20  N   UNL     1      -3.537  -1.209  -0.457  0.00  0.00    -0.172 N 
ATOM     21  C   UNL     1      -4.421  -1.458  -1.443  0.00  0.00    +0.420 C 
ATOM     22  O   UNL     1      -5.535  -1.862  -1.172  0.00  0.00    -0.225 OA
ATOM     23  H   UNL     1      -3.789  -1.351   0.468  0.00  0.00    +0.181 HD
BRANCH  21  24
ATOM     24  O   UNL     1      -4.071  -1.261  -2.728  0.00  0.00    -0.444 OA
BRANCH  24  25
ATOM     25  C   UNL     1      -5.059  -1.546  -3.721  0.00  0.00    +0.107 C 
ATOM     26  C   UNL     1      -6.286  -0.662  -3.489  0.00  0.00    +0.055 C 
ATOM     27  C   UNL     1      -4.482  -1.264  -5.110  0.00  0.00    +0.055 C 
ATOM     28  C   UNL     1      -5.466  -3.018  -3.627  0.00  0.00    +0.055 C 
ENDBRANCH  24  25
ENDBRANCH  21  24
ENDBRANCH  19  20
BRANCH   9  29
ATOM     29  O   UNL     1       3.101  -7.805  -0.276  0.00  0.00    -0.507 OA
ATOM     30  H   UNL     1       4.050  -7.973  -0.195  0.00  0.00    +0.292 HD
ENDBRANCH   9  29
TORSDOF 4
