REMARK  Name = ZINC65527182
REMARK  8 active torsions:
REMARK  status: ('A' for Active; 'I' for Inactive)
REMARK    1  A    between atoms: C_1  and  C_2
REMARK    2  A    between atoms: C_2  and  C_3
REMARK    3  A    between atoms: C_2  and  C_4
REMARK    4  A    between atoms: C_14  and  C_16
REMARK    5  A    between atoms: C_17  and  C_18
REMARK    6  A    between atoms: C_21  and  O_26
REMARK    7  A    between atoms: C_22  and  O_24
REMARK    8  A    between atoms: O_24  and  C_25
REMARK                            x       y       z     vdW  Elec       q    Type
REMARK                         _______ _______ _______ _____ _____    ______ ____
ROOT
ATOM      1  C   UNL     1      -1.412  -0.526   0.013  0.00  0.00    +0.044 A 
ATOM      2  C   UNL     1      -1.973  -1.306  -0.920  0.00  0.00    +0.023 A 
ATOM      3  C   UNL     1      -3.309  -1.563  -0.529  0.00  0.00    +0.151 A 
ATOM      4  N   UNL     1      -3.524  -0.956   0.599  0.00  0.00    -0.158 NA
ATOM      5  N   UNL     1      -2.341  -0.295   0.970  0.00  0.00    -0.279 N 
ATOM      6  H   UNL     1      -2.213   0.236   1.771  0.00  0.00    +0.189 HD
ATOM      7  N   UNL     1      -4.156  -2.353  -1.322  0.00  0.00    -0.269 N 
ATOM      8  C   UNL     1      -3.596  -3.076  -2.315  0.00  0.00    +0.219 C 
ATOM      9  O   UNL     1      -4.325  -3.658  -3.091  0.00  0.00    -0.275 OA
ATOM     10  C   UNL     1      -2.112  -3.189  -2.501  0.00  0.00    +0.108 C 
ATOM     11  C   UNL     1      -1.395  -1.873  -2.192  0.00  0.00    +0.056 C 
ATOM     12  H   UNL     1      -5.112  -2.379  -1.161  0.00  0.00    +0.156 HD
ENDROOT
BRANCH   1  14
ATOM     13  C   UNL     1      -0.019   1.526   0.010  0.00  0.00    +0.014 C 
ATOM     14  C   UNL     1       0.002  -0.004   0.002  0.00  0.00    +0.031 C 
ATOM     15  C   UNL     1       0.742  -0.511   1.242  0.00  0.00    +0.014 C 
ENDBRANCH   1  14
BRANCH  11  16
ATOM     16  C   UNL     1      -1.609  -0.901  -3.324  0.00  0.00    -0.018 C 
ATOM     17  C   UNL     1      -0.567  -0.406  -3.977  0.00  0.00    +0.004 C 
BRANCH  17  18
ATOM     18  C   UNL     1      -0.776   0.547  -5.087  0.00  0.00    -0.022 A 
ATOM     19  C   UNL     1      -2.069   0.930  -5.446  0.00  0.00    +0.012 A 
ATOM     20  C   UNL     1      -2.262   1.820  -6.482  0.00  0.00    +0.050 A 
ATOM     21  C   UNL     1      -1.174   2.336  -7.170  0.00  0.00    +0.158 A 
ATOM     22  C   UNL     1       0.119   1.957  -6.817  0.00  0.00    +0.162 A 
ATOM     23  C   UNL     1       0.320   1.070  -5.776  0.00  0.00    +0.057 A 
BRANCH  22  24
ATOM     24  O   UNL     1       1.185   2.464  -7.494  0.00  0.00    -0.491 OA
ATOM     25  C   UNL     1       2.482   2.033  -7.079  0.00  0.00    +0.277 C 
ENDBRANCH  22  24
BRANCH  21  26
ATOM     26  O   UNL     1      -1.370   3.212  -8.191  0.00  0.00    -0.503 OA
ATOM     27  H   UNL     1      -1.385   4.139  -7.917  0.00  0.00    +0.292 HD
ENDBRANCH  21  26
ENDBRANCH  17  18
ENDBRANCH  11  16
TORSDOF 5
