REMARK  Name = ZINC42110279
REMARK  4 active torsions:
REMARK  status: ('A' for Active; 'I' for Inactive)
REMARK    1  A    between atoms: C_4  and  N_7
REMARK    2  A    between atoms: C_16  and  S_18
REMARK    3  A    between atoms: S_18  and  C_19
REMARK    4  A    between atoms: C_19  and  C_20
REMARK                            x       y       z     vdW  Elec       q    Type
REMARK                         _______ _______ _______ _____ _____    ______ ____
ROOT
ATOM      1  N   UNL     1       3.623  -0.651  -0.037  0.00  0.00    -0.214 N 
ATOM      2  C   UNL     1       3.885  -1.836   0.583  0.00  0.00    +0.171 A 
ATOM      3  C   UNL     1       5.225  -2.148   0.303  0.00  0.00    +0.103 A 
ATOM      4  C   UNL     1       5.735  -1.107  -0.500  0.00  0.00    +0.150 A 
ATOM      5  N   UNL     1       4.785  -0.236  -0.698  0.00  0.00    -0.172 NA
ATOM      6  C   UNL     1       5.770  -3.345   0.831  0.00  0.00    +0.263 A 
ATOM      7  O   UNL     1       6.928  -3.654   0.613  0.00  0.00    -0.267 OA
ATOM      8  N   UNL     1       4.971  -4.135   1.583  0.00  0.00    -0.301 N 
ATOM      9  H   UNL     1       5.321  -4.960   1.956  0.00  0.00    +0.171 HD
ATOM     10  C   UNL     1       3.676  -3.778   1.820  0.00  0.00    +0.171 A 
ATOM     11  N   UNL     1       3.157  -2.671   1.336  0.00  0.00    -0.204 NA
ENDROOT
BRANCH   1  15
ATOM     12  C   UNL     1      -0.017   1.379   0.010  0.00  0.00    +0.000 A 
ATOM     13  C   UNL     1       1.170   2.089   0.002  0.00  0.00    +0.002 A 
ATOM     14  C   UNL     1       2.377   1.419  -0.013  0.00  0.00    +0.028 A 
ATOM     15  C   UNL     1       2.400   0.031  -0.021  0.00  0.00    +0.068 A 
ATOM     16  C   UNL     1       1.206  -0.680  -0.013  0.00  0.00    +0.028 A 
ATOM     17  C   UNL     1       0.002  -0.004   0.002  0.00  0.00    +0.002 A 
ENDBRANCH   1  15
BRANCH  10  18
ATOM     18  S   UNL     1       2.666  -4.834   2.805  0.00  0.00    -0.080 S 
BRANCH  18  19
ATOM     19  C   UNL     1       1.063  -3.987   2.855  0.00  0.00    +0.151 C 
BRANCH  19  20
ATOM     20  C   UNL     1       0.093  -4.795   3.677  0.00  0.00    +0.118 A 
ATOM     21  N   UNL     1      -0.724  -5.766   3.187  0.00  0.00    -0.341 N 
ATOM     22  H   UNL     1      -0.784  -6.055   2.263  0.00  0.00    +0.167 HD
ATOM     23  C   UNL     1      -1.453  -6.264   4.249  0.00  0.00    +0.066 A 
ATOM     24  C   UNL     1      -2.426  -7.246   4.378  0.00  0.00    +0.028 A 
ATOM     25  C   UNL     1      -2.970  -7.509   5.617  0.00  0.00    +0.002 A 
ATOM     26  C   UNL     1      -2.553  -6.800   6.734  0.00  0.00    +0.002 A 
ATOM     27  C   UNL     1      -1.596  -5.830   6.626  0.00  0.00    +0.030 A 
ATOM     28  C   UNL     1      -1.030  -5.546   5.380  0.00  0.00    +0.089 A 
ATOM     29  N   UNL     1      -0.082  -4.670   4.961  0.00  0.00    -0.232 NA
ENDBRANCH  19  20
ENDBRANCH  18  19
ENDBRANCH  10  18
TORSDOF 4
