REMARK  Name = ZINC00203543
REMARK  8 active torsions:
REMARK  status: ('A' for Active; 'I' for Inactive)
REMARK    1  A    between atoms: C_1  and  C_2
REMARK    2  A    between atoms: C_5  and  C_8
REMARK    3  A    between atoms: C_13  and  C_17
REMARK    4  A    between atoms: C_13  and  C_18
REMARK    5  A    between atoms: C_20  and  N_26
REMARK    6  A    between atoms: C_21  and  C_22
REMARK    7  A    between atoms: C_22  and  O_24
REMARK    8  A    between atoms: O_24  and  C_25
REMARK                            x       y       z     vdW  Elec       q    Type
REMARK                         _______ _______ _______ _____ _____    ______ ____
ROOT
ATOM      1  C   UNL     1      -2.412   1.138   0.205  0.00  0.00    +0.097 C 
ATOM      2  C   UNL     1      -3.176   1.187  -1.096  0.00  0.00    +0.045 C 
ATOM      3  C   UNL     1      -4.305   1.912  -1.201  0.00  0.00    +0.115 C 
ATOM      4  C   UNL     1      -5.064   1.972  -2.506  0.00  0.00    +0.081 C 
ATOM      5  C   UNL     1      -4.887   0.656  -3.266  0.00  0.00    -0.021 C 
ATOM      6  C   UNL     1      -3.390   0.435  -3.511  0.00  0.00    +0.086 C 
ATOM      7  C   UNL     1      -2.673   0.454  -2.188  0.00  0.00    +0.164 C 
ATOM      8  O   UNL     1      -1.642  -0.175  -2.060  0.00  0.00    -0.292 OA
ATOM      9  C   UNL     1      -5.448  -0.498  -2.433  0.00  0.00    +0.012 C 
ATOM     10  C   UNL     1      -5.626   0.732  -4.604  0.00  0.00    +0.012 C 
ATOM     11  O   UNL     1      -4.791   2.607  -0.155  0.00  0.00    -0.446 OA
ATOM     12  C   UNL     1      -4.433   2.276   1.093  0.00  0.00    +0.195 C 
ATOM     13  C   UNL     1      -3.297   1.572   1.340  0.00  0.00    +0.105 C 
ENDROOT
BRANCH   1  18
ATOM     14  C   UNL     1       2.156   4.661  -0.134  0.00  0.00    +0.044 C 
ATOM     15  C   UNL     1       0.965   3.742  -0.042  0.00  0.00    -0.050 A 
ATOM     16  C   UNL     1       1.149   2.390   0.176  0.00  0.00    +0.003 A 
ATOM     17  C   UNL     1       0.057   1.548   0.259  0.00  0.00    +0.005 A 
ATOM     18  C   UNL     1      -1.221   2.057   0.120  0.00  0.00    -0.035 A 
ATOM     19  C   UNL     1      -1.406   3.410  -0.093  0.00  0.00    +0.005 A 
ATOM     20  C   UNL     1      -0.313   4.253  -0.176  0.00  0.00    +0.003 A 
ENDBRANCH   1  18
BRANCH  12  21
ATOM     21  N   UNL     1      -5.227   2.655   2.142  0.00  0.00    -0.329 N 
ATOM     22  H   UNL     1      -5.708   3.497   2.107  0.00  0.00    +0.145 HD
ATOM     23  H   UNL     1      -5.308   2.083   2.921  0.00  0.00    +0.145 HD
ENDBRANCH  12  21
BRANCH  13  24
ATOM     24  C   UNL     1      -2.949   1.248   2.660  0.00  0.00    +0.341 C 
ATOM     25  O   UNL     1      -3.601   1.692   3.588  0.00  0.00    -0.245 OA
BRANCH  24  26
ATOM     26  O   UNL     1      -1.891   0.444   2.901  0.00  0.00    -0.465 OA
ATOM     27  C   UNL     1      -1.594   0.155   4.269  0.00  0.00    +0.280 C 
ENDBRANCH  24  26
ENDBRANCH  13  24
TORSDOF 4
