REMARK  Name = ZINC31808116
REMARK  7 active torsions:
REMARK  status: ('A' for Active; 'I' for Inactive)
REMARK    1  A    between atoms: C_1  and  O_2
REMARK    2  A    between atoms: O_2  and  C_3
REMARK    3  A    between atoms: C_3  and  C_5
REMARK    4  A    between atoms: C_5  and  C_6
REMARK    5  A    between atoms: C_6  and  C_7
REMARK    6  A    between atoms: C_7  and  N_8
REMARK    7  A    between atoms: C_20  and  C_22
REMARK                            x       y       z     vdW  Elec       q    Type
REMARK                         _______ _______ _______ _____ _____    ______ ____
ROOT
ATOM      1  N   UNL     1       1.980  -6.455   3.115  0.00  0.00    -0.299 N 
ATOM      2  C   UNL     1       2.452  -5.632   4.072  0.00  0.00    +0.303 C 
ATOM      3  O   UNL     1       2.395  -4.427   3.920  0.00  0.00    -0.253 OA
ATOM      4  N   UNL     1       2.988  -6.144   5.198  0.00  0.00    -0.273 N 
ATOM      5  C   UNL     1       3.401  -5.267   6.303  0.00  0.00    +0.116 C 
ATOM      6  C   UNL     1       2.536  -5.566   7.534  0.00  0.00    +0.076 C 
ATOM      7  C   UNL     1       2.439  -7.061   7.710  0.00  0.00    +0.066 A 
ATOM      8  C   UNL     1       2.717  -7.962   6.744  0.00  0.00    +0.064 A 
ATOM      9  N   UNL     1       2.511  -9.198   7.273  0.00  0.00    -0.346 N 
ATOM     10  H   UNL     1       2.626 -10.047   6.818  0.00  0.00    +0.167 HD
ATOM     11  C   UNL     1       2.115  -9.017   8.554  0.00  0.00    +0.197 A 
ATOM     12  N   UNL     1       2.076  -7.735   8.806  0.00  0.00    -0.240 NA
ATOM     13  C   UNL     1       3.168  -7.599   5.355  0.00  0.00    +0.159 C 
ATOM     14  H   UNL     1       2.091  -7.414   3.203  0.00  0.00    +0.150 HD
ENDROOT
BRANCH  13  15
ATOM     15  C   UNL     1       4.622  -7.957   5.182  0.00  0.00    +0.015 A 
ATOM     16  C   UNL     1       5.399  -8.244   6.288  0.00  0.00    +0.028 A 
ATOM     17  C   UNL     1       6.733  -8.573   6.130  0.00  0.00    +0.041 A 
ATOM     18  C   UNL     1       7.290  -8.616   4.864  0.00  0.00    +0.023 A 
ATOM     19  C   UNL     1       6.514  -8.330   3.757  0.00  0.00    +0.040 A 
ATOM     20  C   UNL     1       5.177  -8.005   3.915  0.00  0.00    +0.129 A 
ATOM     21  F   UNL     1       4.416  -7.731   2.833  0.00  0.00    -0.205 F 
ATOM     22 CL   UNL     1       7.709  -8.932   7.520  0.00  0.00    -0.084 Cl
ENDBRANCH  13  15
BRANCH   1  23
ATOM     23  C   UNL     1       1.298  -5.900   1.943  0.00  0.00    +0.106 C 
BRANCH  23  24
ATOM     24  C   UNL     1       0.865  -7.039   1.018  0.00  0.00    +0.030 C 
BRANCH  24  25
ATOM     25  C   UNL     1       0.153  -6.460  -0.206  0.00  0.00    +0.122 C 
BRANCH  25  26
ATOM     26  C   UNL     1      -0.274  -7.582  -1.116  0.00  0.00    +0.307 C 
ATOM     27  O   UNL     1      -0.034  -8.728  -0.817  0.00  0.00    -0.251 OA
BRANCH  26  29
ATOM     28  C   UNL     1      -1.296  -8.422  -3.075  0.00  0.00    +0.280 C 
ATOM     29  O   UNL     1      -0.921  -7.309  -2.260  0.00  0.00    -0.468 OA
ENDBRANCH  26  29
ENDBRANCH  25  26
ENDBRANCH  24  25
ENDBRANCH  23  24
ENDBRANCH   1  23
TORSDOF 6
