REMARK  Name = ZINC12848628
REMARK  5 active torsions:
REMARK  status: ('A' for Active; 'I' for Inactive)
REMARK    1  A    between atoms: C_6  and  C_7
REMARK    2  A    between atoms: C_7  and  N_8
REMARK    3  A    between atoms: C_9  and  C_11
REMARK    4  A    between atoms: C_16  and  C_31
REMARK    5  A    between atoms: C_19  and  C_22
REMARK                            x       y       z     vdW  Elec       q    Type
REMARK                         _______ _______ _______ _____ _____    ______ ____
ROOT
ATOM      1  C   UNL     1      -3.304  -1.938  -2.996  0.00  0.00    +0.149 A 
ATOM      2  C   UNL     1      -4.475  -2.625  -3.389  0.00  0.00    +0.078 A 
ATOM      3  C   UNL     1      -4.510  -2.633  -4.736  0.00  0.00    +0.119 A 
ATOM      4  N   UNL     1      -3.404  -1.976  -5.194  0.00  0.00    -0.238 N 
ATOM      5  N   UNL     1      -2.670  -1.548  -4.088  0.00  0.00    -0.164 NA
ATOM      6  C   UNL     1      -3.104  -1.781  -6.615  0.00  0.00    +0.215 C 
ATOM      7  C   UNL     1      -4.392  -1.973  -7.425  0.00  0.00    +0.063 C 
ATOM      8  C   UNL     1      -5.074  -3.284  -7.017  0.00  0.00    +0.104 C 
ATOM      9  N   UNL     1      -5.461  -3.189  -5.596  0.00  0.00    -0.322 N 
ATOM     10  H   UNL     1      -6.325  -3.495  -5.277  0.00  0.00    +0.148 HD
ENDROOT
BRANCH   8  11
ATOM     11  C   UNL     1      -4.118  -4.433  -7.210  0.00  0.00    -0.024 A 
ATOM     12  C   UNL     1      -3.148  -4.690  -6.260  0.00  0.00    +0.009 A 
ATOM     13  C   UNL     1      -2.269  -5.743  -6.432  0.00  0.00    +0.050 A 
ATOM     14  C   UNL     1      -2.359  -6.543  -7.559  0.00  0.00    +0.166 A 
ATOM     15  C   UNL     1      -3.336  -6.284  -8.517  0.00  0.00    +0.167 A 
ATOM     16  C   UNL     1      -4.217  -5.231  -8.335  0.00  0.00    +0.055 A 
ATOM     17  O   UNL     1      -3.219  -7.202  -9.520  0.00  0.00    -0.453 OA
ATOM     18  C   UNL     1      -1.905  -7.772  -9.368  0.00  0.00    +0.466 C 
ATOM     19  O   UNL     1      -1.629  -7.624  -7.962  0.00  0.00    -0.453 OA
ENDBRANCH   8  11
BRANCH   1  21
ATOM     20  N   UNL     1      -1.726  -1.017  -1.368  0.00  0.00    -0.306 N 
ATOM     21  C   UNL     1      -2.867  -1.694  -1.606  0.00  0.00    +0.264 C 
ATOM     22  O   UNL     1      -3.537  -2.103  -0.678  0.00  0.00    -0.268 OA
ATOM     23  H   UNL     1      -1.192  -0.691  -2.108  0.00  0.00    +0.149 HD
BRANCH  20  24
ATOM     24  C   UNL     1      -1.293  -0.775   0.011  0.00  0.00    +0.140 C 
BRANCH  24  30
ATOM     25  C   UNL     1      -0.017   1.378   0.010  0.00  0.00    +0.006 A 
ATOM     26  C   UNL     1       1.171   2.086   0.002  0.00  0.00    +0.020 A 
ATOM     27  C   UNL     1       2.378   1.410  -0.013  0.00  0.00    +0.041 A 
ATOM     28  C   UNL     1       2.396   0.027  -0.021  0.00  0.00    +0.020 A 
ATOM     29  C   UNL     1       1.208  -0.679  -0.013  0.00  0.00    +0.006 A 
ATOM     30  C   UNL     1       0.002  -0.004   0.002  0.00  0.00    -0.030 A 
ATOM     31 CL   UNL     1       3.870   2.298  -0.023  0.00  0.00    -0.084 Cl
ENDBRANCH  24  30
ENDBRANCH  20  24
ENDBRANCH   1  21
BRANCH   6  32
ATOM     32  C   UNL     1      -2.564  -0.367  -6.836  0.00  0.00    +0.412 C 
ATOM     33  F   UNL     1      -1.395  -0.192  -6.087  0.00  0.00    -0.168 F 
ATOM     34  F   UNL     1      -2.279  -0.183  -8.194  0.00  0.00    -0.168 F 
ATOM     35  F   UNL     1      -3.522   0.568  -6.431  0.00  0.00    -0.168 F 
ENDBRANCH   6  32
TORSDOF 5
