REMARK  Name = ZINC36643818
REMARK  6 active torsions:
REMARK  status: ('A' for Active; 'I' for Inactive)
REMARK    1  A    between atoms: C_1  and  C_2
REMARK    2  A    between atoms: C_5  and  N_9
REMARK    3  A    between atoms: C_6  and  C_8
REMARK    4  A    between atoms: C_10  and  N_17
REMARK    5  A    between atoms: C_18  and  C_20
REMARK    6  A    between atoms: C_21  and  C_22
REMARK                            x       y       z     vdW  Elec       q    Type
REMARK                         _______ _______ _______ _____ _____    ______ ____
ROOT
ATOM      1  N   UNL     1       0.402  -4.232  -0.126  0.00  0.00    -0.218 N 
ATOM      2  C   UNL     1       0.130  -4.989  -1.218  0.00  0.00    +0.133 A 
ATOM      3  C   UNL     1      -0.002  -6.294  -0.797  0.00  0.00    +0.026 A 
ATOM      4  C   UNL     1       0.196  -6.319   0.573  0.00  0.00    +0.079 A 
ATOM      5  N   UNL     1       0.445  -5.082   0.980  0.00  0.00    -0.168 NA
ATOM      6  C   UNL     1       0.094  -7.681   1.257  0.00  0.00    +0.127 C 
ATOM      7  S   UNL     1      -0.738  -8.691  -0.036  0.00  0.00    -0.150 S 
ATOM      8  C   UNL     1      -0.300  -7.630  -1.474  0.00  0.00    +0.110 C 
ENDROOT
BRANCH   1  13
ATOM      9  C   UNL     1       1.241   1.380  -0.072  0.00  0.00    +0.044 C 
ATOM     10  C   UNL     1       1.019  -0.110  -0.086  0.00  0.00    -0.050 A 
ATOM     11  C   UNL     1       1.668  -0.896  -1.021  0.00  0.00    +0.005 A 
ATOM     12  C   UNL     1       1.466  -2.262  -1.037  0.00  0.00    +0.028 A 
ATOM     13  C   UNL     1       0.610  -2.846  -0.113  0.00  0.00    +0.070 A 
ATOM     14  C   UNL     1      -0.040  -2.055   0.825  0.00  0.00    -0.025 A 
ATOM     15  C   UNL     1       0.170  -0.690   0.839  0.00  0.00    +0.008 A 
ATOM     16  C   UNL     1      -0.970  -2.685   1.829  0.00  0.00    +0.046 C 
ENDBRANCH   1  13
BRANCH   2  17
ATOM     17  N   UNL     1       0.004  -4.531  -2.527  0.00  0.00    -0.267 N 
ATOM     18  C   UNL     1       0.278  -5.354  -3.559  0.00  0.00    +0.242 C 
ATOM     19  O   UNL     1       0.739  -6.461  -3.349  0.00  0.00    -0.270 OA
ATOM     20  H   UNL     1      -0.280  -3.619  -2.697  0.00  0.00    +0.157 HD
BRANCH  18  21
ATOM     21  C   UNL     1       0.021  -4.917  -4.931  0.00  0.00    +0.068 C 
ATOM     22  C   UNL     1       0.196  -5.777  -5.957  0.00  0.00    +0.013 C 
BRANCH  22  23
ATOM     23  C   UNL     1       0.055  -5.307  -7.342  0.00  0.00    -0.021 A 
ATOM     24  C   UNL     1      -0.256  -3.967  -7.600  0.00  0.00    +0.012 A 
ATOM     25  C   UNL     1      -0.388  -3.529  -8.899  0.00  0.00    +0.050 A 
ATOM     26  C   UNL     1      -0.214  -4.413  -9.957  0.00  0.00    +0.166 A 
ATOM     27  C   UNL     1       0.096  -5.751  -9.707  0.00  0.00    +0.167 A 
ATOM     28  C   UNL     1       0.235  -6.196  -8.407  0.00  0.00    +0.057 A 
ATOM     29  O   UNL     1       0.213  -6.401 -10.902  0.00  0.00    -0.453 OA
ATOM     30  C   UNL     1      -0.428  -5.547 -11.868  0.00  0.00    +0.466 C 
ATOM     31  O   UNL     1      -0.289  -4.229 -11.306  0.00  0.00    -0.453 OA
ENDBRANCH  22  23
ENDBRANCH  18  21
ENDBRANCH   2  17
TORSDOF 4
