REMARK  Name = ZINC05737130
REMARK  11 active torsions:
REMARK  status: ('A' for Active; 'I' for Inactive)
REMARK    1  A    between atoms: C_1  and  C_2
REMARK    2  A    between atoms: C_2  and  O_3
REMARK    3  A    between atoms: O_3  and  C_4
REMARK    4  A    between atoms: C_8  and  C_12
REMARK    5  A    between atoms: C_9  and  O_10
REMARK    6  A    between atoms: O_10  and  C_11
REMARK    7  A    between atoms: C_12  and  C_14
REMARK    8  A    between atoms: C_12  and  N_25
REMARK    9  A    between atoms: C_23  and  O_24
REMARK   10  A    between atoms: N_25  and  C_26
REMARK   11  A    between atoms: C_28  and  C_31
REMARK                            x       y       z     vdW  Elec       q    Type
REMARK                         _______ _______ _______ _____ _____    ______ ____
ROOT
ATOM      1  C   UNL     1      -1.402   2.214  -0.091  0.00  0.00    +0.139 C 
ENDROOT
BRANCH   1   2
ATOM      2  C   UNL     1      -0.054   1.541  -0.133  0.00  0.00    +0.021 A 
ATOM      3  C   UNL     1       0.124   0.321   0.514  0.00  0.00    +0.010 A 
ATOM      4  C   UNL     1       1.328  -0.315   0.490  0.00  0.00    +0.010 A 
ATOM      5  C   UNL     1       2.408   0.264  -0.195  0.00  0.00    +0.004 A 
ATOM      6  C   UNL     1       3.668  -0.363  -0.241  0.00  0.00    +0.011 A 
ATOM      7  C   UNL     1       4.672   0.258  -0.927  0.00  0.00    +0.020 A 
ATOM      8  C   UNL     1       4.434   1.479  -1.554  0.00  0.00    +0.111 A 
ATOM      9  N   UNL     1       3.260   2.060  -1.509  0.00  0.00    -0.251 NA
ATOM     10  C   UNL     1       2.235   1.505  -0.855  0.00  0.00    +0.113 A 
ATOM     11  C   UNL     1       0.973   2.135  -0.810  0.00  0.00    +0.148 A 
BRANCH  11  12
ATOM     12  O   UNL     1       0.781   3.325  -1.435  0.00  0.00    -0.504 OA
ATOM     13  H   UNL     1       0.965   4.096  -0.880  0.00  0.00    +0.292 HD
ENDBRANCH  11  12
ENDBRANCH   1   2
BRANCH   1  18
ATOM     14  C   UNL     1      -3.234   3.862  -2.965  0.00  0.00    +0.162 A 
ATOM     15  C   UNL     1      -2.542   3.356  -4.053  0.00  0.00    +0.049 A 
ATOM     16  C   UNL     1      -1.486   2.485  -3.857  0.00  0.00    +0.004 A 
ATOM     17  C   UNL     1      -1.118   2.117  -2.576  0.00  0.00    +0.009 A 
ATOM     18  C   UNL     1      -1.805   2.618  -1.486  0.00  0.00    +0.023 A 
ATOM     19  C   UNL     1      -2.867   3.487  -1.676  0.00  0.00    +0.167 A 
BRANCH  19  20
ATOM     20  O   UNL     1      -3.547   3.977  -0.605  0.00  0.00    -0.491 OA
ATOM     21  C   UNL     1      -3.024   5.155   0.012  0.00  0.00    +0.277 C 
ENDBRANCH  19  20
BRANCH  14  22
ATOM     22  O   UNL     1      -4.273   4.718  -3.156  0.00  0.00    -0.489 OA
BRANCH  22  24
ATOM     23  C   UNL     1      -5.782   6.021  -4.522  0.00  0.00    +0.048 C 
ATOM     24  C   UNL     1      -4.597   5.054  -4.507  0.00  0.00    +0.226 C 
ENDBRANCH  22  24
ENDBRANCH  14  22
ENDBRANCH   1  18
BRANCH   1  25
ATOM     25  N   UNL     1      -2.394   1.285   0.454  0.00  0.00    -0.319 N 
ATOM     26  H   UNL     1      -2.866   1.504   1.273  0.00  0.00    +0.148 HD
BRANCH  25  27
ATOM     27  C   UNL     1      -2.661   0.089  -0.203  0.00  0.00    +0.097 A 
ATOM     28  C   UNL     1      -1.861  -0.305  -1.271  0.00  0.00    +0.045 A 
ATOM     29  C   UNL     1      -2.137  -1.497  -1.914  0.00  0.00    -0.046 A 
ATOM     30  C   UNL     1      -3.209  -2.259  -1.467  0.00  0.00    +0.021 A 
ATOM     31  C   UNL     1      -3.961  -1.808  -0.401  0.00  0.00    +0.084 A 
ATOM     32  C   UNL     1      -1.294  -1.960  -3.075  0.00  0.00    +0.044 C 
ATOM     33  N   UNL     1      -3.715  -0.645   0.259  0.00  0.00    -0.350 N 
ATOM     34  H   UNL     1      -4.286  -0.338   1.055  0.00  0.00    +0.166 HD
ENDBRANCH  25  27
ENDBRANCH   1  25
TORSDOF 8
