REMARK  Name = ZINC65291236
REMARK  8 active torsions:
REMARK  status: ('A' for Active; 'I' for Inactive)
REMARK    1  A    between atoms: C_1  and  C_2
REMARK    2  A    between atoms: C_2  and  C_3
REMARK    3  A    between atoms: C_3  and  C_4
REMARK    4  A    between atoms: C_4  and  N_5
REMARK    5  A    between atoms: C_6  and  C_8
REMARK    6  A    between atoms: N_16  and  C_17
REMARK    7  A    between atoms: N_20  and  C_23
REMARK    8  A    between atoms: C_23  and  C_24
REMARK                            x       y       z     vdW  Elec       q    Type
REMARK                         _______ _______ _______ _____ _____    ______ ____
ROOT
ATOM      1  C   UNL     1      -4.760  -5.646  -0.056  0.00  0.00    +0.092 C 
ATOM      2  C   UNL     1      -4.943  -7.165  -0.021  0.00  0.00    +0.016 C 
ATOM      3  C   UNL     1      -6.434  -7.499   0.058  0.00  0.00    +0.020 C 
ATOM      4  C   UNL     1      -7.142  -6.955  -1.187  0.00  0.00    +0.109 C 
ATOM      5  N   UNL     1      -6.851  -5.520  -1.307  0.00  0.00    -0.285 N 
ATOM      6  C   UNL     1      -5.449  -5.081  -1.302  0.00  0.00    +0.122 C 
ATOM      7  C   UNL     1      -7.851  -4.623  -1.421  0.00  0.00    +0.302 C 
ATOM      8  O   UNL     1      -7.602  -3.433  -1.433  0.00  0.00    -0.253 OA
ATOM      9  N   UNL     1      -9.127  -5.046  -1.522  0.00  0.00    -0.297 N 
ATOM     10  H   UNL     1      -9.333  -5.991  -1.440  0.00  0.00    +0.151 HD
ENDROOT
BRANCH   9  11
ATOM     11  C   UNL     1     -10.203  -4.080  -1.754  0.00  0.00    +0.071 C 
ATOM     12  C   UNL     1     -10.666  -3.497  -0.416  0.00  0.00    +0.004 C 
ATOM     13  C   UNL     1     -11.842  -2.548  -0.659  0.00  0.00    -0.077 C 
ATOM     14  N   UNL     1     -12.948  -3.284  -1.283  0.00  0.00    +0.380 N 
ATOM     15  C   UNL     1     -12.533  -3.785  -2.599  0.00  0.00    -0.077 C 
ATOM     16  C   UNL     1     -11.384  -4.781  -2.431  0.00  0.00    +0.004 C 
ATOM     17  H   UNL     1     -13.207  -4.062  -0.695  0.00  0.00    -0.082 HD
BRANCH  14  18
ATOM     18  C   UNL     1     -14.102  -2.389  -1.443  0.00  0.00    -0.075 C 
BRANCH  18  19
ATOM     19  C   UNL     1     -14.627  -1.983  -0.064  0.00  0.00    -0.028 C 
ATOM     20  C   UNL     1     -15.178  -3.219   0.676  0.00  0.00    +0.002 C 
ATOM     21  C   UNL     1     -16.414  -2.683   1.441  0.00  0.00    +0.000 C 
ATOM     22  C   UNL     1     -17.026  -1.675   0.437  0.00  0.00    +0.000 C 
ATOM     23  C   UNL     1     -15.802  -1.001  -0.216  0.00  0.00    +0.002 C 
ENDBRANCH  18  19
ENDBRANCH  14  18
ENDBRANCH   9  11
BRANCH   1  25
ATOM     24  N   UNL     1      -2.888  -4.031  -0.141  0.00  0.00    -0.315 N 
ATOM     25  C   UNL     1      -3.290  -5.317  -0.102  0.00  0.00    +0.218 C 
ATOM     26  O   UNL     1      -2.469  -6.209  -0.103  0.00  0.00    -0.275 OA
ATOM     27  H   UNL     1      -3.544  -3.317  -0.140  0.00  0.00    +0.149 HD
BRANCH  24  28
ATOM     28  C   UNL     1      -1.459  -3.712  -0.186  0.00  0.00    +0.104 C 
BRANCH  28  29
ATOM     29  C   UNL     1      -1.277  -2.193  -0.225  0.00  0.00    +0.018 C 
BRANCH  29  31
ATOM     30  C   UNL     1       0.398  -0.341  -0.310  0.00  0.00    +0.004 C 
ATOM     31  C   UNL     1       0.216  -1.859  -0.271  0.00  0.00    -0.002 C 
ENDBRANCH  29  31
ENDBRANCH  28  29
ENDBRANCH  24  28
ENDBRANCH   1  25
TORSDOF 7
