REMARK  Name = ZINC36970397
REMARK  4 active torsions:
REMARK  status: ('A' for Active; 'I' for Inactive)
REMARK    1  A    between atoms: C_6  and  C_7
REMARK    2  A    between atoms: C_7  and  N_8
REMARK    3  A    between atoms: N_8  and  C_9
REMARK    4  A    between atoms: C_14  and  N_15
REMARK                            x       y       z     vdW  Elec       q    Type
REMARK                         _______ _______ _______ _____ _____    ______ ____
ROOT
ATOM      1  N   UNL     1      -1.494  -1.476  -1.453  0.00  0.00    -0.338 N 
ATOM      2  H   UNL     1      -0.965  -1.170  -2.207  0.00  0.00    +0.146 HD
ENDROOT
BRANCH   1   3
ATOM      3  C   UNL     1      -2.793  -1.947  -1.658  0.00  0.00    +0.059 A 
ATOM      4  C   UNL     1      -3.507  -2.499  -0.602  0.00  0.00    +0.045 A 
ATOM      5  C   UNL     1      -4.793  -2.963  -0.808  0.00  0.00    +0.043 A 
ATOM      6  C   UNL     1      -5.367  -2.880  -2.064  0.00  0.00    +0.022 A 
ATOM      7  C   UNL     1      -4.658  -2.331  -3.116  0.00  0.00    +0.036 A 
ATOM      8  C   UNL     1      -3.375  -1.859  -2.916  0.00  0.00    +0.147 A 
ATOM      9 CL   UNL     1      -5.687  -3.653   0.511  0.00  0.00    -0.083 Cl
BRANCH   8  10
ATOM     10  N   UNL     1      -2.619  -1.266  -4.042  0.00  0.00    +0.058 N 
ATOM     11  O   UNL     1      -1.898  -0.315  -3.851  0.00  0.00    -0.126 OA
ATOM     12  O   UNL     1      -2.723  -1.734  -5.152  0.00  0.00    -0.126 OA
ENDBRANCH   8  10
ENDBRANCH   1   3
BRANCH   1  13
ATOM     13  C   UNL     1      -0.930  -1.445  -0.102  0.00  0.00    +0.137 C 
BRANCH  13  19
ATOM     14  C   UNL     1       0.691   0.460  -0.027  0.00  0.00    +0.007 A 
ATOM     15  C   UNL     1       1.978   0.962  -0.076  0.00  0.00    +0.022 A 
ATOM     16  C   UNL     1       3.049   0.104  -0.252  0.00  0.00    +0.059 A 
ATOM     17  C   UNL     1       2.831  -1.257  -0.380  0.00  0.00    +0.060 A 
ATOM     18  C   UNL     1       1.543  -1.758  -0.331  0.00  0.00    +0.026 A 
ATOM     19  C   UNL     1       0.473  -0.899  -0.155  0.00  0.00    -0.029 A 
ATOM     20 CL   UNL     1       4.174  -2.335  -0.601  0.00  0.00    -0.082 Cl
ATOM     21 CL   UNL     1       4.666   0.734  -0.313  0.00  0.00    -0.082 Cl
ENDBRANCH  13  19
ENDBRANCH   1  13
TORSDOF 4
