REMARK  Name = ZINC11815904
REMARK  8 active torsions:
REMARK  status: ('A' for Active; 'I' for Inactive)
REMARK    1  A    between atoms: C_1  and  C_2
REMARK    2  A    between atoms: C_2  and  C_4
REMARK    3  A    between atoms: C_2  and  N_58
REMARK    4  A    between atoms: C_9  and  N_58
REMARK    5  A    between atoms: C_10  and  C_11
REMARK    6  A    between atoms: C_10  and  N_58
REMARK    7  A    between atoms: C_14  and  C_19
REMARK    8  A    between atoms: N_21  and  C_22
REMARK                            x       y       z     vdW  Elec       q    Type
REMARK                         _______ _______ _______ _____ _____    ______ ____
ROOT
ATOM      1  C   UNL     1      -2.526   8.348  -4.827  0.00  0.00    +0.003 A 
ATOM      2  C   UNL     1      -2.946   8.212  -3.543  0.00  0.00    +0.020 A 
ATOM      3  C   UNL     1      -2.190   7.471  -2.635  0.00  0.00    +0.020 A 
ATOM      4  C   UNL     1      -1.000   6.888  -3.064  0.00  0.00    +0.101 A 
ATOM      5  C   UNL     1      -0.603   7.060  -4.415  0.00  0.00    +0.261 A 
ATOM      6  O   UNL     1       0.432   6.556  -4.817  0.00  0.00    -0.267 OA
ATOM      7  N   UNL     1      -1.372   7.780  -5.253  0.00  0.00    -0.327 N 
ATOM      8  H   UNL     1      -1.096   7.894  -6.176  0.00  0.00    +0.169 HD
ENDROOT
BRANCH   4   9
ATOM      9  C   UNL     1      -0.172   6.104  -2.135  0.00  0.00    +0.250 C 
ATOM     10  O   UNL     1      -0.573   5.875  -1.009  0.00  0.00    -0.270 OA
ATOM     11  N   UNL     1       1.030   5.640  -2.530  0.00  0.00    -0.300 N 
ATOM     12  H   UNL     1       1.316   5.755  -3.450  0.00  0.00    +0.150 HD
BRANCH  11  13
ATOM     13  C   UNL     1       1.905   4.962  -1.570  0.00  0.00    +0.135 C 
ATOM     14  C   UNL     1       1.597   3.485  -1.540  0.00  0.00    -0.015 A 
ATOM     15  C   UNL     1       0.454   2.784  -1.221  0.00  0.00    +0.006 A 
ATOM     16  C   UNL     1       0.448   1.402  -1.285  0.00  0.00    +0.000 A 
ATOM     17  C   UNL     1       1.591   0.720  -1.660  0.00  0.00    +0.001 A 
ATOM     18  C   UNL     1       2.740   1.413  -1.982  0.00  0.00    +0.009 A 
ATOM     19  C   UNL     1       2.751   2.808  -1.924  0.00  0.00    -0.012 A 
ATOM     20  C   UNL     1       3.827   3.789  -2.211  0.00  0.00    -0.012 A 
ATOM     21  C   UNL     1       3.345   5.079  -2.007  0.00  0.00    -0.015 A 
ATOM     22  C   UNL     1       4.164   6.169  -2.211  0.00  0.00    +0.006 A 
ATOM     23  C   UNL     1       5.473   5.984  -2.621  0.00  0.00    +0.000 A 
ATOM     24  C   UNL     1       5.961   4.706  -2.827  0.00  0.00    +0.001 A 
ATOM     25  C   UNL     1       5.148   3.610  -2.624  0.00  0.00    +0.009 A 
ENDBRANCH  11  13
ENDBRANCH   4   9
BRANCH   1  26
ATOM     26  C   UNL     1      -3.359   9.146  -5.797  0.00  0.00    -0.024 C 
BRANCH  26  28
ATOM     27  C   UNL     1      -4.888   7.358  -6.367  0.00  0.00    -0.095 C 
ATOM     28  N   UNL     1      -3.823   8.249  -6.875  0.00  0.00    +0.386 N 
ATOM     29  H   UNL     1      -3.034   7.676  -7.195  0.00  0.00    -0.081 HD
BRANCH  28  31
ATOM     30  C   UNL     1      -5.685   9.669  -7.668  0.00  0.00    -0.008 C 
ATOM     31  C   UNL     1      -4.331   9.045  -8.012  0.00  0.00    -0.034 C 
BRANCH  31  32
ATOM     32  C   UNL     1      -4.483   8.140  -9.208  0.00  0.00    -0.024 A 
ATOM     33  C   UNL     1      -4.023   8.310 -10.471  0.00  0.00    +0.009 A 
ATOM     34  C   UNL     1      -4.285   7.337 -11.417  0.00  0.00    +0.008 A 
ATOM     35  C   UNL     1      -4.995   6.241 -11.053  0.00  0.00    +0.045 A 
ATOM     36  S   UNL     1      -5.311   6.563  -9.325  0.00  0.00    -0.103 S 
ENDBRANCH  31  32
ENDBRANCH  28  31
ENDBRANCH  26  28
ENDBRANCH   1  26
TORSDOF 6
