REMARK  Name = ZINC17086152
REMARK  11 active torsions:
REMARK  status: ('A' for Active; 'I' for Inactive)
REMARK    1  A    between atoms: C_1  and  C_2
REMARK    2  A    between atoms: C_3  and  C_25
REMARK    3  A    between atoms: C_4  and  C_10
REMARK    4  A    between atoms: C_13  and  O_16
REMARK    5  A    between atoms: O_16  and  C_17
REMARK    6  A    between atoms: C_17  and  C_18
REMARK    7  A    between atoms: N_27  and  C_28
REMARK    8  A    between atoms: C_31  and  O_36
REMARK    9  A    between atoms: C_33  and  O_34
REMARK   10  A    between atoms: O_34  and  C_35
REMARK   11  A    between atoms: O_36  and  C_37
REMARK                            x       y       z     vdW  Elec       q    Type
REMARK                         _______ _______ _______ _____ _____    ______ ____
ROOT
ATOM      1  C   UNL     1      -0.170   4.740  -0.643  0.00  0.00    +0.061 C 
ATOM      2  C   UNL     1      -0.226   3.317  -0.149  0.00  0.00    +0.017 C 
ATOM      3  C   UNL     1      -1.389   2.825   0.328  0.00  0.00    +0.056 C 
ATOM      4  C   UNL     1      -1.403   1.389   0.809  0.00  0.00    +0.139 C 
ATOM      5  N   UNL     1      -0.135   0.645   0.727  0.00  0.00    -0.315 N 
ATOM      6  C   UNL     1       0.946   1.275   0.226  0.00  0.00    +0.135 C 
ATOM      7  S   UNL     1       2.426   0.421   0.118  0.00  0.00    -0.019 S 
ATOM      8  N   UNL     1       0.901   2.547  -0.191  0.00  0.00    -0.300 N 
ATOM      9  H   UNL     1      -0.079  -0.277   1.023  0.00  0.00    +0.149 HD
ATOM     10  H   UNL     1       1.714   2.943  -0.542  0.00  0.00    +0.154 HD
ENDROOT
BRANCH   4  11
ATOM     11  C   UNL     1      -1.848   1.390   2.249  0.00  0.00    -0.022 A 
ATOM     12  C   UNL     1      -0.940   1.676   3.252  0.00  0.00    +0.009 A 
ATOM     13  C   UNL     1      -1.347   1.683   4.572  0.00  0.00    +0.046 A 
ATOM     14  C   UNL     1      -2.665   1.392   4.892  0.00  0.00    +0.121 A 
ATOM     15  C   UNL     1      -3.573   1.101   3.884  0.00  0.00    +0.046 A 
ATOM     16  C   UNL     1      -3.163   1.101   2.565  0.00  0.00    +0.009 A 
BRANCH  14  17
ATOM     17  O   UNL     1      -3.067   1.393   6.191  0.00  0.00    -0.487 OA
BRANCH  17  18
ATOM     18  C   UNL     1      -2.078   1.702   7.175  0.00  0.00    +0.264 C 
BRANCH  18  19
ATOM     19  C   UNL     1      -2.702   1.654   8.546  0.00  0.00    -0.010 A 
ATOM     20  C   UNL     1      -3.261   2.796   9.091  0.00  0.00    +0.008 A 
ATOM     21  C   UNL     1      -3.838   2.751  10.345  0.00  0.00    +0.020 A 
ATOM     22  C   UNL     1      -3.847   1.567  11.061  0.00  0.00    +0.041 A 
ATOM     23  C   UNL     1      -3.283   0.427  10.518  0.00  0.00    +0.020 A 
ATOM     24  C   UNL     1      -2.711   0.471   9.261  0.00  0.00    +0.008 A 
ATOM     25 CL   UNL     1      -4.567   1.512  12.640  0.00  0.00    -0.084 Cl
ENDBRANCH  18  19
ENDBRANCH  17  18
ENDBRANCH  14  17
ENDBRANCH   4  11
BRANCH   3  26
ATOM     26  C   UNL     1      -2.558   3.624   0.371  0.00  0.00    +0.248 C 
ATOM     27  O   UNL     1      -3.414   3.498  -0.486  0.00  0.00    -0.270 OA
ATOM     28  N   UNL     1      -2.724   4.523   1.362  0.00  0.00    -0.279 N 
ATOM     29  H   UNL     1      -2.011   4.676   2.002  0.00  0.00    +0.155 HD
BRANCH  28  30
ATOM     30  C   UNL     1      -3.927   5.237   1.467  0.00  0.00    +0.076 A 
ATOM     31  C   UNL     1      -4.674   5.509   0.331  0.00  0.00    +0.030 A 
ATOM     32  C   UNL     1      -5.859   6.212   0.434  0.00  0.00    +0.047 A 
ATOM     33  C   UNL     1      -6.304   6.647   1.674  0.00  0.00    +0.124 A 
ATOM     34  C   UNL     1      -5.560   6.378   2.813  0.00  0.00    +0.093 A 
ATOM     35  C   UNL     1      -4.375   5.668   2.713  0.00  0.00    +0.145 A 
BRANCH  35  36
ATOM     36  O   UNL     1      -3.647   5.397   3.829  0.00  0.00    -0.493 OA
ATOM     37  C   UNL     1      -4.168   5.870   5.074  0.00  0.00    +0.277 C 
ENDBRANCH  35  36
BRANCH  33  38
ATOM     38  O   UNL     1      -7.471   7.339   1.773  0.00  0.00    -0.495 OA
ATOM     39  C   UNL     1      -8.186   7.581   0.559  0.00  0.00    +0.277 C 
ENDBRANCH  33  38
ENDBRANCH  28  30
ENDBRANCH   3  26
TORSDOF 8
