REMARK  Name = ZINC39327053
REMARK  8 active torsions:
REMARK  status: ('A' for Active; 'I' for Inactive)
REMARK    1  A    between atoms: C_1  and  C_2
REMARK    2  A    between atoms: C_3  and  C_32
REMARK    3  A    between atoms: C_4  and  C_26
REMARK    4  A    between atoms: C_7  and  N_25
REMARK    5  A    between atoms: C_8  and  C_12
REMARK    6  A    between atoms: N_14  and  C_15
REMARK    7  A    between atoms: C_32  and  O_34
REMARK    8  A    between atoms: O_34  and  C_35
REMARK                            x       y       z     vdW  Elec       q    Type
REMARK                         _______ _______ _______ _____ _____    ______ ____
ROOT
ATOM      1  C   UNL     1      -0.018   1.503   0.010  0.00  0.00    +0.061 C 
ATOM      2  C   UNL     1       0.002  -0.004   0.002  0.00  0.00    +0.016 C 
ATOM      3  C   UNL     1      -1.159  -0.672   0.004  0.00  0.00    +0.065 C 
ATOM      4  C   UNL     1      -1.284  -2.167  -0.023  0.00  0.00    +0.091 C 
ATOM      5  C   UNL     1       0.071  -2.800   0.271  0.00  0.00    +0.014 A 
ATOM      6  C   UNL     1       0.260  -4.140   0.562  0.00  0.00    +0.050 A 
ATOM      7  C   UNL     1       1.551  -4.605   0.811  0.00  0.00    +0.096 A 
ATOM      8  S   UNL     1       2.522  -3.115   0.631  0.00  0.00    -0.067 S 
ATOM      9  C   UNL     1       1.198  -2.006   0.252  0.00  0.00    +0.076 A 
ATOM     10  N   UNL     1       1.212  -0.657  -0.013  0.00  0.00    -0.312 N 
ATOM     11  H   UNL     1       2.039  -0.185  -0.199  0.00  0.00    +0.152 HD
ENDROOT
BRANCH   4  12
ATOM     12  C   UNL     1      -1.756  -2.607  -1.385  0.00  0.00    -0.035 A 
ATOM     13  C   UNL     1      -1.000  -2.318  -2.505  0.00  0.00    +0.004 A 
ATOM     14  C   UNL     1      -1.433  -2.721  -3.754  0.00  0.00    +0.000 A 
ATOM     15  C   UNL     1      -2.623  -3.413  -3.883  0.00  0.00    +0.000 A 
ATOM     16  C   UNL     1      -3.379  -3.702  -2.763  0.00  0.00    +0.000 A 
ATOM     17  C   UNL     1      -2.943  -3.303  -1.513  0.00  0.00    +0.004 A 
ENDBRANCH   4  12
BRANCH   7  18
ATOM     18  C   UNL     1       1.979  -5.912   1.125  0.00  0.00    +0.253 C 
ATOM     19  O   UNL     1       1.166  -6.816   1.208  0.00  0.00    -0.270 OA
ATOM     20  N   UNL     1       3.287  -6.160   1.333  0.00  0.00    -0.305 N 
ATOM     21  H   UNL     1       3.934  -5.441   1.267  0.00  0.00    +0.150 HD
BRANCH  20  22
ATOM     22  C   UNL     1       3.732  -7.518   1.658  0.00  0.00    +0.036 C 
ATOM     23  C   UNL     1       3.058  -7.979   2.952  0.00  0.00    +0.029 C 
ATOM     24  C   UNL     1       3.523  -9.396   3.292  0.00  0.00    -0.008 C 
ATOM     25  C   UNL     1       5.041  -9.405   3.478  0.00  0.00    +0.007 C 
ATOM     26  C   UNL     1       5.716  -8.943   2.184  0.00  0.00    -0.008 C 
ATOM     27  C   UNL     1       5.251  -7.526   1.844  0.00  0.00    +0.029 C 
ATOM     28  C   UNL     1       5.336  -9.892   1.045  0.00  0.00    +0.007 C 
ATOM     29  C   UNL     1       3.817  -9.883   0.859  0.00  0.00    -0.008 C 
ATOM     30  C   UNL     1       3.143 -10.344   2.153  0.00  0.00    +0.007 C 
ATOM     31  C   UNL     1       3.352  -8.466   0.519  0.00  0.00    +0.029 C 
ENDBRANCH  20  22
ENDBRANCH   7  18
BRANCH   6  32
ATOM     32  N   UNL     1      -0.825  -5.012   0.606  0.00  0.00    -0.357 N 
ATOM     33  H   UNL     1      -1.720  -4.681   0.432  0.00  0.00    +0.142 HD
ATOM     34  H   UNL     1      -0.685  -5.949   0.810  0.00  0.00    +0.142 HD
ENDBRANCH   6  32
BRANCH   3  35
ATOM     35  C   UNL     1      -2.352   0.084   0.034  0.00  0.00    +0.337 C 
ATOM     36  O   UNL     1      -2.300   1.300   0.057  0.00  0.00    -0.245 OA
BRANCH  35  37
ATOM     37  O   UNL     1      -3.548  -0.541   0.037  0.00  0.00    -0.465 OA
ATOM     38  C   UNL     1      -4.712   0.287   0.069  0.00  0.00    +0.280 C 
ENDBRANCH  35  37
ENDBRANCH   3  35
TORSDOF 6
