REMARK  Name = ZINC13569698
REMARK  6 active torsions:
REMARK  status: ('A' for Active; 'I' for Inactive)
REMARK    1  A    between atoms: C_1  and  C_2
REMARK    2  A    between atoms: C_2  and  C_3
REMARK    3  A    between atoms: C_2  and  C_4
REMARK    4  A    between atoms: C_4  and  C_5
REMARK    5  A    between atoms: C_7  and  C_11
REMARK    6  A    between atoms: C_14  and  C_19
REMARK                            x       y       z     vdW  Elec       q    Type
REMARK                         _______ _______ _______ _____ _____    ______ ____
ROOT
ATOM      1  C   UNL     1      -4.006  -0.763  -4.358  0.00  0.00    +0.150 A 
ATOM      2  N   UNL     1      -4.344  -1.996  -4.648  0.00  0.00    -0.154 NA
ATOM      3  N   UNL     1      -5.055  -2.293  -5.803  0.00  0.00    -0.185 N 
ATOM      4  C   UNL     1      -5.590  -3.389  -6.465  0.00  0.00    +0.186 A 
ATOM      5  N   UNL     1      -6.165  -2.952  -7.562  0.00  0.00    -0.126 NA
ATOM      6  N   UNL     1      -6.037  -1.674  -7.646  0.00  0.00    -0.120 NA
ATOM      7  C   UNL     1      -5.379  -1.233  -6.614  0.00  0.00    +0.219 A 
ATOM      8  S   UNL     1      -4.688   0.146  -5.736  0.00  0.00    -0.025 S 
ENDROOT
BRANCH   4   9
ATOM      9  C   UNL     1      -5.524  -4.795  -6.017  0.00  0.00    +0.021 A 
ATOM     10  C   UNL     1      -4.633  -5.168  -5.008  0.00  0.00    +0.014 A 
ATOM     11  C   UNL     1      -4.576  -6.482  -4.593  0.00  0.00    +0.039 A 
ATOM     12  C   UNL     1      -5.401  -7.432  -5.175  0.00  0.00    +0.123 A 
ATOM     13  C   UNL     1      -6.286  -7.068  -6.177  0.00  0.00    +0.039 A 
ATOM     14  C   UNL     1      -6.356  -5.755  -6.596  0.00  0.00    +0.014 A 
ATOM     15  F   UNL     1      -5.340  -8.717  -4.765  0.00  0.00    -0.205 F 
ENDBRANCH   4   9
BRANCH   1  18
ATOM     16  C   UNL     1      -2.125  -0.137  -1.266  0.00  0.00    +0.064 A 
ATOM     17  C   UNL     1      -2.756  -1.009  -2.152  0.00  0.00    +0.055 A 
ATOM     18  C   UNL     1      -3.260  -0.257  -3.191  0.00  0.00    +0.093 A 
ATOM     19  N   UNL     1      -2.939   1.045  -2.937  0.00  0.00    -0.275 N 
ATOM     20  H   UNL     1      -3.162   1.808  -3.493  0.00  0.00    +0.189 HD
ATOM     21  N   UNL     1      -2.237   1.083  -1.726  0.00  0.00    -0.178 NA
BRANCH  16  22
ATOM     22  C   UNL     1      -1.433  -0.534   0.013  0.00  0.00    +0.060 C 
BRANCH  22  24
ATOM     23  C   UNL     1      -0.019   1.526   0.010  0.00  0.00    +0.007 C 
ATOM     24  C   UNL     1       0.002  -0.004   0.002  0.00  0.00    -0.011 C 
ATOM     25  C   UNL     1       0.742  -0.511   1.242  0.00  0.00    +0.007 C 
ENDBRANCH  22  24
ENDBRANCH  16  22
ENDBRANCH   1  18
TORSDOF 4
