REMARK  Name = ZINC37577143
REMARK  7 active torsions:
REMARK  status: ('A' for Active; 'I' for Inactive)
REMARK    1  A    between atoms: C_1  and  C_2
REMARK    2  A    between atoms: N_5  and  S_11
REMARK    3  A    between atoms: C_7  and  C_10
REMARK    4  A    between atoms: S_11  and  C_14
REMARK    5  A    between atoms: C_17  and  C_20
REMARK    6  A    between atoms: C_21  and  C_22
REMARK    7  A    between atoms: C_22  and  O_23
REMARK                            x       y       z     vdW  Elec       q    Type
REMARK                         _______ _______ _______ _____ _____    ______ ____
ROOT
ATOM      1  S   UNL     1       2.915   0.650  -2.391  0.00  0.00    +0.061 S 
ATOM      2  O   UNL     1       4.300   0.363  -2.253  0.00  0.00    -0.153 OA
ATOM      3  O   UNL     1       2.189   0.351  -3.576  0.00  0.00    -0.153 OA
ENDROOT
BRANCH   1   7
ATOM      4  C   UNL     1      -0.019   1.526   0.010  0.00  0.00    +0.039 C 
ATOM      5  C   UNL     1       0.002  -0.004   0.002  0.00  0.00    +0.131 C 
ATOM      6  C   UNL     1       0.722  -0.499  -1.258  0.00  0.00    +0.140 C 
ATOM      7  N   UNL     1       2.143  -0.135  -1.154  0.00  0.00    -0.172 NA
ATOM      8  C   UNL     1       2.860  -0.488   0.082  0.00  0.00    +0.140 C 
ATOM      9  C   UNL     1       2.036   0.007   1.277  0.00  0.00    +0.131 C 
ATOM     10  O   UNL     1       0.695  -0.479   1.159  0.00  0.00    -0.371 OA
ATOM     11  C   UNL     1       2.656  -0.513   2.575  0.00  0.00    +0.039 C 
ENDBRANCH   1   7
BRANCH   1  12
ATOM     12  C   UNL     1       2.728   2.379  -2.109  0.00  0.00    +0.106 A 
ATOM     13  C   UNL     1       1.635   3.048  -2.631  0.00  0.00    +0.030 A 
ATOM     14  C   UNL     1       1.483   4.402  -2.413  0.00  0.00    +0.019 A 
ATOM     15  C   UNL     1       2.434   5.096  -1.664  0.00  0.00    +0.025 A 
ATOM     16  C   UNL     1       3.534   4.415  -1.140  0.00  0.00    +0.019 A 
ATOM     17  C   UNL     1       3.672   3.061  -1.361  0.00  0.00    +0.030 A 
BRANCH  15  18
ATOM     18  C   UNL     1       2.282   6.502  -1.434  0.00  0.00    -0.064 C 
ATOM     19  C   UNL     1       2.158   7.654  -1.246  0.00  0.00    -0.069 C 
BRANCH  19  20
ATOM     20  C   UNL     1       2.002   9.098  -1.010  0.00  0.00    +0.244 C 
BRANCH  20  21
ATOM     21  O   UNL     1       3.096   9.573  -0.223  0.00  0.00    -0.383 OA
ATOM     22  H   UNL     1       3.058  10.520  -0.028  0.00  0.00    +0.211 HD
ENDBRANCH  20  21
ENDBRANCH  19  20
ENDBRANCH  15  18
ENDBRANCH   1  12
TORSDOF 5
