REMARK  Name = ZINC12497789
REMARK  9 active torsions:
REMARK  status: ('A' for Active; 'I' for Inactive)
REMARK    1  A    between atoms: C_1  and  C_2
REMARK    2  A    between atoms: C_2  and  O_3
REMARK    3  A    between atoms: O_3  and  C_4
REMARK    4  A    between atoms: C_7  and  N_10
REMARK    5  A    between atoms: C_15  and  C_32
REMARK    6  A    between atoms: C_17  and  C_22
REMARK    7  A    between atoms: C_17  and  C_28
REMARK    8  A    between atoms: C_28  and  O_30
REMARK    9  A    between atoms: O_30  and  C_31
REMARK                            x       y       z     vdW  Elec       q    Type
REMARK                         _______ _______ _______ _____ _____    ______ ____
ROOT
ATOM      1  N   UNL     1       1.400  -0.402  -0.708  0.00  0.00    -0.210 N 
ATOM      2  C   UNL     1       0.294  -0.151   0.066  0.00  0.00    +0.229 C 
ATOM      3  O   UNL     1      -0.404  -0.958   0.642  0.00  0.00    -0.275 OA
ATOM      4  C   UNL     1       0.145   1.282   0.041  0.00  0.00    +0.078 C 
ATOM      5  C   UNL     1      -0.500   2.372   0.795  0.00  0.00    -0.023 C 
ATOM      6  C   UNL     1       1.405   3.190  -0.457  0.00  0.00    +0.070 C 
ATOM      7  C   UNL     1       1.652   1.758   0.013  0.00  0.00    +0.090 C 
ATOM      8  C   UNL     1       2.123   0.726  -0.977  0.00  0.00    +0.229 C 
ATOM      9  O   UNL     1       2.967   0.867  -1.835  0.00  0.00    -0.275 OA
ATOM     10  N   UNL     1       0.113   3.583   0.164  0.00  0.00    +0.398 N 
ATOM     11  H   UNL     1       0.277   4.301   0.880  0.00  0.00    -0.083 HD
ATOM     12  H   UNL     1      -0.518   3.955  -0.556  0.00  0.00    -0.083 HD
ENDROOT
BRANCH   5  13
ATOM     13  C   UNL     1      -1.994   2.352   0.597  0.00  0.00    -0.025 A 
ATOM     14  C   UNL     1      -2.566   3.086  -0.424  0.00  0.00    +0.005 A 
ATOM     15  C   UNL     1      -3.936   3.063  -0.609  0.00  0.00    +0.000 A 
ATOM     16  C   UNL     1      -4.736   2.315   0.235  0.00  0.00    +0.003 A 
ATOM     17  C   UNL     1      -4.166   1.584   1.260  0.00  0.00    +0.038 A 
ATOM     18  C   UNL     1      -2.794   1.602   1.442  0.00  0.00    +0.125 A 
ATOM     19  F   UNL     1      -2.236   0.887   2.444  0.00  0.00    -0.205 F 
ENDBRANCH   5  13
BRANCH   1  23
ATOM     20  C   UNL     1       2.442  -4.198  -2.090  0.00  0.00    +0.121 A 
ATOM     21  C   UNL     1       1.306  -4.031  -1.312  0.00  0.00    +0.047 A 
ATOM     22  C   UNL     1       0.961  -2.775  -0.854  0.00  0.00    +0.027 A 
ATOM     23  C   UNL     1       1.751  -1.679  -1.173  0.00  0.00    +0.044 A 
ATOM     24  C   UNL     1       2.884  -1.846  -1.956  0.00  0.00    +0.027 A 
ATOM     25  C   UNL     1       3.232  -3.103  -2.409  0.00  0.00    +0.047 A 
BRANCH  20  26
ATOM     26  O   UNL     1       2.781  -5.435  -2.541  0.00  0.00    -0.492 OA
BRANCH  26  28
ATOM     27  C   UNL     1       4.181  -6.991  -3.749  0.00  0.00    +0.048 C 
ATOM     28  C   UNL     1       3.963  -5.533  -3.338  0.00  0.00    +0.225 C 
ENDBRANCH  26  28
ENDBRANCH  20  26
ENDBRANCH   1  23
BRANCH   6  29
ATOM     29  C   UNL     1       2.515   4.093   0.017  0.00  0.00    -0.047 A 
ATOM     30  C   UNL     1       3.789   3.586   0.196  0.00  0.00    +0.003 A 
ATOM     31  C   UNL     1       4.809   4.415   0.625  0.00  0.00    +0.000 A 
ATOM     32  C   UNL     1       4.552   5.748   0.885  0.00  0.00    +0.000 A 
ATOM     33  C   UNL     1       3.277   6.254   0.711  0.00  0.00    +0.000 A 
ATOM     34  C   UNL     1       2.259   5.426   0.276  0.00  0.00    +0.003 A 
ENDBRANCH   6  29
BRANCH   6  35
ATOM     35  C   UNL     1       1.301   3.236  -1.959  0.00  0.00    +0.301 C 
ATOM     36  O   UNL     1       2.277   3.491  -2.625  0.00  0.00    -0.252 OA
BRANCH  35  37
ATOM     37  O   UNL     1       0.125   2.994  -2.558  0.00  0.00    -0.469 OA
ATOM     38  C   UNL     1       0.099   3.056  -4.009  0.00  0.00    +0.280 C 
ENDBRANCH  35  37
ENDBRANCH   6  35
TORSDOF 7
