REMARK  Name = ZINC03234780
REMARK  6 active torsions:
REMARK  status: ('A' for Active; 'I' for Inactive)
REMARK    1  A    between atoms: C_1  and  C_2
REMARK    2  A    between atoms: C_7  and  N_9
REMARK    3  A    between atoms: N_9  and  N_10
REMARK    4  A    between atoms: C_11  and  C_13
REMARK    5  A    between atoms: C_13  and  S_14
REMARK    6  A    between atoms: S_14  and  C_15
REMARK                            x       y       z     vdW  Elec       q    Type
REMARK                         _______ _______ _______ _____ _____    ______ ____
ROOT
ATOM      1  N   UNL     1       3.783   3.296  -0.198  0.00  0.00    -0.236 N 
ATOM      2  C   UNL     1       4.996   3.867  -0.334  0.00  0.00    +0.239 C 
ATOM      3  O   UNL     1       5.996   3.239  -0.056  0.00  0.00    -0.273 OA
ATOM      4  H   UNL     1       2.983   3.798  -0.420  0.00  0.00    +0.173 HD
ENDROOT
BRANCH   1   5
ATOM      5  N   UNL     1       3.676   1.978   0.264  0.00  0.00    -0.269 N 
ATOM      6  H   UNL     1       4.469   1.501   0.555  0.00  0.00    +0.170 HD
BRANCH   5  12
ATOM      7  C   UNL     1      -0.766   2.036  -1.220  0.00  0.00    +0.012 C 
ATOM      8  C   UNL     1      -0.019   1.527   0.014  0.00  0.00    +0.010 C 
ATOM      9  C   UNL     1       0.002  -0.003  -0.002  0.00  0.00    +0.008 C 
ATOM     10  C   UNL     1       0.964  -0.487   1.091  0.00  0.00    +0.006 C 
ATOM     11  C   UNL     1       2.388  -0.096   0.691  0.00  0.00    +0.052 C 
ATOM     12  C   UNL     1       2.436   1.354   0.304  0.00  0.00    +0.018 C 
ATOM     13  C   UNL     1       1.383   2.063   0.004  0.00  0.00    -0.004 C 
ENDBRANCH   5  12
ENDBRANCH   1   5
BRANCH   2  14
ATOM     14  C   UNL     1       5.110   5.285  -0.831  0.00  0.00    +0.176 C 
BRANCH  14  15
ATOM     15  S   UNL     1       6.855   5.760  -0.903  0.00  0.00    -0.058 S 
BRANCH  15  16
ATOM     16  C   UNL     1       6.698   7.411  -1.498  0.00  0.00    +0.258 A 
ATOM     17  N   UNL     1       5.564   8.004  -1.777  0.00  0.00    -0.203 NA
ATOM     18  C   UNL     1       5.827   9.269  -2.206  0.00  0.00    +0.110 A 
ATOM     19  C   UNL     1       5.024  10.329  -2.628  0.00  0.00    +0.031 A 
ATOM     20  C   UNL     1       5.607  11.515  -3.017  0.00  0.00    +0.002 A 
ATOM     21  C   UNL     1       6.986  11.660  -2.993  0.00  0.00    +0.004 A 
ATOM     22  C   UNL     1       7.792  10.619  -2.578  0.00  0.00    +0.048 A 
ATOM     23  C   UNL     1       7.222   9.420  -2.183  0.00  0.00    +0.156 A 
ATOM     24  O   UNL     1       7.726   8.246  -1.738  0.00  0.00    -0.431 OA
ENDBRANCH  15  16
ENDBRANCH  14  15
ENDBRANCH   2  14
TORSDOF 5
