REMARK  Name = ZINC36500774
REMARK  18 active torsions:
REMARK  status: ('A' for Active; 'I' for Inactive)
REMARK    1  A    between atoms: C_1  and  C_2
REMARK    2  A    between atoms: C_2  and  C_4
REMARK    3  A    between atoms: C_2  and  C_10
REMARK    4  A    between atoms: C_10  and  C_12
REMARK    5  A    between atoms: C_10  and  N_23
REMARK    6  A    between atoms: N_14  and  C_15
REMARK    7  A    between atoms: C_15  and  C_16
REMARK    8  A    between atoms: C_15  and  C_17
REMARK    9  A    between atoms: C_15  and  C_18
REMARK   10  A    between atoms: C_18  and  C_19
REMARK   11  A    between atoms: C_19  and  C_20
REMARK   12  A    between atoms: C_19  and  C_21
REMARK   13  A    between atoms: C_19  and  C_22
REMARK   14  A    between atoms: N_23  and  C_24
REMARK   15  A    between atoms: C_24  and  C_25
REMARK   16  A    between atoms: C_30  and  C_32
REMARK   17  A    between atoms: C_36  and  O_39
REMARK   18  A    between atoms: C_37  and  O_38
REMARK                            x       y       z     vdW  Elec       q    Type
REMARK                         _______ _______ _______ _____ _____    ______ ____
ROOT
ATOM      1  C   UNL     1      -3.008   0.514  -4.443  0.00  0.00    +0.170 C 
ENDROOT
BRANCH   1   2
ATOM      2  C   UNL     1      -2.501   1.807  -5.027  0.00  0.00    +0.235 C 
ATOM      3  O   UNL     1      -3.057   2.299  -5.986  0.00  0.00    -0.274 OA
ATOM      4  N   UNL     1      -1.429   2.418  -4.484  0.00  0.00    -0.309 N 
ATOM      5  H   UNL     1      -0.927   1.980  -3.779  0.00  0.00    +0.149 HD
BRANCH   4   6
ATOM      6  C   UNL     1      -1.022   3.743  -4.958  0.00  0.00    +0.030 C 
ATOM      7  C   UNL     1      -0.179   3.594  -6.226  0.00  0.00    +0.031 C 
ATOM      8  C   UNL     1      -2.266   4.578  -5.267  0.00  0.00    +0.031 C 
BRANCH   6   9
ATOM      9  C   UNL     1      -0.196   4.440  -3.875  0.00  0.00    +0.031 C 
BRANCH   9  10
ATOM     10  C   UNL     1      -0.492   3.801  -2.517  0.00  0.00    -0.036 C 
ATOM     11  C   UNL     1       0.358   2.539  -2.351  0.00  0.00    +0.010 C 
ATOM     12  C   UNL     1      -0.154   4.793  -1.402  0.00  0.00    +0.010 C 
ATOM     13  C   UNL     1      -1.974   3.432  -2.439  0.00  0.00    +0.010 C 
ENDBRANCH   9  10
ENDBRANCH   6   9
ENDBRANCH   4   6
ENDBRANCH   1   2
BRANCH   1  14
ATOM     14  N   UNL     1      -4.300   0.179  -5.047  0.00  0.00    -0.278 N 
ATOM     15  C   UNL     1      -5.417   0.182  -4.294  0.00  0.00    +0.251 C 
ATOM     16  O   UNL     1      -5.388   0.631  -3.165  0.00  0.00    -0.270 OA
BRANCH  15  17
ATOM     17  C   UNL     1      -6.677  -0.359  -4.841  0.00  0.00    +0.082 A 
ATOM     18  C   UNL     1      -6.649  -1.254  -5.915  0.00  0.00    +0.017 A 
ATOM     19  C   UNL     1      -7.827  -1.757  -6.422  0.00  0.00    +0.005 A 
ATOM     20  C   UNL     1      -9.043  -1.381  -5.873  0.00  0.00    +0.049 A 
ATOM     21  C   UNL     1      -9.086  -0.496  -4.810  0.00  0.00    +0.159 A 
ATOM     22  C   UNL     1      -7.904   0.017  -4.283  0.00  0.00    +0.171 A 
BRANCH  22  23
ATOM     23  O   UNL     1      -7.942   0.881  -3.236  0.00  0.00    -0.503 OA
ATOM     24  H   UNL     1      -8.001   1.810  -3.496  0.00  0.00    +0.292 HD
ENDBRANCH  22  23
BRANCH  21  25
ATOM     25  O   UNL     1     -10.283  -0.132  -4.277  0.00  0.00    -0.503 OA
ATOM     26  H   UNL     1     -10.583  -0.703  -3.557  0.00  0.00    +0.292 HD
ENDBRANCH  21  25
ENDBRANCH  15  17
BRANCH  14  27
ATOM     27  C   UNL     1      -4.376  -0.161  -6.471  0.00  0.00    +0.183 C 
BRANCH  27  28
ATOM     28  C   UNL     1      -5.601   0.477  -7.074  0.00  0.00    +0.122 A 
ATOM     29  C   UNL     1      -5.945   1.773  -6.971  0.00  0.00    +0.046 A 
ATOM     30  C   UNL     1      -7.157   1.933  -7.682  0.00  0.00    +0.041 A 
ATOM     31  C   UNL     1      -7.481   0.725  -8.177  0.00  0.00    +0.195 A 
ATOM     32  O   UNL     1      -6.532  -0.152  -7.810  0.00  0.00    -0.466 OA
ENDBRANCH  27  28
ENDBRANCH  14  27
ENDBRANCH   1  14
BRANCH   1  34
ATOM     33  C   UNL     1      -0.695  -0.316  -3.994  0.00  0.00    +0.015 C 
ATOM     34  C   UNL     1      -2.004  -0.604  -4.731  0.00  0.00    +0.045 C 
BRANCH  34  35
ATOM     35  C   UNL     1      -2.568  -1.919  -4.258  0.00  0.00    -0.042 A 
ATOM     36  C   UNL     1      -2.989  -2.059  -2.948  0.00  0.00    +0.004 A 
ATOM     37  C   UNL     1      -3.506  -3.266  -2.514  0.00  0.00    +0.000 A 
ATOM     38  C   UNL     1      -3.602  -4.332  -3.389  0.00  0.00    +0.000 A 
ATOM     39  C   UNL     1      -3.182  -4.191  -4.699  0.00  0.00    +0.000 A 
ATOM     40  C   UNL     1      -2.669  -2.983  -5.134  0.00  0.00    +0.004 A 
ENDBRANCH  34  35
ENDBRANCH   1  34
TORSDOF 12
