REMARK  Name = ZINC38240429
REMARK  10 active torsions:
REMARK  status: ('A' for Active; 'I' for Inactive)
REMARK    1  A    between atoms: C_1  and  C_2
REMARK    2  A    between atoms: C_2  and  C_4
REMARK    3  A    between atoms: C_2  and  O_23
REMARK    4  A    between atoms: C_4  and  N_5
REMARK    5  A    between atoms: N_5  and  C_6
REMARK    6  A    between atoms: C_6  and  C_7
REMARK    7  A    between atoms: C_7  and  N_8
REMARK    8  A    between atoms: N_8  and  C_9
REMARK    9  A    between atoms: C_9  and  C_10
REMARK   10  A    between atoms: C_13  and  C_15
REMARK                            x       y       z     vdW  Elec       q    Type
REMARK                         _______ _______ _______ _____ _____    ______ ____
ROOT
ATOM      1  C   UNL     1       2.224  -5.952   3.597  0.00  0.00    -0.007 C 
ENDROOT
BRANCH   1   2
ATOM      2  C   UNL     1       2.953  -6.451   4.818  0.00  0.00    +0.089 A 
ATOM      3  C   UNL     1       2.389  -6.732   6.009  0.00  0.00    +0.043 A 
ATOM      4  C   UNL     1       3.423  -7.166   6.863  0.00  0.00    +0.050 A 
ATOM      5  C   UNL     1       4.572  -7.126   6.138  0.00  0.00    +0.135 A 
ATOM      6  O   UNL     1       4.271  -6.695   4.898  0.00  0.00    -0.462 OA
BRANCH   5   7
ATOM      7  C   UNL     1       5.918  -7.495   6.624  0.00  0.00    +0.020 A 
ATOM      8  C   UNL     1       6.091  -7.939   7.936  0.00  0.00    +0.031 A 
ATOM      9  C   UNL     1       7.351  -8.284   8.385  0.00  0.00    +0.043 A 
ATOM     10  C   UNL     1       8.441  -8.189   7.536  0.00  0.00    +0.040 A 
ATOM     11  C   UNL     1       8.275  -7.749   6.234  0.00  0.00    +0.043 A 
ATOM     12  C   UNL     1       7.020  -7.407   5.772  0.00  0.00    +0.031 A 
ATOM     13 CL   UNL     1       9.648  -7.633   5.178  0.00  0.00    -0.083 Cl
ATOM     14 CL   UNL     1       7.569  -8.835  10.016  0.00  0.00    -0.083 Cl
ENDBRANCH   5   7
ENDBRANCH   1   2
BRANCH   1  15
ATOM     15  N   UNL     1       2.204  -4.483   3.605  0.00  0.00    +0.383 N 
ATOM     16  H   UNL     1       3.150  -4.134   3.598  0.00  0.00    -0.085 HD
ATOM     17  H   UNL     1       1.731  -4.157   4.435  0.00  0.00    -0.085 HD
BRANCH  15  18
ATOM     18  C   UNL     1       1.493  -3.996   2.415  0.00  0.00    -0.102 C 
BRANCH  18  19
ATOM     19  C   UNL     1       1.472  -2.466   2.424  0.00  0.00    -0.102 C 
BRANCH  19  20
ATOM     20  N   UNL     1       0.762  -1.980   1.234  0.00  0.00    +0.379 N 
ATOM     21  H   UNL     1      -0.185  -2.329   1.241  0.00  0.00    -0.086 HD
ATOM     22  H   UNL     1       1.234  -2.305   0.403  0.00  0.00    -0.086 HD
BRANCH  20  23
ATOM     23  C   UNL     1       0.742  -0.511   1.242  0.00  0.00    -0.051 C 
BRANCH  23  25
ATOM     24  C   UNL     1      -0.019   1.526   0.010  0.00  0.00    +0.035 C 
ATOM     25  C   UNL     1       0.002  -0.004   0.002  0.00  0.00    +0.095 C 
BRANCH  25  26
ATOM     26  O   UNL     1       0.671  -0.465  -1.174  0.00  0.00    -0.394 OA
ATOM     27  H   UNL     1       1.588  -0.167  -1.247  0.00  0.00    +0.210 HD
ENDBRANCH  25  26
ENDBRANCH  23  25
ENDBRANCH  20  23
ENDBRANCH  19  20
ENDBRANCH  18  19
ENDBRANCH  15  18
ENDBRANCH   1  15
TORSDOF 9
