REMARK  Name = ZINC05092102
REMARK  13 active torsions:
REMARK  status: ('A' for Active; 'I' for Inactive)
REMARK    1  A    between atoms: C_1  and  C_2
REMARK    2  A    between atoms: C_5  and  O_9
REMARK    3  A    between atoms: C_6  and  C_8
REMARK    4  A    between atoms: O_9  and  C_10
REMARK    5  A    between atoms: C_10  and  C_11
REMARK    6  A    between atoms: C_11  and  C_13
REMARK    7  A    between atoms: C_11  and  O_24
REMARK    8  A    between atoms: C_13  and  N_57
REMARK    9  A    between atoms: C_14  and  C_22
REMARK   10  A    between atoms: C_14  and  C_23
REMARK   11  A    between atoms: C_16  and  O_21
REMARK   12  A    between atoms: C_18  and  C_19
REMARK   13  A    between atoms: C_18  and  C_20
REMARK                            x       y       z     vdW  Elec       q    Type
REMARK                         _______ _______ _______ _____ _____    ______ ____
ROOT
ATOM      1  C   UNL     1      -0.597  -0.574   1.337  0.00  0.00    -0.042 C 
ENDROOT
BRANCH   1  11
ATOM      2  C   UNL     1      -0.680   1.378   2.767  0.00  0.00    -0.068 C 
ATOM      3  C   UNL     1      -0.453   1.952   4.163  0.00  0.00    +0.019 C 
ATOM      4  C   UNL     1       0.881   1.464   4.728  0.00  0.00    +0.112 C 
ATOM      5  C   UNL     1       0.847  -0.061   4.807  0.00  0.00    +0.019 C 
ATOM      6  C   UNL     1       0.633  -0.661   3.420  0.00  0.00    -0.068 C 
ATOM      7  C   UNL     1       0.318  -2.163   3.606  0.00  0.00    -0.010 C 
ATOM      8  C   UNL     1       1.934  -0.568   2.615  0.00  0.00    -0.010 C 
ATOM      9  C   UNL     1       0.210   2.113   1.759  0.00  0.00    -0.010 C 
ATOM     10  C   UNL     1      -2.147   1.667   2.378  0.00  0.00    -0.010 C 
ATOM     11  N   UNL     1      -0.575  -0.109   2.723  0.00  0.00    +0.388 N 
ATOM     12  H   UNL     1      -1.402  -0.486   3.199  0.00  0.00    -0.080 HD
BRANCH   4  13
ATOM     13  O   UNL     1       1.060   2.001   6.044  0.00  0.00    -0.392 OA
ATOM     14  H   UNL     1       1.092   2.967   6.074  0.00  0.00    +0.210 HD
ENDBRANCH   4  13
ENDBRANCH   1  11
BRANCH   1  15
ATOM     15  C   UNL     1      -1.432  -1.856   1.354  0.00  0.00    +0.135 C 
BRANCH  15  16
ATOM     16  O   UNL     1      -2.714  -1.582   1.922  0.00  0.00    -0.390 OA
ATOM     17  H   UNL     1      -3.213  -0.897   1.456  0.00  0.00    +0.210 HD
ENDBRANCH  15  16
BRANCH  15  18
ATOM     18  C   UNL     1      -1.607  -2.370  -0.076  0.00  0.00    +0.258 C 
BRANCH  18  19
ATOM     19  O   UNL     1      -2.286  -3.627  -0.051  0.00  0.00    -0.489 OA
BRANCH  19  24
ATOM     20  C   UNL     1      -3.266  -6.104  -5.013  0.00  0.00    +0.044 C 
ATOM     21  C   UNL     1      -3.004  -5.441  -3.686  0.00  0.00    -0.050 A 
ATOM     22  C   UNL     1      -2.352  -4.223  -3.639  0.00  0.00    +0.007 A 
ATOM     23  C   UNL     1      -2.110  -3.613  -2.424  0.00  0.00    +0.046 A 
ATOM     24  C   UNL     1      -2.522  -4.225  -1.248  0.00  0.00    +0.124 A 
ATOM     25  C   UNL     1      -3.172  -5.449  -1.297  0.00  0.00    -0.009 A 
ATOM     26  C   UNL     1      -3.416  -6.053  -2.516  0.00  0.00    +0.010 A 
ATOM     27  C   UNL     1      -3.616  -6.119  -0.022  0.00  0.00    +0.047 C 
ENDBRANCH  19  24
ENDBRANCH  18  19
ENDBRANCH  15  18
ENDBRANCH   1  15
TORSDOF 7
