REMARK  Name = ZINC01436715
REMARK  10 active torsions:
REMARK  status: ('A' for Active; 'I' for Inactive)
REMARK    1  A    between atoms: C_1  and  C_2
REMARK    2  A    between atoms: C_6  and  N_9
REMARK    3  A    between atoms: C_7  and  C_8
REMARK    4  A    between atoms: C_10  and  C_12
REMARK    5  A    between atoms: C_12  and  C_14
REMARK    6  A    between atoms: C_12  and  N_25
REMARK    7  A    between atoms: C_14  and  C_15
REMARK    8  A    between atoms: C_26  and  O_28
REMARK    9  A    between atoms: O_28  and  C_29
REMARK   10  A    between atoms: C_29  and  C_30
REMARK                            x       y       z     vdW  Elec       q    Type
REMARK                         _______ _______ _______ _____ _____    ______ ____
ROOT
ATOM      1  C   UNL     1       2.419   1.179  -0.028  0.00  0.00    +0.167 C 
ENDROOT
BRANCH   1   3
ATOM      2  N   UNL     1       4.748   1.616  -0.739  0.00  0.00    -0.284 N 
ATOM      3  C   UNL     1       3.482   2.066  -0.623  0.00  0.00    +0.238 C 
ATOM      4  O   UNL     1       3.200   3.184  -0.998  0.00  0.00    -0.273 OA
ATOM      5  H   UNL     1       4.992   0.754  -0.367  0.00  0.00    +0.155 HD
BRANCH   2  11
ATOM      6  C   UNL     1       9.464   2.822  -1.425  0.00  0.00    +0.044 C 
ATOM      7  C   UNL     1       8.002   2.998  -1.747  0.00  0.00    -0.046 A 
ATOM      8  C   UNL     1       7.610   3.927  -2.694  0.00  0.00    +0.004 A 
ATOM      9  C   UNL     1       6.270   4.090  -2.993  0.00  0.00    +0.002 A 
ATOM     10  C   UNL     1       5.319   3.326  -2.346  0.00  0.00    +0.023 A 
ATOM     11  C   UNL     1       5.709   2.392  -1.396  0.00  0.00    +0.037 A 
ATOM     12  C   UNL     1       7.056   2.235  -1.093  0.00  0.00    -0.026 A 
ATOM     13  C   UNL     1       7.483   1.227  -0.058  0.00  0.00    +0.046 C 
ENDBRANCH   2  11
ENDBRANCH   1   3
BRANCH   1  14
ATOM     14  N   UNL     1       1.140   1.894  -0.013  0.00  0.00    -0.269 N 
ATOM     15  C   UNL     1      -0.018   1.204  -0.016  0.00  0.00    +0.401 C 
ATOM     16  O   UNL     1      -0.000  -0.011  -0.030  0.00  0.00    -0.226 OA
ATOM     17  H   UNL     1       1.126   2.864  -0.002  0.00  0.00    +0.153 HD
BRANCH  15  18
ATOM     18  O   UNL     1      -1.193   1.860  -0.008  0.00  0.00    -0.446 OA
BRANCH  18  19
ATOM     19  C   UNL     1      -2.399   1.052  -0.017  0.00  0.00    +0.269 C 
BRANCH  19  20
ATOM     20  C   UNL     1      -3.607   1.953  -0.006  0.00  0.00    -0.010 A 
ATOM     21  C   UNL     1      -4.165   2.348   1.196  0.00  0.00    +0.007 A 
ATOM     22  C   UNL     1      -5.270   3.178   1.206  0.00  0.00    +0.000 A 
ATOM     23  C   UNL     1      -5.824   3.606   0.014  0.00  0.00    +0.000 A 
ATOM     24  C   UNL     1      -5.270   3.207  -1.188  0.00  0.00    +0.000 A 
ATOM     25  C   UNL     1      -4.162   2.381  -1.198  0.00  0.00    +0.007 A 
ENDBRANCH  19  20
ENDBRANCH  18  19
ENDBRANCH  15  18
ENDBRANCH   1  14
BRANCH   1  26
ATOM     26  C   UNL     1       2.810   0.804   1.403  0.00  0.00    +0.069 C 
BRANCH  26  27
ATOM     27  C   UNL     1       1.810  -0.179   1.955  0.00  0.00    -0.020 A 
ATOM     28  C   UNL     1       0.735   0.111   2.704  0.00  0.00    +0.087 A 
ATOM     29  N   UNL     1       0.062  -1.038   3.019  0.00  0.00    -0.360 N 
ATOM     30  H   UNL     1      -0.747  -1.082   3.553  0.00  0.00    +0.165 HD
ATOM     31  C   UNL     1       0.705  -2.123   2.466  0.00  0.00    +0.047 A 
ATOM     32  C   UNL     1       1.825  -1.633   1.771  0.00  0.00    +0.003 A 
ATOM     33  C   UNL     1       2.670  -2.517   1.098  0.00  0.00    +0.010 A 
ATOM     34  C   UNL     1       2.402  -3.857   1.117  0.00  0.00    +0.001 A 
ATOM     35  C   UNL     1       1.296  -4.346   1.799  0.00  0.00    +0.002 A 
ATOM     36  C   UNL     1       0.454  -3.491   2.475  0.00  0.00    +0.026 A 
ENDBRANCH  26  27
ENDBRANCH   1  26
TORSDOF 8
