REMARK  Name = ZINC02485480
REMARK  4 active torsions:
REMARK  status: ('A' for Active; 'I' for Inactive)
REMARK    1  A    between atoms: C_1  and  C_2
REMARK    2  A    between atoms: C_7  and  C_15
REMARK    3  A    between atoms: C_9  and  C_13
REMARK    4  A    between atoms: C_10  and  N_12
REMARK                            x       y       z     vdW  Elec       q    Type
REMARK                         _______ _______ _______ _____ _____    ______ ____
ROOT
ATOM      1  C   UNL     1       2.352   4.149  -0.607  0.00  0.00    +0.008 C 
ATOM      2  C   UNL     1       1.062   3.329  -0.666  0.00  0.00    +0.001 C 
ATOM      3  C   UNL     1      -0.052   4.059   0.087  0.00  0.00    +0.078 C 
ATOM      4  C   UNL     1      -1.313   3.229   0.059  0.00  0.00    +0.115 C 
ATOM      5  C   UNL     1      -1.250   1.885   0.018  0.00  0.00    +0.046 C 
ATOM      6  C   UNL     1      -2.512   1.057  -0.003  0.00  0.00    +0.101 C 
ATOM      7  C   UNL     1      -3.676   1.905  -0.434  0.00  0.00    +0.098 C 
ATOM      8  C   UNL     1      -3.599   3.257  -0.374  0.00  0.00    +0.198 C 
ATOM      9  O   UNL     1      -2.495   3.875   0.072  0.00  0.00    -0.445 OA
ATOM     10  C   UNL     1      -0.014   1.210   0.009  0.00  0.00    +0.164 C 
ATOM     11  O   UNL     1       0.002  -0.004   0.002  0.00  0.00    -0.292 OA
ATOM     12  C   UNL     1       1.286   1.967   0.000  0.00  0.00    +0.083 C 
ENDROOT
BRANCH   6  13
ATOM     13  C   UNL     1      -2.777   0.509   1.376  0.00  0.00    -0.034 A 
ATOM     14  C   UNL     1      -2.968   1.373   2.438  0.00  0.00    +0.005 A 
ATOM     15  C   UNL     1      -3.216   0.870   3.702  0.00  0.00    +0.015 A 
ATOM     16  C   UNL     1      -3.261  -0.497   3.905  0.00  0.00    +0.018 A 
ATOM     17  C   UNL     1      -3.064  -1.361   2.843  0.00  0.00    +0.015 A 
ATOM     18  C   UNL     1      -2.822  -0.858   1.579  0.00  0.00    +0.005 A 
ATOM     19 BR   UNL     1      -3.593  -1.185   5.635  0.00  0.00    -0.050 Br
ENDBRANCH   6  13
BRANCH   8  20
ATOM     20  N   UNL     1      -4.674   4.010  -0.778  0.00  0.00    -0.328 N 
ATOM     21  H   UNL     1      -4.629   4.978  -0.740  0.00  0.00    +0.145 HD
ATOM     22  H   UNL     1      -5.477   3.574  -1.102  0.00  0.00    +0.145 HD
ENDBRANCH   8  20
BRANCH   7  23
ATOM     23  C   UNL     1      -4.874   1.281  -0.911  0.00  0.00    +0.101 C 
ATOM     24  N   UNL     1      -5.823   0.786  -1.290  0.00  0.00    -0.191 NA
ENDBRANCH   7  23
TORSDOF 3
