REMARK  Name = ZINC38725734
REMARK  15 active torsions:
REMARK  status: ('A' for Active; 'I' for Inactive)
REMARK    1  A    between atoms: C_1  and  C_2
REMARK    2  A    between atoms: C_2  and  N_3
REMARK    3  A    between atoms: N_3  and  C_4
REMARK    4  A    between atoms: N_3  and  C_6
REMARK    5  A    between atoms: C_4  and  C_5
REMARK    6  A    between atoms: C_6  and  C_7
REMARK    7  A    between atoms: C_7  and  C_8
REMARK    8  A    between atoms: C_8  and  N_9
REMARK    9  A    between atoms: C_10  and  C_27
REMARK   10  A    between atoms: C_18  and  O_25
REMARK   11  A    between atoms: O_25  and  C_26
REMARK   12  A    between atoms: C_30  and  O_33
REMARK   13  A    between atoms: O_33  and  C_34
REMARK   14  A    between atoms: C_34  and  C_35
REMARK   15  A    between atoms: C_34  and  C_36
REMARK                            x       y       z     vdW  Elec       q    Type
REMARK                         _______ _______ _______ _____ _____    ______ ____
ROOT
ATOM      1  N   UNL     1       2.912  -3.443  -0.938  0.00  0.00    -0.284 N 
ATOM      2  C   UNL     1       2.292  -3.998  -2.152  0.00  0.00    +0.144 C 
ATOM      3  C   UNL     1       3.420  -4.494  -2.996  0.00  0.00    +0.072 A 
ATOM      4  C   UNL     1       3.430  -5.152  -4.307  0.00  0.00    +0.199 A 
ATOM      5  O   UNL     1       2.442  -5.244  -5.015  0.00  0.00    -0.287 OA
ATOM      6  C   UNL     1       4.755  -5.695  -4.690  0.00  0.00    +0.065 A 
ATOM      7  C   UNL     1       4.884  -6.519  -5.810  0.00  0.00    +0.019 A 
ATOM      8  C   UNL     1       6.109  -7.016  -6.149  0.00  0.00    +0.046 A 
ATOM      9  C   UNL     1       7.229  -6.704  -5.380  0.00  0.00    +0.124 A 
ATOM     10  C   UNL     1       7.118  -5.888  -4.269  0.00  0.00    +0.092 A 
ATOM     11  C   UNL     1       5.878  -5.368  -3.908  0.00  0.00    +0.143 A 
ATOM     12  O   UNL     1       5.793  -4.564  -2.824  0.00  0.00    -0.449 OA
ATOM     13  C   UNL     1       4.583  -4.241  -2.326  0.00  0.00    +0.199 A 
ATOM     14  C   UNL     1       4.249  -3.585  -1.050  0.00  0.00    +0.283 C 
ATOM     15  O   UNL     1       5.059  -3.227  -0.219  0.00  0.00    -0.267 OA
ENDROOT
BRANCH   2  16
ATOM     16  C   UNL     1       1.528  -2.924  -2.883  0.00  0.00    -0.022 A 
ATOM     17  C   UNL     1       2.054  -1.649  -2.983  0.00  0.00    +0.009 A 
ATOM     18  C   UNL     1       1.356  -0.663  -3.652  0.00  0.00    +0.046 A 
ATOM     19  C   UNL     1       0.126  -0.952  -4.225  0.00  0.00    +0.121 A 
ATOM     20  C   UNL     1      -0.400  -2.232  -4.124  0.00  0.00    +0.046 A 
ATOM     21  C   UNL     1       0.305  -3.216  -3.458  0.00  0.00    +0.009 A 
BRANCH  19  22
ATOM     22  O   UNL     1      -0.563   0.017  -4.883  0.00  0.00    -0.489 OA
BRANCH  22  23
ATOM     23  C   UNL     1      -1.763  -0.380  -5.550  0.00  0.00    +0.167 C 
ATOM     24  C   UNL     1      -2.928  -0.361  -4.559  0.00  0.00    +0.051 C 
ATOM     25  C   UNL     1      -2.053   0.590  -6.697  0.00  0.00    +0.051 C 
ENDBRANCH  22  23
ENDBRANCH  19  22
ENDBRANCH   2  16
BRANCH   9  26
ATOM     26  O   UNL     1       8.442  -7.207  -5.725  0.00  0.00    -0.495 OA
ATOM     27  C   UNL     1       8.492  -8.044  -6.882  0.00  0.00    +0.277 C 
ENDBRANCH   9  26
BRANCH   1  28
ATOM     28  C   UNL     1       2.202  -2.837   0.191  0.00  0.00    +0.107 C 
BRANCH  28  29
ATOM     29  C   UNL     1       2.039  -1.336  -0.055  0.00  0.00    +0.000 C 
BRANCH  29  30
ATOM     30  C   UNL     1       1.298  -0.703   1.124  0.00  0.00    -0.077 C 
BRANCH  30  31
ATOM     31  N   UNL     1       1.141   0.738   0.888  0.00  0.00    +0.379 N 
ATOM     32  H   UNL     1       2.046   1.150   0.713  0.00  0.00    -0.082 HD
BRANCH  31  34
ATOM     33  C   UNL     1       0.200   2.447  -0.592  0.00  0.00    -0.017 C 
ATOM     34  C   UNL     1       0.272   0.952  -0.277  0.00  0.00    -0.082 C 
ENDBRANCH  31  34
BRANCH  31  35
ATOM     35  C   UNL     1       0.538   1.365   2.071  0.00  0.00    -0.082 C 
ATOM     36  C   UNL     1       1.500   1.253   3.255  0.00  0.00    -0.017 C 
ENDBRANCH  31  35
ENDBRANCH  30  31
ENDBRANCH  29  30
ENDBRANCH  28  29
ENDBRANCH   1  28
TORSDOF 10
