REMARK  Name = ZINC60410023
REMARK  5 active torsions:
REMARK  status: ('A' for Active; 'I' for Inactive)
REMARK    1  A    between atoms: C_2  and  N_12
REMARK    2  A    between atoms: C_4  and  S_8
REMARK    3  A    between atoms: S_8  and  N_11
REMARK    4  A    between atoms: C_13  and  C_15
REMARK    5  A    between atoms: C_15  and  C_16
REMARK                            x       y       z     vdW  Elec       q    Type
REMARK                         _______ _______ _______ _____ _____    ______ ____
ROOT
ATOM      1  N   UNL     1       1.162   3.487   0.009  0.00  0.00    -0.285 N 
ATOM      2  C   UNL     1      -0.009   4.148  -0.078  0.00  0.00    +0.222 C 
ATOM      3  O   UNL     1      -1.054   3.534  -0.072  0.00  0.00    -0.275 OA
ATOM      4  H   UNL     1       1.994   3.980   0.081  0.00  0.00    +0.155 HD
ENDROOT
BRANCH   1   6
ATOM      5  C   UNL     1       0.238   1.388  -0.749  0.00  0.00    +0.061 A 
ATOM      6  C   UNL     1       1.178   2.087  -0.004  0.00  0.00    +0.038 A 
ATOM      7  C   UNL     1       2.134   1.396   0.729  0.00  0.00    +0.052 A 
ATOM      8  C   UNL     1       2.148   0.015   0.714  0.00  0.00    +0.109 A 
ATOM      9  C   UNL     1       1.212  -0.681  -0.028  0.00  0.00    +0.067 A 
ATOM     10  C   UNL     1       0.257   0.005  -0.760  0.00  0.00    +0.127 A 
ATOM     11  F   UNL     1      -0.657  -0.677  -1.485  0.00  0.00    -0.205 F 
BRANCH   8  12
ATOM     12  S   UNL     1       3.362  -0.862   1.643  0.00  0.00    +0.056 S 
ATOM     13  O   UNL     1       3.500  -2.136   1.030  0.00  0.00    -0.153 OA
ATOM     14  O   UNL     1       4.459   0.024   1.816  0.00  0.00    -0.153 OA
BRANCH  12  15
ATOM     15  N   UNL     1       2.727  -1.129   3.149  0.00  0.00    -0.204 NA
ATOM     16  H   UNL     1       2.990  -1.914   3.654  0.00  0.00    +0.144 HD
ATOM     17  H   UNL     1       2.092  -0.500   3.526  0.00  0.00    +0.144 HD
ENDBRANCH  12  15
ENDBRANCH   8  12
ENDBRANCH   1   6
BRANCH   2  18
ATOM     18  C   UNL     1      -0.019   5.651  -0.184  0.00  0.00    +0.135 C 
BRANCH  18  19
ATOM     19  C   UNL     1      -1.442   6.140  -0.268  0.00  0.00    +0.007 A 
ATOM     20  C   UNL     1      -2.136   6.408  -1.382  0.00  0.00    +0.200 A 
ATOM     21  O   UNL     1      -3.376   6.822  -1.068  0.00  0.00    -0.463 OA
ATOM     22  C   UNL     1      -3.551   6.843   0.269  0.00  0.00    +0.135 A 
ATOM     23  C   UNL     1      -2.349   6.410   0.854  0.00  0.00    +0.024 A 
ATOM     24  C   UNL     1      -2.238   6.327   2.240  0.00  0.00    +0.015 A 
ATOM     25  C   UNL     1      -3.312   6.665   3.037  0.00  0.00    -0.043 A 
ATOM     26  C   UNL     1      -4.502   7.089   2.461  0.00  0.00    -0.041 A 
ATOM     27  C   UNL     1      -4.619   7.182   1.087  0.00  0.00    +0.050 A 
ATOM     28  C   UNL     1      -5.511   7.396   3.548  0.00  0.00    +0.036 C 
ATOM     29  C   UNL     1      -4.966   6.702   4.814  0.00  0.00    +0.009 C 
ATOM     30  C   UNL     1      -3.447   6.661   4.545  0.00  0.00    +0.036 C 
ENDBRANCH  18  19
ENDBRANCH   2  18
TORSDOF 5
