REMARK  Name = ZINC01716040
REMARK  4 active torsions:
REMARK  status: ('A' for Active; 'I' for Inactive)
REMARK    1  A    between atoms: C_1  and  C_2
REMARK    2  A    between atoms: C_6  and  C_8
REMARK    3  A    between atoms: C_18  and  C_20
REMARK    4  A    between atoms: C_24  and  C_26
REMARK                            x       y       z     vdW  Elec       q    Type
REMARK                         _______ _______ _______ _____ _____    ______ ____
ROOT
ATOM      1  C   UNL     1      -4.220   2.462   2.343  0.00  0.00    +0.216 C 
ATOM      2  N   UNL     1      -4.875   1.502   1.443  0.00  0.00    -0.274 N 
ATOM      3  C   UNL     1      -5.728   0.771   2.182  0.00  0.00    +0.322 C 
ATOM      4  O   UNL     1      -6.429  -0.116   1.734  0.00  0.00    -0.251 OA
ATOM      5  N   UNL     1      -5.713   1.138   3.470  0.00  0.00    -0.173 N 
ATOM      6  N   UNL     1      -4.802   2.189   3.668  0.00  0.00    -0.173 N 
ATOM      7  C   UNL     1      -4.787   2.554   4.955  0.00  0.00    +0.322 C 
ATOM      8  O   UNL     1      -4.086   3.440   5.403  0.00  0.00    -0.251 OA
ATOM      9  N   UNL     1      -5.641   1.823   5.694  0.00  0.00    -0.274 N 
ATOM     10  C   UNL     1      -6.296   0.862   4.794  0.00  0.00    +0.216 C 
ATOM     11  H   UNL     1      -4.720   1.411   0.490  0.00  0.00    +0.152 HD
ATOM     12  H   UNL     1      -5.796   1.914   6.647  0.00  0.00    +0.152 HD
ENDROOT
BRANCH   1  18
ATOM     13  C   UNL     1      -0.013   1.086   0.008  0.00  0.00    +0.044 C 
ATOM     14  C   UNL     1      -0.718   1.572   1.248  0.00  0.00    -0.050 A 
ATOM     15  C   UNL     1       0.001   1.806   2.405  0.00  0.00    +0.003 A 
ATOM     16  C   UNL     1      -0.646   2.252   3.542  0.00  0.00    +0.001 A 
ATOM     17  C   UNL     1      -2.012   2.464   3.522  0.00  0.00    +0.007 A 
ATOM     18  C   UNL     1      -2.731   2.230   2.365  0.00  0.00    -0.007 A 
ATOM     19  C   UNL     1      -2.083   1.789   1.226  0.00  0.00    +0.010 A 
ENDBRANCH   1  18
BRANCH  10  20
ATOM     20  C   UNL     1      -5.992  -0.551   5.219  0.00  0.00    -0.007 A 
ATOM     21  C   UNL     1      -5.841  -1.542   4.266  0.00  0.00    +0.007 A 
ATOM     22  C   UNL     1      -5.561  -2.838   4.655  0.00  0.00    +0.001 A 
ATOM     23  C   UNL     1      -5.432  -3.144   5.997  0.00  0.00    +0.003 A 
ATOM     24  C   UNL     1      -5.582  -2.154   6.950  0.00  0.00    -0.050 A 
ATOM     25  C   UNL     1      -5.857  -0.857   6.560  0.00  0.00    +0.010 A 
ATOM     26  C   UNL     1      -5.441  -2.488   8.412  0.00  0.00    +0.044 C 
ENDBRANCH  10  20
TORSDOF 2
