REMARK  Name = ZINC48025306
REMARK  12 active torsions:
REMARK  status: ('A' for Active; 'I' for Inactive)
REMARK    1  A    between atoms: C_1  and  C_2
REMARK    2  A    between atoms: C_2  and  C_3
REMARK    3  A    between atoms: C_2  and  C_4
REMARK    4  A    between atoms: C_7  and  C_10
REMARK    5  A    between atoms: C_10  and  C_12
REMARK    6  A    between atoms: C_10  and  N_15
REMARK    7  A    between atoms: C_12  and  C_13
REMARK    8  A    between atoms: C_12  and  C_14
REMARK    9  A    between atoms: C_16  and  C_18
REMARK   10  A    between atoms: C_18  and  N_19
REMARK   11  A    between atoms: C_22  and  C_25
REMARK   12  A    between atoms: C_25  and  C_26
REMARK                            x       y       z     vdW  Elec       q    Type
REMARK                         _______ _______ _______ _____ _____    ______ ____
ROOT
ATOM      1  N   UNL     1       1.898  -1.880   5.840  0.00  0.00    -0.310 N 
ATOM      2  C   UNL     1       2.405  -1.784   7.085  0.00  0.00    +0.197 C 
ATOM      3  O   UNL     1       3.606  -1.731   7.248  0.00  0.00    -0.278 OA
ATOM      4  H   UNL     1       0.938  -1.922   5.709  0.00  0.00    +0.149 HD
ENDROOT
BRANCH   1   5
ATOM      5  C   UNL     1       2.797  -1.919   4.683  0.00  0.00    +0.106 C 
BRANCH   5   9
ATOM      6  C   UNL     1       0.731  -0.503   1.223  0.00  0.00    -0.045 A 
ATOM      7  C   UNL     1       2.050  -0.148   1.434  0.00  0.00    +0.004 A 
ATOM      8  C   UNL     1       2.719  -0.606   2.554  0.00  0.00    +0.006 A 
ATOM      9  C   UNL     1       2.068  -1.419   3.463  0.00  0.00    -0.027 A 
ATOM     10  C   UNL     1       0.749  -1.773   3.252  0.00  0.00    +0.006 A 
ATOM     11  C   UNL     1       0.079  -1.312   2.135  0.00  0.00    +0.004 A 
BRANCH   6  13
ATOM     12  C   UNL     1      -0.019   1.526   0.010  0.00  0.00    +0.012 C 
ATOM     13  C   UNL     1       0.002  -0.004   0.002  0.00  0.00    +0.013 C 
ATOM     14  C   UNL     1       0.718  -0.497  -1.257  0.00  0.00    +0.012 C 
ENDBRANCH   6  13
ENDBRANCH   5   9
BRANCH   5  15
ATOM     15  C   UNL     1       3.261  -3.357   4.447  0.00  0.00    +0.008 C 
ATOM     16  C   UNL     1       4.001  -3.865   5.686  0.00  0.00    +0.009 C 
ATOM     17  C   UNL     1       2.046  -4.247   4.178  0.00  0.00    +0.009 C 
ENDBRANCH   5  15
ENDBRANCH   1   5
BRANCH   2  18
ATOM     18  C   UNL     1       1.481  -1.744   8.274  0.00  0.00    +0.019 C 
BRANCH  18  19
ATOM     19  N   UNL     1       2.273  -1.639   9.507  0.00  0.00    +0.385 N 
ATOM     20  C   UNL     1       3.080  -2.853   9.673  0.00  0.00    -0.078 C 
ATOM     21  C   UNL     1       3.967  -2.715  10.912  0.00  0.00    -0.015 C 
ATOM     22  C   UNL     1       3.083  -2.515  12.146  0.00  0.00    -0.006 C 
ATOM     23  C   UNL     1       2.193  -1.288  11.930  0.00  0.00    -0.015 C 
ATOM     24  C   UNL     1       1.371  -1.479  10.654  0.00  0.00    -0.078 C 
ATOM     25  H   UNL     1       2.883  -0.838   9.446  0.00  0.00    -0.081 HD
BRANCH  22  26
ATOM     26  C   UNL     1       3.966  -2.297  13.377  0.00  0.00    +0.099 C 
BRANCH  26  27
ATOM     27  C   UNL     1       3.100  -2.223  14.608  0.00  0.00    +0.211 C 
ATOM     28  O   UNL     1       1.896  -2.333  14.511  0.00  0.00    -0.276 OA
ATOM     29  N   UNL     1       3.664  -2.033  15.818  0.00  0.00    -0.329 N 
ATOM     30  H   UNL     1       4.627  -1.945  15.896  0.00  0.00    +0.145 HD
ATOM     31  H   UNL     1       3.107  -1.985  16.610  0.00  0.00    +0.145 HD
ENDBRANCH  26  27
ENDBRANCH  22  26
ENDBRANCH  18  19
ENDBRANCH   2  18
TORSDOF 8
