REMARK  Name = ZINC30822724
REMARK  10 active torsions:
REMARK  status: ('A' for Active; 'I' for Inactive)
REMARK    1  A    between atoms: C_1  and  C_2
REMARK    2  A    between atoms: C_2  and  O_3
REMARK    3  A    between atoms: O_3  and  C_4
REMARK    4  A    between atoms: C_4  and  C_6
REMARK    5  A    between atoms: C_7  and  C_8
REMARK    6  A    between atoms: C_7  and  N_9
REMARK    7  A    between atoms: N_9  and  N_10
REMARK    8  A    between atoms: C_13  and  C_31
REMARK    9  A    between atoms: C_17  and  C_25
REMARK   10  A    between atoms: C_21  and  C_24
REMARK                            x       y       z     vdW  Elec       q    Type
REMARK                         _______ _______ _______ _____ _____    ______ ____
ROOT
ATOM      1  N   UNL     1      -1.276   6.526   0.335  0.00  0.00    -0.276 N 
ATOM      2  C   UNL     1      -0.147   5.936   0.645  0.00  0.00    +0.212 A 
ATOM      3  C   UNL     1      -0.052   4.530   0.530  0.00  0.00    +0.076 A 
ATOM      4  C   UNL     1       1.119   3.904   0.850  0.00  0.00    -0.002 A 
ATOM      5  C   UNL     1       2.250   4.734   1.314  0.00  0.00    +0.026 A 
ATOM      6  C   UNL     1       3.467   4.152   1.647  0.00  0.00    +0.024 A 
ATOM      7  C   UNL     1       4.514   4.958   2.075  0.00  0.00    +0.029 A 
ATOM      8  C   UNL     1       5.902   4.697   2.503  0.00  0.00    +0.028 A 
ATOM      9  C   UNL     1       6.431   5.905   2.802  0.00  0.00    +0.204 A 
ATOM     10  O   UNL     1       5.517   6.869   2.602  0.00  0.00    -0.462 OA
ATOM     11  C   UNL     1       4.350   6.352   2.165  0.00  0.00    +0.142 A 
ATOM     12  C   UNL     1       3.131   6.925   1.824  0.00  0.00    +0.035 A 
ATOM     13  C   UNL     1       2.084   6.128   1.398  0.00  0.00    +0.144 A 
ATOM     14  O   UNL     1       0.895   6.686   1.065  0.00  0.00    -0.438 OA
ATOM     15  C   UNL     1       2.949   8.418   1.920  0.00  0.00    +0.051 C 
ATOM     16  H   UNL     1      -1.337   7.625   0.327  0.00  0.00    +0.187 HD
ENDROOT
BRANCH   8  17
ATOM     17  C   UNL     1       6.577   3.380   2.589  0.00  0.00    -0.014 A 
ATOM     18  C   UNL     1       5.965   2.322   3.259  0.00  0.00    +0.008 A 
ATOM     19  C   UNL     1       6.596   1.097   3.332  0.00  0.00    +0.001 A 
ATOM     20  C   UNL     1       7.838   0.920   2.749  0.00  0.00    +0.000 A 
ATOM     21  C   UNL     1       8.453   1.968   2.087  0.00  0.00    +0.001 A 
ATOM     22  C   UNL     1       7.829   3.196   2.004  0.00  0.00    +0.008 A 
ENDBRANCH   8  17
BRANCH   4  23
ATOM     23  C   UNL     1       1.249   2.434   0.741  0.00  0.00    -0.017 A 
ATOM     24  C   UNL     1       1.934   1.717   1.723  0.00  0.00    +0.008 A 
ATOM     25  C   UNL     1       2.053   0.346   1.615  0.00  0.00    +0.001 A 
ATOM     26  C   UNL     1       1.494  -0.316   0.536  0.00  0.00    +0.000 A 
ATOM     27  C   UNL     1       0.815   0.389  -0.441  0.00  0.00    +0.001 A 
ATOM     28  C   UNL     1       0.689   1.760  -0.345  0.00  0.00    +0.008 A 
ENDBRANCH   4  23
BRANCH   1  29
ATOM     29  N   UNL     1      -2.403   5.759   0.015  0.00  0.00    -0.262 N 
ATOM     30  H   UNL     1      -2.368   4.664   0.110  0.00  0.00    +0.172 HD
BRANCH  29  32
ATOM     31  C   UNL     1      -3.585   7.718  -0.528  0.00  0.00    +0.111 C 
ATOM     32  C   UNL     1      -3.542   6.369  -0.412  0.00  0.00    +0.027 C 
ATOM     33  C   UNL     1      -4.755   5.544  -0.756  0.00  0.00    +0.062 C 
BRANCH  31  34
ATOM     34  C   UNL     1      -4.804   8.361  -0.822  0.00  0.00    +0.333 C 
ATOM     35  O   UNL     1      -5.841   7.723  -0.838  0.00  0.00    -0.246 OA
BRANCH  34  36
ATOM     36  O   UNL     1      -4.822   9.686  -1.086  0.00  0.00    -0.462 OA
BRANCH  36  38
ATOM     37  C   UNL     1      -5.914  11.767  -1.647  0.00  0.00    +0.048 C 
ATOM     38  C   UNL     1      -6.093  10.272  -1.376  0.00  0.00    +0.229 C 
ENDBRANCH  36  38
ENDBRANCH  34  36
ENDBRANCH  31  34
ENDBRANCH  29  32
ENDBRANCH   1  29
TORSDOF 7
