REMARK  Name = ZINC03664085
REMARK  5 active torsions:
REMARK  status: ('A' for Active; 'I' for Inactive)
REMARK    1  A    between atoms: C_1  and  C_2
REMARK    2  A    between atoms: C_2  and  C_23
REMARK    3  A    between atoms: N_12  and  N_13
REMARK    4  A    between atoms: C_14  and  C_15
REMARK    5  A    between atoms: C_27  and  N_29
REMARK                            x       y       z     vdW  Elec       q    Type
REMARK                         _______ _______ _______ _____ _____    ______ ____
ROOT
ATOM      1  C   UNL     1      -2.994   0.704  -1.415  0.00  0.00    +0.060 C 
ATOM      2  C   UNL     1      -2.529   0.962   0.020  0.00  0.00    +0.146 C 
ATOM      3  N   UNL     1      -2.330  -0.323   0.701  0.00  0.00    -0.318 N 
ATOM      4  C   UNL     1      -2.245  -0.337   2.089  0.00  0.00    +0.041 A 
ATOM      5  C   UNL     1      -1.519  -1.303   2.765  0.00  0.00    +0.024 A 
ATOM      6  C   UNL     1      -1.490  -1.294   4.147  0.00  0.00    +0.002 A 
ATOM      7  C   UNL     1      -2.183  -0.329   4.860  0.00  0.00    +0.001 A 
ATOM      8  C   UNL     1      -2.906   0.644   4.202  0.00  0.00    +0.015 A 
ATOM      9  C   UNL     1      -2.933   0.656   2.809  0.00  0.00    +0.059 A 
ATOM     10  C   UNL     1      -3.683   1.677   2.058  0.00  0.00    +0.270 C 
ATOM     11  O   UNL     1      -4.428   2.443   2.641  0.00  0.00    -0.268 OA
ATOM     12  N   UNL     1      -3.539   1.756   0.721  0.00  0.00    -0.161 N 
ATOM     13  H   UNL     1      -2.250  -1.250   0.115  0.00  0.00    +0.148 HD
ENDROOT
BRANCH   2  14
ATOM     14  C   UNL     1      -1.227   1.720  -0.006  0.00  0.00    -0.003 A 
ATOM     15  C   UNL     1      -1.232   3.103  -0.011  0.00  0.00    +0.007 A 
ATOM     16  C   UNL     1      -0.038   3.798  -0.040  0.00  0.00    +0.003 A 
ATOM     17  C   UNL     1       1.161   3.112  -0.059  0.00  0.00    +0.033 A 
ATOM     18  C   UNL     1       1.167   1.730  -0.049  0.00  0.00    +0.127 A 
ATOM     19  C   UNL     1      -0.028   1.034  -0.020  0.00  0.00    +0.040 A 
BRANCH  18  20
ATOM     20  N   UNL     1       2.451   0.994  -0.070  0.00  0.00    +0.056 N 
ATOM     21  O   UNL     1       2.456  -0.224  -0.061  0.00  0.00    -0.126 OA
ATOM     22  O   UNL     1       3.503   1.607  -0.096  0.00  0.00    -0.126 OA
ENDBRANCH  18  20
ENDBRANCH   2  14
BRANCH  12  23
ATOM     23  N   UNL     1      -4.370   2.614  -0.012  0.00  0.00    -0.182 NA
ATOM     24  C   UNL     1      -5.644   2.377  -0.085  0.00  0.00    +0.140 C 
BRANCH  24  25
ATOM     25  C   UNL     1      -6.502   3.215  -0.942  0.00  0.00    +0.014 A 
ATOM     26  C   UNL     1      -7.874   2.963  -1.022  0.00  0.00    +0.011 A 
ATOM     27  C   UNL     1      -8.671   3.751  -1.827  0.00  0.00    +0.002 A 
ATOM     28  C   UNL     1      -8.116   4.789  -2.554  0.00  0.00    +0.021 A 
ATOM     29  C   UNL     1      -6.757   5.045  -2.481  0.00  0.00    +0.060 A 
ATOM     30  C   UNL     1      -5.947   4.269  -1.675  0.00  0.00    +0.068 A 
ATOM     31 CL   UNL     1      -4.245   4.596  -1.577  0.00  0.00    -0.081 Cl
ATOM     32 CL   UNL     1      -6.072   6.350  -3.398  0.00  0.00    -0.082 Cl
ENDBRANCH  24  25
ENDBRANCH  12  23
TORSDOF 4
