REMARK  Name = ZINC08791731
REMARK  6 active torsions:
REMARK  status: ('A' for Active; 'I' for Inactive)
REMARK    1  A    between atoms: C_1  and  O_2
REMARK    2  A    between atoms: O_2  and  C_3
REMARK    3  A    between atoms: C_3  and  C_4
REMARK    4  A    between atoms: C_4  and  N_5
REMARK    5  A    between atoms: C_10  and  C_26
REMARK    6  A    between atoms: C_26  and  C_27
REMARK                            x       y       z     vdW  Elec       q    Type
REMARK                         _______ _______ _______ _____ _____    ______ ____
ROOT
ATOM      1  N   UNL     1       4.982   5.918  -3.031  0.00  0.00    -0.240 N 
ATOM      2  C   UNL     1       4.617   5.495  -1.815  0.00  0.00    +0.224 C 
ATOM      3  O   UNL     1       5.256   4.740  -1.115  0.00  0.00    -0.275 OA
ATOM      4  C   UNL     1       3.283   6.107  -1.450  0.00  0.00    +0.073 C 
ATOM      5  C   UNL     1       2.207   4.999  -1.430  0.00  0.00    -0.053 C 
ATOM      6  C   UNL     1       1.681   6.323  -3.282  0.00  0.00    +0.050 C 
ATOM      7  C   UNL     1       2.936   6.976  -2.691  0.00  0.00    +0.088 C 
ATOM      8  C   UNL     1       4.112   6.752  -3.614  0.00  0.00    +0.225 C 
ATOM      9  O   UNL     1       4.247   7.250  -4.710  0.00  0.00    -0.275 OA
ATOM     10  C   UNL     1       0.743   7.347  -3.854  0.00  0.00    -0.028 A 
ATOM     11  C   UNL     1       0.083   8.431  -3.321  0.00  0.00    +0.004 A 
ATOM     12  C   UNL     1      -0.737   9.206  -4.123  0.00  0.00    +0.000 A 
ATOM     13  C   UNL     1      -0.891   8.889  -5.460  0.00  0.00    +0.002 A 
ATOM     14  C   UNL     1      -0.232   7.803  -5.998  0.00  0.00    +0.023 A 
ATOM     15  C   UNL     1       0.595   7.018  -5.198  0.00  0.00    +0.036 A 
ATOM     16  N   UNL     1       1.355   5.887  -5.505  0.00  0.00    -0.286 N 
ATOM     17  C   UNL     1       2.024   5.419  -4.434  0.00  0.00    +0.211 C 
ATOM     18  O   UNL     1       2.760   4.455  -4.405  0.00  0.00    -0.277 OA
ATOM     19  H   UNL     1       1.396   5.486  -6.388  0.00  0.00    +0.155 HD
ATOM     20  N   UNL     1       1.092   5.576  -2.184  0.00  0.00    +0.394 N 
ATOM     21  H   UNL     1       0.543   6.202  -1.583  0.00  0.00    -0.083 HD
ATOM     22  H   UNL     1       0.486   4.831  -2.547  0.00  0.00    -0.083 HD
ENDROOT
BRANCH   1  23
ATOM     23  C   UNL     1       6.231   5.502  -3.673  0.00  0.00    +0.144 C 
BRANCH  23  24
ATOM     24  C   UNL     1       7.346   6.481  -3.301  0.00  0.00    +0.179 C 
BRANCH  24  26
ATOM     25  C   UNL     1       8.629   7.285  -1.443  0.00  0.00    +0.194 C 
ATOM     26  O   UNL     1       7.599   6.405  -1.897  0.00  0.00    -0.381 OA
ENDBRANCH  24  26
ENDBRANCH  23  24
ENDBRANCH   1  23
BRANCH   5  27
ATOM     27  C   UNL     1       1.801   4.678   0.009  0.00  0.00    +0.022 C 
BRANCH  27  28
ATOM     28  C   UNL     1       0.844   3.513   0.013  0.00  0.00    -0.024 A 
ATOM     29  C   UNL     1      -0.496   3.582   0.026  0.00  0.00    +0.087 A 
ATOM     30  N   UNL     1      -1.028   2.321   0.019  0.00  0.00    -0.360 N 
ATOM     31  H   UNL     1      -1.976   2.116   0.021  0.00  0.00    +0.165 HD
ATOM     32  C   UNL     1      -0.017   1.387   0.010  0.00  0.00    +0.047 A 
ATOM     33  C   UNL     1       1.200   2.093   0.002  0.00  0.00    +0.003 A 
ATOM     34  C   UNL     1       2.410   1.395  -0.014  0.00  0.00    +0.010 A 
ATOM     35  C   UNL     1       2.405   0.029  -0.021  0.00  0.00    +0.001 A 
ATOM     36  C   UNL     1       1.207  -0.672  -0.013  0.00  0.00    +0.002 A 
ATOM     37  C   UNL     1       0.002  -0.004   0.002  0.00  0.00    +0.026 A 
ENDBRANCH  27  28
ENDBRANCH   5  27
TORSDOF 5
