REMARK  Name = ZINC13576964
REMARK  14 active torsions:
REMARK  status: ('A' for Active; 'I' for Inactive)
REMARK    1  A    between atoms: C_1  and  C_2
REMARK    2  A    between atoms: C_2  and  O_3
REMARK    3  A    between atoms: O_3  and  C_4
REMARK    4  A    between atoms: C_6  and  C_20
REMARK    5  A    between atoms: C_9  and  O_10
REMARK    6  A    between atoms: O_10  and  C_11
REMARK    7  A    between atoms: C_11  and  C_12
REMARK    8  A    between atoms: C_21  and  C_22
REMARK    9  A    between atoms: C_21  and  C_24
REMARK   10  A    between atoms: C_25  and  C_33
REMARK   11  A    between atoms: C_26  and  N_32
REMARK   12  A    between atoms: N_27  and  C_29
REMARK   13  A    between atoms: C_29  and  C_30
REMARK   14  A    between atoms: C_30  and  O_31
REMARK                            x       y       z     vdW  Elec       q    Type
REMARK                         _______ _______ _______ _____ _____    ______ ____
ROOT
ATOM      1  C   UNL     1       4.805   1.312   0.252  0.00  0.00    +0.162 A 
ATOM      2  C   UNL     1       3.631   2.035   0.176  0.00  0.00    +0.057 A 
ATOM      3  C   UNL     1       2.405   1.363   0.084  0.00  0.00    -0.020 A 
ATOM      4  C   UNL     1       2.377  -0.037   0.074  0.00  0.00    +0.012 A 
ATOM      5  C   UNL     1       3.554  -0.749   0.145  0.00  0.00    +0.050 A 
ATOM      6  C   UNL     1       4.769  -0.082   0.237  0.00  0.00    +0.162 A 
ENDROOT
BRANCH   3   7
ATOM      7  C   UNL     1       1.153   2.125   0.003  0.00  0.00    +0.029 C 
ATOM      8  C   UNL     1       0.084   1.609  -0.666  0.00  0.00    +0.081 C 
BRANCH   8   9
ATOM      9  C   UNL     1      -1.220   2.307  -0.627  0.00  0.00    +0.122 A 
ATOM     10  C   UNL     1      -2.455   1.886  -1.301  0.00  0.00    +0.119 A 
ATOM     11  C   UNL     1      -3.416   2.840  -0.981  0.00  0.00    +0.133 A 
ATOM     12  N   UNL     1      -2.829   3.763  -0.193  0.00  0.00    -0.247 N 
ATOM     13  N   UNL     1      -1.489   3.423   0.013  0.00  0.00    -0.167 NA
BRANCH  11  14
ATOM     14  N   UNL     1      -4.733   2.842  -1.399  0.00  0.00    -0.342 N 
ATOM     15  H   UNL     1      -5.328   3.557  -1.123  0.00  0.00    +0.144 HD
ATOM     16  H   UNL     1      -5.063   2.129  -1.968  0.00  0.00    +0.144 HD
ENDBRANCH  11  14
BRANCH  10  17
ATOM     17  C   UNL     1      -2.634   0.726  -2.120  0.00  0.00    +0.105 C 
ATOM     18  N   UNL     1      -2.776  -0.195  -2.771  0.00  0.00    -0.191 NA
ENDBRANCH  10  17
BRANCH  12  19
ATOM     19  C   UNL     1      -3.494   4.944   0.362  0.00  0.00    +0.173 C 
BRANCH  19  20
ATOM     20  C   UNL     1      -3.354   6.115  -0.613  0.00  0.00    +0.179 C 
BRANCH  20  21
ATOM     21  O   UNL     1      -4.003   7.267  -0.071  0.00  0.00    -0.393 OA
ATOM     22  H   UNL     1      -3.954   8.049  -0.637  0.00  0.00    +0.209 HD
ENDBRANCH  20  21
ENDBRANCH  19  20
ENDBRANCH  12  19
ENDBRANCH   8   9
BRANCH   8  23
ATOM     23  C   UNL     1       0.224   0.394  -1.412  0.00  0.00    +0.101 C 
ATOM     24  N   UNL     1       0.335  -0.569  -2.003  0.00  0.00    -0.191 NA
ENDBRANCH   8  23
ENDBRANCH   3   7
BRANCH   1  25
ATOM     25  O   UNL     1       5.997   1.960   0.342  0.00  0.00    -0.489 OA
BRANCH  25  27
ATOM     26  C   UNL     1       7.385   3.936   0.458  0.00  0.00    +0.048 C 
ATOM     27  C   UNL     1       5.959   3.389   0.353  0.00  0.00    +0.226 C 
ENDBRANCH  25  27
ENDBRANCH   1  25
BRANCH   6  28
ATOM     28  O   UNL     1       5.926  -0.789   0.313  0.00  0.00    -0.484 OA
BRANCH  28  29
ATOM     29  C   UNL     1       5.817  -2.214   0.292  0.00  0.00    +0.266 C 
BRANCH  29  30
ATOM     30  C   UNL     1       7.192  -2.824   0.384  0.00  0.00    +0.008 A 
ATOM     31  C   UNL     1       8.306  -2.009   0.471  0.00  0.00    +0.010 A 
ATOM     32  C   UNL     1       9.567  -2.568   0.556  0.00  0.00    +0.020 A 
ATOM     33  C   UNL     1       9.716  -3.943   0.554  0.00  0.00    +0.042 A 
ATOM     34  C   UNL     1       8.603  -4.759   0.468  0.00  0.00    +0.040 A 
ATOM     35  C   UNL     1       7.340  -4.200   0.388  0.00  0.00    +0.049 A 
ATOM     36 CL   UNL     1       5.941  -5.223   0.287  0.00  0.00    -0.083 Cl
ATOM     37 CL   UNL     1      11.300  -4.645   0.661  0.00  0.00    -0.083 Cl
ENDBRANCH  29  30
ENDBRANCH  28  29
ENDBRANCH   6  28
TORSDOF 13
