REMARK  Name = ZINC04168304
REMARK  13 active torsions:
REMARK  status: ('A' for Active; 'I' for Inactive)
REMARK    1  A    between atoms: C_1  and  C_2
REMARK    2  A    between atoms: C_2  and  C_3
REMARK    3  A    between atoms: C_2  and  C_4
REMARK    4  A    between atoms: C_2  and  C_5
REMARK    5  A    between atoms: C_12  and  N_30
REMARK    6  A    between atoms: C_13  and  C_28
REMARK    7  A    between atoms: C_14  and  C_16
REMARK    8  A    between atoms: C_19  and  O_26
REMARK    9  A    between atoms: C_20  and  O_24
REMARK   10  A    between atoms: C_21  and  O_22
REMARK   11  A    between atoms: O_22  and  C_23
REMARK   12  A    between atoms: O_24  and  C_25
REMARK   13  A    between atoms: O_26  and  C_27
REMARK                            x       y       z     vdW  Elec       q    Type
REMARK                         _______ _______ _______ _____ _____    ______ ____
ROOT
ATOM      1  C   UNL     1       0.830  -0.646  -1.257  0.00  0.00    +0.076 A 
ATOM      2  C   UNL     1       0.953  -1.989  -1.586  0.00  0.00    +0.050 A 
ATOM      3  C   UNL     1       1.709  -2.079  -2.721  0.00  0.00    +0.222 A 
ATOM      4  N   UNL     1       2.047  -0.832  -3.085  0.00  0.00    -0.246 N 
ATOM      5  H   UNL     1       2.584  -0.587  -3.854  0.00  0.00    +0.192 HD
ATOM      6  N   UNL     1       1.480   0.055  -2.156  0.00  0.00    -0.175 NA
ATOM      7  O   UNL     1       2.011  -3.265  -3.307  0.00  0.00    -0.423 OA
ATOM      8  C   UNL     1       1.324  -4.353  -2.905  0.00  0.00    +0.200 C 
ATOM      9  C   UNL     1       0.553  -4.389  -1.796  0.00  0.00    +0.098 C 
ATOM     10  C   UNL     1       0.392  -3.198  -0.884  0.00  0.00    +0.105 C 
ENDROOT
BRANCH  10  11
ATOM     11  C   UNL     1       1.144  -3.435   0.400  0.00  0.00    +0.011 A 
ATOM     12  C   UNL     1       2.523  -3.529   0.385  0.00  0.00    +0.012 A 
ATOM     13  C   UNL     1       3.217  -3.746   1.560  0.00  0.00    +0.050 A 
ATOM     14  C   UNL     1       2.533  -3.870   2.760  0.00  0.00    +0.165 A 
ATOM     15  C   UNL     1       1.147  -3.776   2.780  0.00  0.00    +0.204 A 
ATOM     16  C   UNL     1       0.452  -3.552   1.596  0.00  0.00    +0.169 A 
BRANCH  16  17
ATOM     17  O   UNL     1      -0.904  -3.454   1.611  0.00  0.00    -0.491 OA
ATOM     18  C   UNL     1      -1.644  -4.664   1.441  0.00  0.00    +0.277 C 
ENDBRANCH  16  17
BRANCH  15  19
ATOM     19  O   UNL     1       0.471  -3.897   3.955  0.00  0.00    -0.488 OA
ATOM     20  C   UNL     1       0.237  -2.697   4.695  0.00  0.00    +0.277 C 
ENDBRANCH  15  19
BRANCH  14  21
ATOM     21  O   UNL     1       3.217  -4.084   3.916  0.00  0.00    -0.491 OA
ATOM     22  C   UNL     1       4.640  -4.171   3.820  0.00  0.00    +0.277 C 
ENDBRANCH  14  21
ENDBRANCH  10  11
BRANCH   1  24
ATOM     23  C   UNL     1      -0.008   1.434  -0.197  0.00  0.00    +0.017 C 
ATOM     24  C   UNL     1       0.077  -0.089  -0.076  0.00  0.00    +0.007 C 
ATOM     25  C   UNL     1       0.809  -0.458   1.216  0.00  0.00    +0.017 C 
ATOM     26  C   UNL     1      -1.335  -0.678  -0.049  0.00  0.00    +0.017 C 
ENDBRANCH   1  24
BRANCH   8  27
ATOM     27  N   UNL     1       1.411  -5.491  -3.669  0.00  0.00    -0.328 N 
ATOM     28  H   UNL     1       1.956  -5.496  -4.471  0.00  0.00    +0.145 HD
ATOM     29  H   UNL     1       0.928  -6.290  -3.406  0.00  0.00    +0.145 HD
ENDBRANCH   8  27
BRANCH   9  30
ATOM     30  C   UNL     1      -0.135  -5.603  -1.473  0.00  0.00    +0.101 C 
ATOM     31  N   UNL     1      -0.680  -6.566  -1.217  0.00  0.00    -0.191 NA
ENDBRANCH   9  30
TORSDOF 7
