REMARK  Name = ZINC38705188
REMARK  12 active torsions:
REMARK  status: ('A' for Active; 'I' for Inactive)
REMARK    1  A    between atoms: C_1  and  C_2
REMARK    2  A    between atoms: C_2  and  C_3
REMARK    3  A    between atoms: C_3  and  C_4
REMARK    4  A    between atoms: C_4  and  O_5
REMARK    5  A    between atoms: O_5  and  C_6
REMARK    6  A    between atoms: C_9  and  C_12
REMARK    7  A    between atoms: C_15  and  C_29
REMARK    8  A    between atoms: N_22  and  C_23
REMARK    9  A    between atoms: C_23  and  C_24
REMARK   10  A    between atoms: C_30  and  C_37
REMARK   11  A    between atoms: C_32  and  C_36
REMARK   12  A    between atoms: C_34  and  O_35
REMARK                            x       y       z     vdW  Elec       q    Type
REMARK                         _______ _______ _______ _____ _____    ______ ____
ROOT
ATOM      1  C   UNL     1       1.903  -8.122   2.981  0.00  0.00    +0.142 C 
ATOM      2  C   UNL     1       0.966  -8.588   4.062  0.00  0.00    +0.035 A 
ATOM      3  C   UNL     1      -0.354  -8.698   4.512  0.00  0.00    +0.102 A 
ATOM      4  N   UNL     1      -0.322  -9.300   5.684  0.00  0.00    -0.173 NA
ATOM      5  N   UNL     1       0.887  -9.582   6.019  0.00  0.00    -0.272 N 
ATOM      6  H   UNL     1       1.149 -10.026   6.840  0.00  0.00    +0.189 HD
ATOM      7  C   UNL     1       1.749  -9.163   5.045  0.00  0.00    +0.126 A 
ATOM      8  C   UNL     1       3.154  -9.080   4.631  0.00  0.00    +0.266 C 
ATOM      9  O   UNL     1       4.094  -9.497   5.280  0.00  0.00    -0.268 OA
ATOM     10  N   UNL     1       3.255  -8.476   3.432  0.00  0.00    -0.278 N 
ENDROOT
BRANCH   3  11
ATOM     11  C   UNL     1      -1.567  -8.223   3.801  0.00  0.00    +0.047 A 
ATOM     12  C   UNL     1      -2.509  -7.445   4.468  0.00  0.00    -0.037 A 
ATOM     13  C   UNL     1      -3.636  -7.006   3.803  0.00  0.00    +0.007 A 
ATOM     14  C   UNL     1      -3.833  -7.336   2.474  0.00  0.00    -0.047 A 
ATOM     15  C   UNL     1      -2.905  -8.109   1.802  0.00  0.00    +0.049 A 
ATOM     16  C   UNL     1      -1.766  -8.551   2.457  0.00  0.00    +0.127 A 
ATOM     17  C   UNL     1      -5.066  -6.852   1.756  0.00  0.00    +0.044 C 
ATOM     18  C   UNL     1      -2.299  -7.082   5.916  0.00  0.00    +0.044 C 
BRANCH  16  19
ATOM     19  O   UNL     1      -0.849  -9.305   1.796  0.00  0.00    -0.506 OA
ATOM     20  H   UNL     1      -1.054 -10.250   1.782  0.00  0.00    +0.292 HD
ENDBRANCH  16  19
ENDBRANCH   3  11
BRANCH   1  24
ATOM     21  C   UNL     1       1.581  -3.890   2.483  0.00  0.00    +0.121 A 
ATOM     22  C   UNL     1       1.141  -4.742   1.482  0.00  0.00    +0.046 A 
ATOM     23  C   UNL     1       1.246  -6.110   1.645  0.00  0.00    +0.009 A 
ATOM     24  C   UNL     1       1.790  -6.629   2.806  0.00  0.00    -0.022 A 
ATOM     25  C   UNL     1       2.229  -5.782   3.805  0.00  0.00    +0.009 A 
ATOM     26  C   UNL     1       2.131  -4.413   3.645  0.00  0.00    +0.046 A 
BRANCH  21  27
ATOM     27  O   UNL     1       1.479  -2.544   2.325  0.00  0.00    -0.492 OA
BRANCH  27  28
ATOM     28  C   UNL     1       0.902  -2.076   1.104  0.00  0.00    +0.229 C 
BRANCH  28  29
ATOM     29  C   UNL     1       0.871  -0.546   1.108  0.00  0.00    +0.041 C 
BRANCH  29  31
ATOM     30  C   UNL     1       0.223   1.484  -0.196  0.00  0.00    +0.004 C 
ATOM     31  C   UNL     1       0.254  -0.046  -0.199  0.00  0.00    -0.000 C 
ENDBRANCH  29  31
ENDBRANCH  28  29
ENDBRANCH  27  28
ENDBRANCH  21  27
ENDBRANCH   1  24
BRANCH  10  32
ATOM     32  C   UNL     1       4.498  -8.218   2.701  0.00  0.00    +0.183 C 
BRANCH  32  33
ATOM     33  C   UNL     1       5.041  -6.868   3.095  0.00  0.00    +0.122 A 
ATOM     34  C   UNL     1       5.898  -6.629   4.104  0.00  0.00    +0.046 A 
ATOM     35  C   UNL     1       6.138  -5.236   4.115  0.00  0.00    +0.041 A 
ATOM     36  C   UNL     1       5.413  -4.707   3.113  0.00  0.00    +0.195 A 
ATOM     37  O   UNL     1       4.755  -5.701   2.495  0.00  0.00    -0.466 OA
ENDBRANCH  32  33
ENDBRANCH  10  32
TORSDOF 9
