REMARK  Name = ZINC66827929
REMARK  6 active torsions:
REMARK  status: ('A' for Active; 'I' for Inactive)
REMARK    1  A    between atoms: C_1  and  C_2
REMARK    2  A    between atoms: C_7  and  C_11
REMARK    3  A    between atoms: C_11  and  N_12
REMARK    4  A    between atoms: C_13  and  C_15
REMARK    5  A    between atoms: N_20  and  C_22
REMARK    6  A    between atoms: C_25  and  C_28
REMARK                            x       y       z     vdW  Elec       q    Type
REMARK                         _______ _______ _______ _____ _____    ______ ____
ROOT
ATOM      1  N   UNL     1       2.071  -5.548   2.702  0.00  0.00    -0.309 N 
ATOM      2  C   UNL     1       2.447  -6.582   3.481  0.00  0.00    +0.218 C 
ATOM      3  O   UNL     1       1.823  -6.840   4.489  0.00  0.00    -0.275 OA
ATOM      4  H   UNL     1       2.569  -5.342   1.896  0.00  0.00    +0.149 HD
ENDROOT
BRANCH   2   5
ATOM      5  C   UNL     1       3.642  -7.417   3.100  0.00  0.00    +0.101 C 
ATOM      6  C   UNL     1       3.391  -8.168   1.771  0.00  0.00    +0.110 C 
ATOM      7  C   UNL     1       4.062  -9.508   1.970  0.00  0.00    +0.217 C 
ATOM      8  O   UNL     1       4.341 -10.285   1.081  0.00  0.00    -0.276 OA
ATOM      9  N   UNL     1       4.306  -9.714   3.276  0.00  0.00    -0.298 N 
ATOM     10  C   UNL     1       3.838  -8.586   4.091  0.00  0.00    +0.121 C 
BRANCH   9  11
ATOM     11  C   UNL     1       4.955 -10.911   3.818  0.00  0.00    +0.076 C 
ATOM     12  C   UNL     1       4.497 -11.130   5.261  0.00  0.00    +0.023 C 
ATOM     13  C   UNL     1       2.979 -11.316   5.292  0.00  0.00    +0.005 C 
ATOM     14  C   UNL     1       2.596 -12.531   4.445  0.00  0.00    -0.014 C 
ATOM     15  C   UNL     1       3.054 -12.311   3.002  0.00  0.00    +0.005 C 
ATOM     16  C   UNL     1       4.572 -12.126   2.971  0.00  0.00    +0.023 C 
ATOM     17  C   UNL     1       1.077 -12.716   4.476  0.00  0.00    +0.007 C 
ENDBRANCH   9  11
ENDBRANCH   2   5
BRANCH   1  18
ATOM     18  C   UNL     1       0.909  -4.736   3.073  0.00  0.00    +0.159 C 
BRANCH  18  25
ATOM     19  C   UNL     1       0.641   1.360  -1.097  0.00  0.00    +0.045 C 
ATOM     20  C   UNL     1       0.430  -0.056  -0.626  0.00  0.00    -0.034 A 
ATOM     21  C   UNL     1      -0.304  -0.954  -1.418  0.00  0.00    +0.008 A 
ATOM     22  C   UNL     1      -0.493  -2.232  -0.990  0.00  0.00    +0.045 A 
ATOM     23  C   UNL     1       0.054  -2.633   0.245  0.00  0.00    +0.115 A 
ATOM     24  N   UNL     1       0.030  -3.786   0.899  0.00  0.00    -0.342 N 
ATOM     25  C   UNL     1       0.703  -3.654   2.045  0.00  0.00    +0.051 A 
ATOM     26  C   UNL     1       1.170  -2.389   2.128  0.00  0.00    +0.115 A 
ATOM     27  N   UNL     1       0.765  -1.734   0.996  0.00  0.00    -0.308 N 
ATOM     28  C   UNL     1       0.952  -0.457   0.552  0.00  0.00    +0.096 A 
ATOM     29  H   UNL     1      -0.407  -4.596   0.594  0.00  0.00    +0.167 HD
ENDBRANCH  18  25
ENDBRANCH   1  18
TORSDOF 4
