REMARK  Name = ZINC40915437
REMARK  4 active torsions:
REMARK  status: ('A' for Active; 'I' for Inactive)
REMARK    1  A    between atoms: C_6  and  C_7
REMARK    2  A    between atoms: C_7  and  O_8
REMARK    3  A    between atoms: O_8  and  C_9
REMARK    4  A    between atoms: C_12  and  C_15
REMARK                            x       y       z     vdW  Elec       q    Type
REMARK                         _______ _______ _______ _____ _____    ______ ____
ROOT
ATOM      1  C   UNL     1      -2.875  -1.700  -1.504  0.00  0.00    +0.121 A 
ATOM      2  C   UNL     1      -3.594  -2.133  -0.400  0.00  0.00    +0.046 A 
ATOM      3  C   UNL     1      -4.772  -2.832  -0.576  0.00  0.00    +0.009 A 
ATOM      4  C   UNL     1      -5.235  -3.100  -1.851  0.00  0.00    -0.018 A 
ATOM      5  C   UNL     1      -4.520  -2.669  -2.953  0.00  0.00    +0.009 A 
ATOM      6  C   UNL     1      -3.344  -1.965  -2.782  0.00  0.00    +0.046 A 
ENDROOT
BRANCH   4   7
ATOM      7  C   UNL     1      -6.521  -3.863  -2.039  0.00  0.00    +0.175 C 
ATOM      8  C   UNL     1      -7.508  -3.005  -2.800  0.00  0.00    +0.041 C 
ATOM      9  C   UNL     1      -7.810  -3.234  -4.096  0.00  0.00    +0.020 C 
ATOM     10  C   UNL     1      -8.786  -2.348  -4.833  0.00  0.00    +0.052 C 
ATOM     11  C   UNL     1      -9.836  -1.816  -3.857  0.00  0.00    +0.014 C 
ATOM     12  C   UNL     1      -9.116  -1.040  -2.748  0.00  0.00    +0.080 C 
ATOM     13  C   UNL     1      -8.108  -1.945  -2.096  0.00  0.00    +0.163 C 
ATOM     14  O   UNL     1      -7.805  -1.756  -0.934  0.00  0.00    -0.292 OA
ATOM     15  N   UNL     1      -7.252  -4.277  -4.796  0.00  0.00    -0.287 N 
ATOM     16  C   UNL     1      -6.598  -5.266  -4.080  0.00  0.00    +0.218 A 
ATOM     17  N   UNL     1      -6.252  -5.087  -2.783  0.00  0.00    -0.221 N 
ATOM     18  N   UNL     1      -5.627  -6.265  -2.378  0.00  0.00    -0.156 NA
ATOM     19  C   UNL     1      -5.622  -7.066  -3.415  0.00  0.00    +0.247 A 
ATOM     20  N   UNL     1      -6.209  -6.458  -4.442  0.00  0.00    -0.201 NA
ATOM     21  H   UNL     1      -7.316  -4.319  -5.763  0.00  0.00    +0.155 HD
ENDBRANCH   4   7
BRANCH   1  22
ATOM     22  O   UNL     1      -1.715  -1.011  -1.334  0.00  0.00    -0.487 OA
BRANCH  22  23
ATOM     23  C   UNL     1      -1.293  -0.775   0.011  0.00  0.00    +0.264 C 
BRANCH  23  29
ATOM     24  C   UNL     1      -0.017   1.378   0.010  0.00  0.00    +0.008 A 
ATOM     25  C   UNL     1       1.171   2.086   0.002  0.00  0.00    +0.020 A 
ATOM     26  C   UNL     1       2.378   1.410  -0.013  0.00  0.00    +0.041 A 
ATOM     27  C   UNL     1       2.396   0.027  -0.021  0.00  0.00    +0.020 A 
ATOM     28  C   UNL     1       1.208  -0.679  -0.013  0.00  0.00    +0.008 A 
ATOM     29  C   UNL     1       0.002  -0.004   0.002  0.00  0.00    -0.010 A 
ATOM     30 CL   UNL     1       3.870   2.298  -0.023  0.00  0.00    -0.084 Cl
ENDBRANCH  23  29
ENDBRANCH  22  23
ENDBRANCH   1  22
TORSDOF 4
