REMARK  Name = ZINC35809273
REMARK  12 active torsions:
REMARK  status: ('A' for Active; 'I' for Inactive)
REMARK    1  A    between atoms: C_1  and  C_2
REMARK    2  A    between atoms: C_7  and  C_9
REMARK    3  A    between atoms: C_7  and  C_10
REMARK    4  A    between atoms: C_13  and  C_15
REMARK    5  A    between atoms: C_15  and  C_16
REMARK    6  A    between atoms: C_22  and  C_24
REMARK    7  A    between atoms: C_24  and  N_25
REMARK    8  A    between atoms: N_25  and  C_26
REMARK    9  A    between atoms: C_26  and  C_27
REMARK   10  A    between atoms: C_27  and  O_28
REMARK   11  A    between atoms: O_28  and  C_29
REMARK   12  A    between atoms: C_30  and  C_32
REMARK                            x       y       z     vdW  Elec       q    Type
REMARK                         _______ _______ _______ _____ _____    ______ ____
ROOT
ATOM      1  C   UNL     1      -4.070  -4.344  -0.496  0.00  0.00    +0.059 A 
ATOM      2  C   UNL     1      -4.724  -5.167   0.359  0.00  0.00    +0.072 A 
ATOM      3  S   UNL     1      -5.698  -6.131  -0.785  0.00  0.00    -0.060 S 
ATOM      4  C   UNL     1      -5.178  -5.397  -2.208  0.00  0.00    +0.165 A 
ATOM      5  N   UNL     1      -4.329  -4.487  -1.782  0.00  0.00    -0.229 NA
ATOM      6  N   UNL     1      -5.558  -5.680  -3.515  0.00  0.00    -0.263 N 
ATOM      7  C   UNL     1      -6.455  -6.655  -3.760  0.00  0.00    +0.236 C 
ATOM      8  O   UNL     1      -6.931  -7.286  -2.840  0.00  0.00    -0.274 OA
ATOM      9  H   UNL     1      -5.177  -5.176  -4.251  0.00  0.00    +0.157 HD
ENDROOT
BRANCH   1  10
ATOM     10  C   UNL     1      -3.094  -3.308   0.000  0.00  0.00    +0.152 C 
BRANCH  10  22
ATOM     11  C   UNL     1       0.654   0.554   0.837  0.00  0.00    +0.013 C 
ATOM     12  C   UNL     1       0.658  -0.958   0.567  0.00  0.00    -0.014 C 
ATOM     13  C   UNL     1       1.177  -1.303  -0.856  0.00  0.00    +0.030 C 
ATOM     14  C   UNL     1       0.615  -2.740  -0.995  0.00  0.00    +0.077 C 
ATOM     15  C   UNL     1       1.493  -3.654  -0.144  0.00  0.00    +0.029 C 
ATOM     16  C   UNL     1       1.600  -3.225   1.308  0.00  0.00    -0.033 C 
ATOM     17  C   UNL     1       1.518  -1.732   1.565  0.00  0.00    +0.014 C 
ATOM     18  C   UNL     1       0.547  -3.964   2.147  0.00  0.00    +0.011 C 
ATOM     19  C   UNL     1       2.981  -3.703   1.824  0.00  0.00    +0.011 C 
ATOM     20  N   UNL     1      -0.736  -2.677  -0.402  0.00  0.00    -0.298 N 
ATOM     21  C   UNL     1      -0.767  -1.556   0.550  0.00  0.00    +0.114 C 
ATOM     22  C   UNL     1      -1.768  -3.496  -0.690  0.00  0.00    +0.222 C 
ATOM     23  O   UNL     1      -1.628  -4.384  -1.504  0.00  0.00    -0.275 OA
ENDBRANCH  10  22
ENDBRANCH   1  10
BRANCH   7  24
ATOM     24  C   UNL     1      -6.867  -6.962  -5.176  0.00  0.00    +0.203 C 
BRANCH  24  25
ATOM     25  N   UNL     1      -7.844  -8.053  -5.175  0.00  0.00    -0.290 N 
ATOM     26  C   UNL     1      -7.425  -9.334  -5.153  0.00  0.00    +0.219 C 
ATOM     27  O   UNL     1      -8.229 -10.237  -5.244  0.00  0.00    -0.275 OA
BRANCH  26  28
ATOM     28  C   UNL     1      -5.956  -9.644  -5.014  0.00  0.00    +0.075 C 
ATOM     29  C   UNL     1      -5.264  -9.447  -6.365  0.00  0.00    +0.013 C 
ATOM     30  C   UNL     1      -3.774  -9.761  -6.224  0.00  0.00    +0.001 C 
ATOM     31  C   UNL     1      -3.599 -11.211  -5.768  0.00  0.00    +0.000 C 
ATOM     32  C   UNL     1      -4.291 -11.408  -4.417  0.00  0.00    +0.001 C 
ATOM     33  C   UNL     1      -5.782 -11.093  -4.558  0.00  0.00    +0.013 C 
ENDBRANCH  26  28
BRANCH  25  34
ATOM     34  C   UNL     1      -9.278  -7.753  -5.199  0.00  0.00    +0.136 C 
BRANCH  34  35
ATOM     35  C   UNL     1      -9.729  -7.530  -6.644  0.00  0.00    +0.178 C 
BRANCH  35  36
ATOM     36  O   UNL     1      -9.585  -8.746  -7.380  0.00  0.00    -0.381 OA
ATOM     37  C   UNL     1      -9.982  -8.646  -8.750  0.00  0.00    +0.194 C 
ENDBRANCH  35  36
ENDBRANCH  34  35
ENDBRANCH  25  34
ENDBRANCH  24  25
ENDBRANCH   7  24
TORSDOF 8
