REMARK  Name = ZINC39468632
REMARK  5 active torsions:
REMARK  status: ('A' for Active; 'I' for Inactive)
REMARK    1  A    between atoms: C_1  and  C_2
REMARK    2  A    between atoms: C_2  and  O_3
REMARK    3  A    between atoms: O_3  and  C_4
REMARK    4  A    between atoms: P_13  and  S_23
REMARK    5  A    between atoms: S_23  and  C_24
REMARK                            x       y       z     vdW  Elec       q    Type
REMARK                         _______ _______ _______ _____ _____    ______ ____
ROOT
ATOM      1  C   UNL     1       0.802  -1.825   1.306  0.00  0.00    +0.159 C 
ATOM      2  C   UNL     1       0.273  -2.632   0.385  0.00  0.00    +0.026 C 
ATOM      3  C   UNL     1       0.342  -4.123   0.493  0.00  0.00    +0.016 C 
ATOM      4  C   UNL     1       0.504  -4.779  -0.875  0.00  0.00    -0.003 C 
ATOM      5  C   UNL     1       0.553  -6.304  -0.713  0.00  0.00    -0.020 C 
ATOM      6  C   UNL     1       0.744  -6.904  -2.112  0.00  0.00    +0.157 C 
ATOM      7  O   UNL     1       0.711  -8.340  -2.024  0.00  0.00    -0.312 OA
ATOM      8  P   UNL     1       1.661  -9.052  -0.910  0.00  0.00    +0.314 P 
ATOM      9  O   UNL     1       3.050  -9.153  -1.411  0.00  0.00    -0.262 OA
ATOM     10  N   UNL     1       1.598  -8.063   0.410  0.00  0.00    -0.283 NA
ATOM     11  N   UNL     1       1.643  -6.703   0.176  0.00  0.00    +0.398 N 
ATOM     12  C   UNL     1       1.515  -6.069   1.500  0.00  0.00    -0.050 C 
ATOM     13  C   UNL     1       1.532  -4.551   1.356  0.00  0.00    -0.011 C 
ATOM     14  C   UNL     1       1.421  -3.869   2.722  0.00  0.00    +0.085 C 
ATOM     15  C   UNL     1       1.508  -2.374   2.474  0.00  0.00    +0.197 C 
ATOM     16  O   UNL     1       2.136  -1.652   3.219  0.00  0.00    -0.289 OA
ATOM     17  H   UNL     1       1.540  -8.427   1.307  0.00  0.00    +0.112 HD
ATOM     18  H   UNL     1       2.527  -6.449  -0.239  0.00  0.00    -0.055 HD
ENDROOT
BRANCH   8  19
ATOM     19  S   UNL     1       0.913 -10.976  -0.428  0.00  0.00    -0.059 S 
ATOM     20  C   UNL     1       0.943 -11.867  -2.008  0.00  0.00    +0.096 C 
ENDBRANCH   8  19
BRANCH   1  21
ATOM     21  O   UNL     1       0.693  -0.477   1.160  0.00  0.00    -0.489 OA
BRANCH  21  23
ATOM     22  C   UNL     1      -0.019   1.526   0.010  0.00  0.00    +0.048 C 
ATOM     23  C   UNL     1       0.002  -0.004   0.002  0.00  0.00    +0.226 C 
ENDBRANCH  21  23
ENDBRANCH   1  21
TORSDOF 3
