REMARK  Name = ZINC14475635
REMARK  5 active torsions:
REMARK  status: ('A' for Active; 'I' for Inactive)
REMARK    1  A    between atoms: C_1  and  C_2
REMARK    2  A    between atoms: N_4  and  C_5
REMARK    3  A    between atoms: C_18  and  C_21
REMARK    4  A    between atoms: C_23  and  N_28
REMARK    5  A    between atoms: C_26  and  O_27
REMARK                            x       y       z     vdW  Elec       q    Type
REMARK                         _______ _______ _______ _____ _____    ______ ____
ROOT
ATOM      1  C   UNL     1       0.109  -2.067  -1.232  0.00  0.00    +0.034 A 
ATOM      2  C   UNL     1       0.119  -2.819  -0.064  0.00  0.00    +0.025 A 
ATOM      3  C   UNL     1       0.219  -4.193  -0.127  0.00  0.00    +0.025 A 
ATOM      4  C   UNL     1       0.314  -4.836  -1.355  0.00  0.00    +0.031 A 
ATOM      5  C   UNL     1       0.316  -4.074  -2.529  0.00  0.00    -0.018 A 
ATOM      6  C   UNL     1       0.202  -2.703  -2.463  0.00  0.00    +0.029 A 
ATOM      7  C   UNL     1       0.458  -4.798  -3.812  0.00  0.00    +0.049 C 
ATOM      8  C   UNL     1      -0.088  -4.255  -5.082  0.00  0.00    -0.023 C 
ATOM      9  C   UNL     1      -0.439  -5.271  -5.861  0.00  0.00    -0.030 C 
ATOM     10  C   UNL     1      -0.180  -6.596  -5.141  0.00  0.00    +0.033 C 
ATOM     11  C   UNL     1      -0.288  -6.159  -3.678  0.00  0.00    +0.029 C 
ATOM     12  C   UNL     1       0.514  -6.964  -2.672  0.00  0.00    +0.108 C 
ATOM     13  N   UNL     1       0.393  -6.236  -1.391  0.00  0.00    -0.336 N 
ATOM     14  H   UNL     1       0.367  -6.736  -0.560  0.00  0.00    +0.147 HD
ENDROOT
BRANCH  12  15
ATOM     15  C   UNL     1      -0.057  -8.352  -2.542  0.00  0.00    +0.017 A 
ATOM     16  C   UNL     1      -0.967  -8.634  -1.542  0.00  0.00    +0.041 A 
ATOM     17  C   UNL     1      -1.492  -9.908  -1.421  0.00  0.00    +0.127 A 
ATOM     18  C   UNL     1      -1.108 -10.902  -2.302  0.00  0.00    +0.036 A 
ATOM     19  C   UNL     1      -0.198 -10.625  -3.304  0.00  0.00    +0.048 A 
ATOM     20  C   UNL     1       0.326  -9.347  -3.430  0.00  0.00    +0.122 A 
BRANCH  17  21
ATOM     21  N   UNL     1      -2.466 -10.207  -0.348  0.00  0.00    +0.056 N 
ATOM     22  O   UNL     1      -2.802  -9.338   0.422  0.00  0.00    -0.126 OA
ATOM     23  O   UNL     1      -2.925 -11.320  -0.242  0.00  0.00    -0.126 OA
ENDBRANCH  17  21
BRANCH  20  24
ATOM     24  O   UNL     1       1.216  -9.070  -4.419  0.00  0.00    -0.506 OA
ATOM     25  H   UNL     1       2.139  -9.214  -4.168  0.00  0.00    +0.292 HD
ENDBRANCH  20  24
ENDBRANCH  12  15
BRANCH   1  29
ATOM     26  C   UNL     1       0.557   1.512  -0.148  0.00  0.00    +0.109 C 
ATOM     27  C   UNL     1       0.585   0.005  -0.161  0.00  0.00    +0.214 C 
ATOM     28  O   UNL     1       1.134  -0.599   0.737  0.00  0.00    -0.276 OA
ATOM     29  N   UNL     1       0.000  -0.672  -1.169  0.00  0.00    -0.286 N 
ATOM     30  H   UNL     1      -0.496  -0.192  -1.851  0.00  0.00    +0.155 HD
ENDBRANCH   1  29
TORSDOF 4
