REMARK  Name = ZINC64743959
REMARK  10 active torsions:
REMARK  status: ('A' for Active; 'I' for Inactive)
REMARK    1  A    between atoms: C_1  and  C_2
REMARK    2  A    between atoms: C_2  and  C_4
REMARK    3  A    between atoms: C_2  and  N_30
REMARK    4  A    between atoms: C_4  and  C_5
REMARK    5  A    between atoms: C_5  and  N_6
REMARK    6  A    between atoms: C_7  and  C_9
REMARK    7  A    between atoms: C_9  and  C_10
REMARK    8  A    between atoms: C_16  and  C_18
REMARK    9  A    between atoms: C_24  and  O_28
REMARK   10  A    between atoms: O_28  and  C_29
REMARK                            x       y       z     vdW  Elec       q    Type
REMARK                         _______ _______ _______ _____ _____    ______ ____
ROOT
ATOM      1  C   UNL     1       3.540  -5.552   3.345  0.00  0.00    +0.001 C 
ATOM      2  C   UNL     1       2.229  -6.278   3.654  0.00  0.00    +0.023 C 
ATOM      3  C   UNL     1       2.451  -7.790   3.555  0.00  0.00    +0.108 C 
ATOM      4  N   UNL     1       3.568  -8.162   4.434  0.00  0.00    -0.300 N 
ATOM      5  C   UNL     1       4.850  -7.461   4.283  0.00  0.00    +0.108 C 
ATOM      6  C   UNL     1       4.601  -5.952   4.374  0.00  0.00    +0.023 C 
ATOM      7  C   UNL     1       3.419  -9.128   5.362  0.00  0.00    +0.242 C 
ATOM      8  O   UNL     1       2.355  -9.699   5.477  0.00  0.00    -0.273 OA
ENDROOT
BRANCH   7   9
ATOM      9  C   UNL     1       4.574  -9.498   6.257  0.00  0.00    +0.190 C 
ATOM     10  C   UNL     1       4.975  -8.313   7.106  0.00  0.00    +0.016 C 
ATOM     11  C   UNL     1       4.801  -8.695   8.391  0.00  0.00    -0.003 A 
ATOM     12  C   UNL     1       5.013  -8.004   9.669  0.00  0.00    +0.013 A 
ATOM     13  C   UNL     1       4.745  -8.657  10.821  0.00  0.00    +0.046 A 
ATOM     14  C   UNL     1       4.268  -9.982  10.825  0.00  0.00    +0.122 A 
ATOM     15  C   UNL     1       4.049 -10.681   9.682  0.00  0.00    +0.071 A 
ATOM     16  C   UNL     1       4.298 -10.088   8.420  0.00  0.00    +0.047 A 
ATOM     17  N   UNL     1       4.169 -10.550   7.196  0.00  0.00    -0.370 N 
ATOM     18  H   UNL     1       3.857 -11.437   6.954  0.00  0.00    +0.161 HD
BRANCH  14  19
ATOM     19  O   UNL     1       4.019 -10.581  12.015  0.00  0.00    -0.495 OA
ATOM     20  C   UNL     1       4.263  -9.810  13.193  0.00  0.00    +0.277 C 
ENDBRANCH  14  19
ENDBRANCH   7   9
BRANCH   1  21
ATOM     21  C   UNL     1       3.313  -4.040   3.409  0.00  0.00    +0.099 C 
BRANCH  21  23
ATOM     22  N   UNL     1       2.013  -2.334   2.178  0.00  0.00    -0.315 N 
ATOM     23  C   UNL     1       2.362  -3.628   2.316  0.00  0.00    +0.213 C 
ATOM     24  O   UNL     1       1.909  -4.462   1.560  0.00  0.00    -0.276 OA
ATOM     25  H   UNL     1       2.375  -1.667   2.783  0.00  0.00    +0.149 HD
BRANCH  22  26
ATOM     26  C   UNL     1       1.088  -1.933   1.115  0.00  0.00    +0.102 C 
BRANCH  26  27
ATOM     27  C   UNL     1       0.861  -0.422   1.179  0.00  0.00    +0.003 C 
BRANCH  27  29
ATOM     28  C   UNL     1      -0.117   1.541  -0.020  0.00  0.00    -0.013 C 
ATOM     29  C   UNL     1      -0.003   0.015  -0.006  0.00  0.00    -0.070 C 
BRANCH  29  30
ATOM     30  N   UNL     1      -1.342  -0.575   0.120  0.00  0.00    +0.381 N 
ATOM     31  C   UNL     1      -2.028   0.005   1.253  0.00  0.00    -0.078 C 
ATOM     32  C   UNL     1      -2.893  -1.041   1.976  0.00  0.00    -0.019 C 
ATOM     33  C   UNL     1      -3.640  -1.972   1.001  0.00  0.00    -0.002 C 
ATOM     34  C   UNL     1      -4.232  -1.246  -0.179  0.00  0.00    -0.002 C 
ATOM     35  C   UNL     1      -3.205  -1.236  -1.337  0.00  0.00    -0.019 C 
ATOM     36  C   UNL     1      -2.136  -0.275  -1.084  0.00  0.00    -0.078 C 
ATOM     37  H   UNL     1      -1.266  -1.574   0.240  0.00  0.00    -0.081 HD
ENDBRANCH  29  30
ENDBRANCH  27  29
ENDBRANCH  26  27
ENDBRANCH  22  26
ENDBRANCH  21  23
ENDBRANCH   1  21
TORSDOF 8
