REMARK  Name = ZINC00332750
REMARK  6 active torsions:
REMARK  status: ('A' for Active; 'I' for Inactive)
REMARK    1  A    between atoms: C_1  and  C_2
REMARK    2  A    between atoms: C_5  and  N_14
REMARK    3  A    between atoms: N_14  and  C_15
REMARK    4  A    between atoms: C_21  and  C_23
REMARK    5  A    between atoms: C_23  and  C_24
REMARK    6  A    between atoms: C_23  and  C_25
REMARK                            x       y       z     vdW  Elec       q    Type
REMARK                         _______ _______ _______ _____ _____    ______ ____
ROOT
ATOM      1  C   UNL     1       1.980   4.514  -0.820  0.00  0.00    +0.028 C 
ATOM      2  C   UNL     1       1.620   3.252  -0.034  0.00  0.00    +0.069 C 
ATOM      3  C   UNL     1       2.024   2.008  -0.836  0.00  0.00    +0.049 C 
ATOM      4  C   UNL     1       1.720   0.763  -0.002  0.00  0.00    +0.115 C 
ATOM      5  C   UNL     1       0.301   0.798   0.499  0.00  0.00    -0.006 A 
ATOM      6  C   UNL     1      -0.300  -0.386   0.892  0.00  0.00    +0.007 A 
ATOM      7  C   UNL     1      -1.601  -0.388   1.355  0.00  0.00    +0.000 A 
ATOM      8  C   UNL     1      -2.310   0.797   1.441  0.00  0.00    +0.002 A 
ATOM      9  C   UNL     1      -1.718   1.982   1.051  0.00  0.00    +0.023 A 
ATOM     10  C   UNL     1      -0.411   1.985   0.577  0.00  0.00    +0.032 A 
ATOM     11  N   UNL     1       0.168   3.196   0.181  0.00  0.00    -0.341 N 
ATOM     12  H   UNL     1      -0.381   3.985   0.051  0.00  0.00    +0.146 HD
ENDROOT
BRANCH   4  13
ATOM     13  N   UNL     1       1.913  -0.432  -0.828  0.00  0.00    -0.264 N 
ATOM     14  C   UNL     1       2.768  -1.395  -0.430  0.00  0.00    +0.223 C 
ATOM     15  O   UNL     1       3.332  -1.301   0.640  0.00  0.00    -0.275 OA
BRANCH  13  16
ATOM     16  C   UNL     1       1.211  -0.572  -2.030  0.00  0.00    +0.037 A 
ATOM     17  C   UNL     1       1.554   0.201  -3.131  0.00  0.00    +0.023 A 
ATOM     18  C   UNL     1       0.863   0.055  -4.317  0.00  0.00    +0.002 A 
ATOM     19  C   UNL     1      -0.178  -0.851  -4.406  0.00  0.00    +0.000 A 
ATOM     20  C   UNL     1      -0.526  -1.618  -3.309  0.00  0.00    +0.002 A 
ATOM     21  C   UNL     1       0.165  -1.482  -2.122  0.00  0.00    +0.023 A 
ENDBRANCH  13  16
BRANCH  14  22
ATOM     22  C   UNL     1       3.021  -2.589  -1.313  0.00  0.00    +0.069 C 
ATOM     23  C   UNL     1       3.997  -2.201  -2.427  0.00  0.00    +0.017 C 
ATOM     24  C   UNL     1       3.623  -3.722  -0.480  0.00  0.00    +0.017 C 
ENDBRANCH  14  22
ENDBRANCH   4  13
TORSDOF 3
