REMARK  Name = ZINC16265313
REMARK  6 active torsions:
REMARK  status: ('A' for Active; 'I' for Inactive)
REMARK    1  A    between atoms: C_1  and  C_2
REMARK    2  A    between atoms: C_4  and  N_29
REMARK    3  A    between atoms: C_7  and  C_8
REMARK    4  A    between atoms: C_11  and  C_13
REMARK    5  A    between atoms: N_17  and  C_21
REMARK    6  A    between atoms: C_21  and  C_22
REMARK                            x       y       z     vdW  Elec       q    Type
REMARK                         _______ _______ _______ _____ _____    ______ ____
ROOT
ATOM      1  C   UNL     1       1.717   5.187   4.732  0.00  0.00    +0.074 C 
ATOM      2  C   UNL     1       1.157   4.795   3.511  0.00  0.00    +0.101 C 
ATOM      3  C   UNL     1       1.881   4.342   2.285  0.00  0.00    +0.269 C 
ATOM      4  O   UNL     1       3.081   4.237   2.139  0.00  0.00    -0.268 OA
ATOM      5  N   UNL     1       0.921   4.073   1.375  0.00  0.00    -0.216 N 
ATOM      6  C   UNL     1      -0.281   4.321   1.919  0.00  0.00    +0.313 C 
ATOM      7  O   UNL     1      -1.338   4.176   1.339  0.00  0.00    -0.252 OA
ATOM      8  N   UNL     1      -0.165   4.744   3.188  0.00  0.00    -0.265 N 
ATOM      9  H   UNL     1      -0.900   4.979   3.776  0.00  0.00    +0.157 HD
ENDROOT
BRANCH   1  13
ATOM     10  C   UNL     1      -0.916   6.062   6.936  0.00  0.00    +0.136 A 
ATOM     11  C   UNL     1       0.224   6.312   7.819  0.00  0.00    +0.050 A 
ATOM     12  C   UNL     1       1.343   6.013   7.110  0.00  0.00    +0.050 A 
ATOM     13  C   UNL     1       0.895   5.583   5.778  0.00  0.00    +0.131 A 
ATOM     14  O   UNL     1      -0.453   5.635   5.749  0.00  0.00    -0.455 OA
BRANCH  10  21
ATOM     15  C   UNL     1      -2.597   7.578   5.156  0.00  0.00    +0.044 C 
ATOM     16  C   UNL     1      -3.131   6.976   6.430  0.00  0.00    -0.038 A 
ATOM     17  C   UNL     1      -4.445   7.142   6.768  0.00  0.00    +0.036 A 
ATOM     18  C   UNL     1      -4.940   6.588   7.940  0.00  0.00    +0.126 A 
ATOM     19  C   UNL     1      -4.110   5.862   8.782  0.00  0.00    +0.033 A 
ATOM     20  C   UNL     1      -2.795   5.679   8.462  0.00  0.00    +0.014 A 
ATOM     21  C   UNL     1      -2.279   6.241   7.277  0.00  0.00    +0.020 A 
BRANCH  18  22
ATOM     22  N   UNL     1      -6.365   6.775   8.295  0.00  0.00    +0.056 N 
ATOM     23  O   UNL     1      -7.157   7.464   7.500  0.00  0.00    -0.126 OA
ATOM     24  O   UNL     1      -6.840   6.252   9.407  0.00  0.00    -0.126 OA
ENDBRANCH  18  22
ENDBRANCH  10  21
ENDBRANCH   1  13
BRANCH   5  25
ATOM     25  C   UNL     1       1.155   3.595   0.010  0.00  0.00    +0.156 C 
BRANCH  25  26
ATOM     26  C   UNL     1       1.173   2.088   0.002  0.00  0.00    +0.006 A 
ATOM     27  C   UNL     1       2.379   1.412  -0.013  0.00  0.00    +0.008 A 
ATOM     28  C   UNL     1       2.396   0.029  -0.020  0.00  0.00    +0.000 A 
ATOM     29  C   UNL     1       1.208  -0.678  -0.013  0.00  0.00    +0.003 A 
ATOM     30  C   UNL     1       0.002  -0.004   0.002  0.00  0.00    +0.038 A 
ATOM     31  C   UNL     1      -0.017   1.381   0.010  0.00  0.00    +0.128 A 
ATOM     32  F   UNL     1      -1.196   2.041   0.019  0.00  0.00    -0.205 F 
ENDBRANCH  25  26
ENDBRANCH   5  25
TORSDOF 5
