REMARK  Name = ZINC09292147
REMARK  14 active torsions:
REMARK  status: ('A' for Active; 'I' for Inactive)
REMARK    1  A    between atoms: C_1  and  C_2
REMARK    2  A    between atoms: C_2  and  N_3
REMARK    3  A    between atoms: N_3  and  C_4
REMARK    4  A    between atoms: N_3  and  C_6
REMARK    5  A    between atoms: C_4  and  C_5
REMARK    6  A    between atoms: C_9  and  C_12
REMARK    7  A    between atoms: C_15  and  C_26
REMARK    8  A    between atoms: C_21  and  N_25
REMARK    9  A    between atoms: C_22  and  C_23
REMARK   10  A    between atoms: C_29  and  O_34
REMARK   11  A    between atoms: C_30  and  O_32
REMARK   12  A    between atoms: O_32  and  C_33
REMARK   13  A    between atoms: O_34  and  C_35
REMARK   14  A    between atoms: C_35  and  C_36
REMARK                            x       y       z     vdW  Elec       q    Type
REMARK                         _______ _______ _______ _____ _____    ______ ____
ROOT
ATOM      1  C   UNL     1      -1.273  -6.168   0.986  0.00  0.00    +0.102 C 
ATOM      2  C   UNL     1      -0.649  -6.435   2.331  0.00  0.00    +0.054 A 
ATOM      3  C   UNL     1       0.647  -6.343   2.715  0.00  0.00    +0.074 A 
ATOM      4  N   UNL     1       0.704  -6.687   4.036  0.00  0.00    -0.273 N 
ATOM      5  N   UNL     1      -0.599  -6.996   4.457  0.00  0.00    -0.135 NA
ATOM      6  H   UNL     1       1.502  -6.714   4.585  0.00  0.00    +0.189 HD
ATOM      7  C   UNL     1      -1.406  -6.848   3.445  0.00  0.00    +0.245 A 
ATOM      8  O   UNL     1      -2.752  -7.034   3.372  0.00  0.00    -0.421 OA
ATOM      9  C   UNL     1      -3.308  -7.077   2.145  0.00  0.00    +0.201 C 
ATOM     10  C   UNL     1      -2.685  -6.697   1.008  0.00  0.00    +0.098 C 
ENDROOT
BRANCH   1  14
ATOM     11  C   UNL     1      -1.323  -1.965   0.226  0.00  0.00    +0.013 A 
ATOM     12  C   UNL     1      -0.653  -2.814  -0.634  0.00  0.00    +0.022 A 
ATOM     13  C   UNL     1      -0.637  -4.175  -0.388  0.00  0.00    +0.006 A 
ATOM     14  C   UNL     1      -1.290  -4.685   0.718  0.00  0.00    -0.034 A 
ATOM     15  C   UNL     1      -1.959  -3.835   1.579  0.00  0.00    +0.006 A 
ATOM     16  C   UNL     1      -1.972  -2.475   1.335  0.00  0.00    +0.022 A 
BRANCH  11  17
ATOM     17  N   UNL     1      -1.340  -0.589  -0.022  0.00  0.00    -0.394 NA
ATOM     18  H   UNL     1      -1.866  -0.123   0.702  0.00  0.00    +0.126 HD
BRANCH  17  20
ATOM     19  C   UNL     1       0.642  -0.208   1.365  0.00  0.00    +0.022 C 
ATOM     20  C   UNL     1       0.037  -0.077  -0.034  0.00  0.00    +0.081 C 
ENDBRANCH  17  20
BRANCH  17  21
ATOM     21  C   UNL     1      -1.968  -0.335  -1.325  0.00  0.00    +0.081 C 
ATOM     22  C   UNL     1      -3.440  -0.751  -1.272  0.00  0.00    +0.022 C 
ENDBRANCH  17  21
ENDBRANCH  11  17
ENDBRANCH   1  14
BRANCH   3  23
ATOM     23  C   UNL     1       1.789  -5.943   1.863  0.00  0.00    +0.004 A 
ATOM     24  C   UNL     1       1.919  -6.469   0.577  0.00  0.00    +0.014 A 
ATOM     25  C   UNL     1       2.984  -6.097  -0.217  0.00  0.00    +0.050 A 
ATOM     26  C   UNL     1       3.927  -5.199   0.260  0.00  0.00    +0.162 A 
ATOM     27  C   UNL     1       3.803  -4.670   1.543  0.00  0.00    +0.162 A 
ATOM     28  C   UNL     1       2.734  -5.036   2.341  0.00  0.00    +0.059 A 
BRANCH  27  29
ATOM     29  O   UNL     1       4.730  -3.790   2.008  0.00  0.00    -0.491 OA
ATOM     30  C   UNL     1       4.540  -3.288   3.333  0.00  0.00    +0.277 C 
ENDBRANCH  27  29
BRANCH  26  31
ATOM     31  O   UNL     1       4.975  -4.834  -0.525  0.00  0.00    -0.489 OA
BRANCH  31  32
ATOM     32  C   UNL     1       5.041  -5.415  -1.829  0.00  0.00    +0.226 C 
ATOM     33  C   UNL     1       6.279  -4.890  -2.560  0.00  0.00    +0.048 C 
ENDBRANCH  31  32
ENDBRANCH  26  31
ENDBRANCH   3  23
BRANCH   9  34
ATOM     34  N   UNL     1      -4.596  -7.540   2.043  0.00  0.00    -0.328 N 
ATOM     35  H   UNL     1      -5.074  -7.822   2.838  0.00  0.00    +0.145 HD
ATOM     36  H   UNL     1      -5.028  -7.585   1.175  0.00  0.00    +0.145 HD
ENDBRANCH   9  34
BRANCH  10  37
ATOM     37  C   UNL     1      -3.396  -6.802  -0.230  0.00  0.00    +0.101 C 
ATOM     38  N   UNL     1      -3.960  -6.884  -1.213  0.00  0.00    -0.191 NA
ENDBRANCH  10  37
TORSDOF 10
