REMARK  Name = ZINC54617239
REMARK  13 active torsions:
REMARK  status: ('A' for Active; 'I' for Inactive)
REMARK    1  A    between atoms: C_1  and  C_2
REMARK    2  A    between atoms: C_2  and  C_3
REMARK    3  A    between atoms: C_3  and  C_4
REMARK    4  A    between atoms: C_4  and  S_5
REMARK    5  A    between atoms: S_5  and  C_6
REMARK    6  A    between atoms: C_11  and  C_29
REMARK    7  A    between atoms: C_13  and  C_17
REMARK    8  A    between atoms: C_14  and  C_16
REMARK    9  A    between atoms: N_19  and  C_20
REMARK   10  A    between atoms: C_25  and  O_26
REMARK   11  A    between atoms: O_26  and  C_27
REMARK   12  A    between atoms: C_27  and  C_28
REMARK   13  A    between atoms: C_34  and  N_35
REMARK                            x       y       z     vdW  Elec       q    Type
REMARK                         _______ _______ _______ _____ _____    ______ ____
ROOT
ATOM      1  C   UNL     1      -3.121  -5.014  -1.006  0.00  0.00    +0.210 A 
ATOM      2  N   UNL     1      -1.871  -5.469  -0.828  0.00  0.00    -0.187 NA
ATOM      3  C   UNL     1      -1.912  -6.712  -0.432  0.00  0.00    +0.219 A 
ATOM      4  N   UNL     1      -3.213  -7.086  -0.352  0.00  0.00    -0.220 N 
ATOM      5  N   UNL     1      -3.971  -5.976  -0.718  0.00  0.00    -0.141 NA
ATOM      6  C   UNL     1      -3.646  -8.422   0.051  0.00  0.00    +0.179 C 
ATOM      7  C   UNL     1      -2.478  -9.174   0.631  0.00  0.00    +0.060 C 
ATOM      8  C   UNL     1      -1.209  -8.751   0.524  0.00  0.00    +0.018 C 
ATOM      9  N   UNL     1      -0.878  -7.584  -0.120  0.00  0.00    -0.287 N 
ATOM     10  C   UNL     1      -0.111  -9.585   1.131  0.00  0.00    +0.061 C 
ATOM     11  H   UNL     1       0.042  -7.377  -0.347  0.00  0.00    +0.155 HD
ENDROOT
BRANCH   6  12
ATOM     12  C   UNL     1      -4.174  -9.163  -1.150  0.00  0.00    +0.012 A 
ATOM     13  C   UNL     1      -3.419  -9.233  -2.306  0.00  0.00    +0.008 A 
ATOM     14  C   UNL     1      -3.904  -9.913  -3.408  0.00  0.00    +0.000 A 
ATOM     15  C   UNL     1      -5.143 -10.523  -3.353  0.00  0.00    +0.002 A 
ATOM     16  C   UNL     1      -5.898 -10.453  -2.197  0.00  0.00    +0.033 A 
ATOM     17  C   UNL     1      -5.411  -9.777  -1.094  0.00  0.00    +0.132 A 
BRANCH  17  18
ATOM     18  N   UNL     1      -6.217  -9.706   0.146  0.00  0.00    +0.057 N 
ATOM     19  O   UNL     1      -7.234 -10.352   0.243  0.00  0.00    -0.126 OA
ATOM     20  O   UNL     1      -5.857  -9.004   1.061  0.00  0.00    -0.126 OA
ENDBRANCH  17  18
ENDBRANCH   6  12
BRANCH   7  21
ATOM     21  C   UNL     1      -2.730 -10.383   1.321  0.00  0.00    +0.248 C 
ATOM     22  O   UNL     1      -3.242 -10.358   2.426  0.00  0.00    -0.270 OA
ATOM     23  N   UNL     1      -2.403 -11.562   0.756  0.00  0.00    -0.279 N 
ATOM     24  H   UNL     1      -2.065 -11.587  -0.152  0.00  0.00    +0.155 HD
BRANCH  23  25
ATOM     25  C   UNL     1      -2.553 -12.751   1.481  0.00  0.00    +0.076 A 
ATOM     26  C   UNL     1      -3.591 -12.884   2.393  0.00  0.00    +0.027 A 
ATOM     27  C   UNL     1      -3.737 -14.058   3.107  0.00  0.00    +0.002 A 
ATOM     28  C   UNL     1      -2.851 -15.103   2.914  0.00  0.00    +0.004 A 
ATOM     29  C   UNL     1      -1.815 -14.978   2.008  0.00  0.00    +0.047 A 
ATOM     30  C   UNL     1      -1.665 -13.806   1.284  0.00  0.00    +0.142 A 
BRANCH  30  31
ATOM     31  O   UNL     1      -0.650 -13.684   0.388  0.00  0.00    -0.490 OA
BRANCH  31  32
ATOM     32  C   UNL     1       0.222 -14.806   0.238  0.00  0.00    +0.226 C 
ATOM     33  C   UNL     1       1.294 -14.484  -0.806  0.00  0.00    +0.048 C 
ENDBRANCH  31  32
ENDBRANCH  30  31
ENDBRANCH  23  25
ENDBRANCH   7  21
BRANCH   1  34
ATOM     34  S   UNL     1      -3.553  -3.390  -1.535  0.00  0.00    -0.084 S 
BRANCH  34  35
ATOM     35  C   UNL     1      -1.955  -2.563  -1.765  0.00  0.00    +0.077 C 
BRANCH  35  36
ATOM     36  C   UNL     1      -2.187  -1.124  -2.229  0.00  0.00    +0.011 C 
BRANCH  36  38
ATOM     37  C   UNL     1      -1.071   1.012  -2.888  0.00  0.00    +0.004 C 
ATOM     38  C   UNL     1      -0.839  -0.427  -2.423  0.00  0.00    -0.003 C 
ENDBRANCH  36  38
ENDBRANCH  35  36
ENDBRANCH  34  35
ENDBRANCH   1  34
TORSDOF 10
