REMARK  Name = ZINC39683439
REMARK  10 active torsions:
REMARK  status: ('A' for Active; 'I' for Inactive)
REMARK    1  A    between atoms: C_1  and  C_2
REMARK    2  A    between atoms: C_2  and  C_3
REMARK    3  A    between atoms: C_3  and  C_4
REMARK    4  A    between atoms: C_4  and  N_5
REMARK    5  A    between atoms: C_8  and  C_11
REMARK    6  A    between atoms: C_11  and  N_12
REMARK    7  A    between atoms: C_13  and  C_15
REMARK    8  A    between atoms: C_26  and  C_28
REMARK    9  A    between atoms: C_28  and  C_29
REMARK   10  A    between atoms: C_29  and  C_30
REMARK                            x       y       z     vdW  Elec       q    Type
REMARK                         _______ _______ _______ _____ _____    ______ ____
ROOT
ATOM      1  C   UNL     1       3.259  -8.030  -7.254  0.00  0.00    +0.100 C 
ATOM      2  C   UNL     1       4.109  -8.569  -6.082  0.00  0.00    +0.121 C 
ATOM      3  N   UNL     1       4.865  -9.706  -6.658  0.00  0.00    -0.300 N 
ATOM      4  C   UNL     1       5.243  -9.247  -8.016  0.00  0.00    +0.115 C 
ATOM      5  C   UNL     1       4.007  -8.476  -8.522  0.00  0.00    -0.004 C 
ATOM      6  C   UNL     1       4.440  -7.261  -9.335  0.00  0.00    -0.010 C 
ATOM      7  C   UNL     1       5.130  -7.730 -10.619  0.00  0.00    -0.082 C 
ATOM      8  N   UNL     1       4.204  -8.561 -11.399  0.00  0.00    +0.379 N 
ATOM      9  C   UNL     1       3.865  -9.775 -10.646  0.00  0.00    -0.082 C 
ATOM     10  C   UNL     1       3.122  -9.392  -9.363  0.00  0.00    -0.010 C 
ATOM     11  C   UNL     1       5.144 -10.891  -6.079  0.00  0.00    +0.216 C 
ATOM     12  O   UNL     1       5.779 -11.727  -6.686  0.00  0.00    -0.276 OA
ATOM     13  H   UNL     1       3.362  -8.038 -11.587  0.00  0.00    -0.086 HD
ATOM     14  H   UNL     1       4.639  -8.819 -12.272  0.00  0.00    -0.086 HD
ENDROOT
BRANCH   1  16
ATOM     15  N   UNL     1       2.101  -5.891  -7.699  0.00  0.00    -0.315 N 
ATOM     16  C   UNL     1       3.177  -6.527  -7.195  0.00  0.00    +0.218 C 
ATOM     17  O   UNL     1       4.079  -5.889  -6.694  0.00  0.00    -0.275 OA
ATOM     18  H   UNL     1       1.379  -6.401  -8.100  0.00  0.00    +0.149 HD
BRANCH  15  19
ATOM     19  C   UNL     1       2.021  -4.429  -7.642  0.00  0.00    +0.107 C 
BRANCH  19  23
ATOM     20  N   UNL     1      -1.753  -2.458  -8.030  0.00  0.00    +0.380 N 
ATOM     21  C   UNL     1      -0.668  -1.976  -8.893  0.00  0.00    -0.079 C 
ATOM     22  C   UNL     1       0.679  -2.435  -8.331  0.00  0.00    -0.014 C 
ATOM     23  C   UNL     1       0.708  -3.965  -8.277  0.00  0.00    +0.003 C 
ATOM     24  C   UNL     1      -0.471  -4.459  -7.435  0.00  0.00    -0.014 C 
ATOM     25  C   UNL     1      -1.776  -3.925  -8.031  0.00  0.00    -0.079 C 
ATOM     26  H   UNL     1      -1.605  -2.125  -7.089  0.00  0.00    -0.082 HD
BRANCH  20  27
ATOM     27  C   UNL     1      -3.038  -1.950  -8.530  0.00  0.00    -0.079 C 
BRANCH  27  28
ATOM     28  C   UNL     1      -3.063  -0.424  -8.414  0.00  0.00    -0.019 C 
BRANCH  28  30
ATOM     29  C   UNL     1      -4.426   1.630  -8.819  0.00  0.00    +0.004 C 
ATOM     30  C   UNL     1      -4.401   0.105  -8.935  0.00  0.00    -0.005 C 
ENDBRANCH  28  30
ENDBRANCH  27  28
ENDBRANCH  20  27
ENDBRANCH  19  23
ENDBRANCH  15  19
ENDBRANCH   1  16
BRANCH  11  31
ATOM     31  C   UNL     1       4.668 -11.175  -4.678  0.00  0.00    +0.096 C 
BRANCH  31  32
ATOM     32  C   UNL     1       5.115 -12.578  -4.263  0.00  0.00    +0.013 C 
BRANCH  32  33
ATOM     33  C   UNL     1       4.632 -12.868  -2.840  0.00  0.00    -0.011 C 
ATOM     34  C   UNL     1       5.375 -11.963  -1.835  0.00  0.00    +0.003 C 
ATOM     35  C   UNL     1       5.589 -12.867  -0.596  0.00  0.00    +0.000 C 
ATOM     36  C   UNL     1       5.900 -14.246  -1.230  0.00  0.00    +0.000 C 
ATOM     37  C   UNL     1       4.965 -14.319  -2.455  0.00  0.00    +0.003 C 
ENDBRANCH  32  33
ENDBRANCH  31  32
ENDBRANCH  11  31
TORSDOF 9
