REMARK  Name = ZINC12600499
REMARK  11 active torsions:
REMARK  status: ('A' for Active; 'I' for Inactive)
REMARK    1  A    between atoms: C_1  and  C_2
REMARK    2  A    between atoms: C_3  and  C_31
REMARK    3  A    between atoms: C_4  and  C_30
REMARK    4  A    between atoms: C_7  and  C_8
REMARK    5  A    between atoms: N_10  and  C_11
REMARK    6  A    between atoms: C_14  and  S_17
REMARK    7  A    between atoms: S_17  and  N_20
REMARK    8  A    between atoms: C_22  and  C_29
REMARK    9  A    between atoms: C_25  and  C_28
REMARK   10  A    between atoms: C_31  and  O_33
REMARK   11  A    between atoms: O_33  and  C_34
REMARK                            x       y       z     vdW  Elec       q    Type
REMARK                         _______ _______ _______ _____ _____    ______ ____
ROOT
ATOM      1  C   UNL     1      -2.246   3.373   6.640  0.00  0.00    +0.034 A 
ATOM      2  C   UNL     1      -2.978   3.037   5.508  0.00  0.00    +0.025 A 
ATOM      3  C   UNL     1      -2.479   2.109   4.616  0.00  0.00    +0.030 A 
ATOM      4  C   UNL     1      -1.252   1.515   4.848  0.00  0.00    +0.106 A 
ATOM      5  C   UNL     1      -0.524   1.843   5.976  0.00  0.00    +0.030 A 
ATOM      6  C   UNL     1      -1.014   2.774   6.870  0.00  0.00    +0.025 A 
ENDROOT
BRANCH   1   9
ATOM      7  C   UNL     1      -1.905   5.128   8.209  0.00  0.00    +0.265 C 
ATOM      8  O   UNL     1      -0.716   5.115   7.949  0.00  0.00    -0.268 OA
ATOM      9  N   UNL     1      -2.749   4.312   7.546  0.00  0.00    -0.280 N 
ATOM     10  H   UNL     1      -3.833   4.385   7.718  0.00  0.00    +0.155 HD
BRANCH   7  17
ATOM     11  C   UNL     1      -0.186   7.106   9.901  0.00  0.00    +0.047 C 
ATOM     12  C   UNL     1      -1.676   6.901   9.988  0.00  0.00    -0.006 A 
ATOM     13  C   UNL     1      -2.569   7.573  10.853  0.00  0.00    +0.083 A 
ATOM     14  C   UNL     1      -3.833   7.072  10.601  0.00  0.00    +0.028 A 
ATOM     15  N   UNL     1      -3.737   6.147   9.633  0.00  0.00    -0.354 N 
ATOM     16  H   UNL     1      -4.638   5.622   9.282  0.00  0.00    +0.166 HD
ATOM     17  C   UNL     1      -2.420   6.033   9.243  0.00  0.00    +0.106 A 
ATOM     18  C   UNL     1      -5.103   7.491  11.297  0.00  0.00    +0.064 C 
BRANCH  13  19
ATOM     19  C   UNL     1      -2.218   8.607  11.841  0.00  0.00    +0.341 C 
ATOM     20  O   UNL     1      -1.923   8.287  12.976  0.00  0.00    -0.245 OA
BRANCH  19  21
ATOM     21  O   UNL     1      -2.224   9.907  11.487  0.00  0.00    -0.464 OA
ATOM     22  C   UNL     1      -1.868  10.871  12.513  0.00  0.00    +0.280 C 
ENDBRANCH  19  21
ENDBRANCH  13  19
ENDBRANCH   7  17
ENDBRANCH   1   9
BRANCH   4  23
ATOM     23  S   UNL     1      -0.620   0.331   3.707  0.00  0.00    +0.061 S 
ATOM     24  O   UNL     1      -1.740  -0.210   3.019  0.00  0.00    -0.153 OA
ATOM     25  O   UNL     1       0.295  -0.482   4.430  0.00  0.00    -0.153 OA
BRANCH  23  26
ATOM     26  N   UNL     1       0.270   1.160   2.583  0.00  0.00    -0.176 NA
ATOM     27  C   UNL     1      -0.360   1.674   1.359  0.00  0.00    +0.112 C 
ATOM     28  C   UNL     1       0.429   1.167   0.148  0.00  0.00    +0.002 C 
ATOM     29  C   UNL     1       1.901   1.553   0.306  0.00  0.00    +0.009 C 
ATOM     30  C   UNL     1       2.471   0.893   1.564  0.00  0.00    +0.002 C 
ATOM     31  C   UNL     1       1.705   1.397   2.791  0.00  0.00    +0.112 C 
ATOM     32  C   UNL     1       3.952   1.253   1.703  0.00  0.00    +0.009 C 
ATOM     33  C   UNL     1      -0.131   1.800  -1.128  0.00  0.00    +0.009 C 
ENDBRANCH  23  26
ENDBRANCH   4  23
TORSDOF 6
