REMARK  Name = ZINC39404379
REMARK  9 active torsions:
REMARK  status: ('A' for Active; 'I' for Inactive)
REMARK    1  A    between atoms: C_1  and  C_2
REMARK    2  A    between atoms: C_2  and  S_3
REMARK    3  A    between atoms: S_3  and  C_4
REMARK    4  A    between atoms: C_10  and  C_12
REMARK    5  A    between atoms: C_12  and  S_13
REMARK    6  A    between atoms: S_13  and  C_14
REMARK    7  A    between atoms: N_20  and  N_21
REMARK    8  A    between atoms: C_22  and  C_23
REMARK    9  A    between atoms: C_22  and  C_24
REMARK                            x       y       z     vdW  Elec       q    Type
REMARK                         _______ _______ _______ _____ _____    ______ ____
ROOT
ATOM      1  C   UNL     1      -1.838  -8.845   0.085  0.00  0.00    +0.283 C 
ATOM      2  N   UNL     1      -2.190  -9.746   1.198  0.00  0.00    -0.324 N 
ATOM      3  C   UNL     1      -3.043 -10.594   0.692  0.00  0.00    +0.231 C 
ATOM      4  N   UNL     1      -3.273 -10.330  -0.627  0.00  0.00    -0.116 NA
ATOM      5  N   UNL     1      -2.628  -9.358  -1.046  0.00  0.00    -0.148 NA
ATOM      6  N   UNL     1      -3.633 -11.620   1.396  0.00  0.00    -0.205 N 
ATOM      7  H   UNL     1      -3.421 -11.749   2.334  0.00  0.00    +0.177 HD
ATOM      8  H   UNL     1      -1.859  -9.716   2.109  0.00  0.00    +0.165 HD
ENDROOT
BRANCH   6   9
ATOM      9  N   UNL     1      -4.538 -12.478   0.758  0.00  0.00    -0.184 NA
ATOM     10  C   UNL     1      -5.181 -13.372   1.446  0.00  0.00    +0.063 C 
ATOM     11  C   UNL     1      -6.010 -14.414   0.740  0.00  0.00    +0.068 C 
BRANCH  10  12
ATOM     12  C   UNL     1      -5.101 -13.367   2.918  0.00  0.00    +0.001 A 
ATOM     13  C   UNL     1      -5.056 -12.156   3.613  0.00  0.00    +0.013 A 
ATOM     14  C   UNL     1      -4.981 -12.155   4.990  0.00  0.00    +0.050 A 
ATOM     15  C   UNL     1      -4.950 -13.353   5.689  0.00  0.00    +0.166 A 
ATOM     16  C   UNL     1      -4.995 -14.565   5.002  0.00  0.00    +0.167 A 
ATOM     17  C   UNL     1      -5.075 -14.574   3.622  0.00  0.00    +0.059 A 
ATOM     18  O   UNL     1      -4.952 -15.584   5.910  0.00  0.00    -0.453 OA
ATOM     19  C   UNL     1      -4.468 -14.990   7.130  0.00  0.00    +0.466 C 
ATOM     20  O   UNL     1      -4.880 -13.614   7.027  0.00  0.00    -0.453 OA
ENDBRANCH  10  12
ENDBRANCH   6   9
BRANCH   1  21
ATOM     21  S   UNL     1      -2.312  -7.138   0.472  0.00  0.00    -0.102 S 
BRANCH  21  22
ATOM     22  C   UNL     1      -4.097  -7.238   0.782  0.00  0.00    +0.169 C 
BRANCH  22  29
ATOM     23  C   UNL     1      -7.691  -2.176   2.331  0.00  0.00    +0.160 A 
ATOM     24  N   UNL     1      -6.389  -2.205   2.087  0.00  0.00    -0.133 NA
ATOM     25  N   UNL     1      -5.790  -3.274   1.790  0.00  0.00    -0.125 NA
ATOM     26  C   UNL     1      -6.424  -4.432   1.702  0.00  0.00    +0.189 A 
ATOM     27  S   UNL     1      -8.087  -3.908   2.107  0.00  0.00    -0.024 S 
ATOM     28  N   UNL     1      -5.935  -5.698   1.390  0.00  0.00    -0.263 N 
ATOM     29  C   UNL     1      -4.626  -5.867   1.120  0.00  0.00    +0.229 C 
ATOM     30  O   UNL     1      -3.872  -4.917   1.149  0.00  0.00    -0.275 OA
ATOM     31  H   UNL     1      -6.537  -6.458   1.367  0.00  0.00    +0.157 HD
BRANCH  23  32
ATOM     32  S   UNL     1      -8.734  -0.822   2.760  0.00  0.00    -0.097 S 
BRANCH  32  34
ATOM     33  C   UNL     1      -8.398   1.863   3.159  0.00  0.00    +0.016 C 
ATOM     34  C   UNL     1      -7.611   0.603   2.794  0.00  0.00    +0.073 C 
ENDBRANCH  32  34
ENDBRANCH  23  32
ENDBRANCH  22  29
ENDBRANCH  21  22
ENDBRANCH   1  21
TORSDOF 7
