REMARK  Name = ZINC32578218
REMARK  9 active torsions:
REMARK  status: ('A' for Active; 'I' for Inactive)
REMARK    1  A    between atoms: C_1  and  C_2
REMARK    2  A    between atoms: C_5  and  C_7
REMARK    3  A    between atoms: C_7  and  N_8
REMARK    4  A    between atoms: C_9  and  C_11
REMARK    5  A    between atoms: N_14  and  C_16
REMARK    6  A    between atoms: C_19  and  N_22
REMARK    7  A    between atoms: N_22  and  C_23
REMARK    8  A    between atoms: C_23  and  C_24
REMARK    9  A    between atoms: C_24  and  N_30
REMARK                            x       y       z     vdW  Elec       q    Type
REMARK                         _______ _______ _______ _____ _____    ______ ____
ROOT
ATOM      1  C   UNL     1       2.818  -5.318  -3.084  0.00  0.00    +0.150 A 
ATOM      2  C   UNL     1       3.730  -6.298  -3.511  0.00  0.00    +0.004 A 
ATOM      3  C   UNL     1       3.778  -6.199  -4.862  0.00  0.00    +0.043 A 
ATOM      4  N   UNL     1       2.940  -5.210  -5.218  0.00  0.00    -0.270 N 
ATOM      5  N   UNL     1       2.381  -4.707  -4.172  0.00  0.00    -0.166 NA
ATOM      6  C   UNL     1       2.695  -4.773  -6.594  0.00  0.00    +0.172 C 
ATOM      7  C   UNL     1       4.636  -7.074  -5.739  0.00  0.00    +0.054 C 
ATOM      8  C   UNL     1       5.074  -8.295  -4.921  0.00  0.00    -0.009 C 
ATOM      9  C   UNL     1       5.652  -7.836  -3.580  0.00  0.00    -0.067 C 
ATOM     10  C   UNL     1       4.524  -7.282  -2.698  0.00  0.00    +0.023 C 
ENDROOT
BRANCH   1  12
ATOM     11  N   UNL     1       1.524  -4.057  -1.433  0.00  0.00    -0.303 N 
ATOM     12  C   UNL     1       2.421  -5.030  -1.691  0.00  0.00    +0.265 C 
ATOM     13  O   UNL     1       2.902  -5.671  -0.776  0.00  0.00    -0.268 OA
ATOM     14  H   UNL     1       1.140  -3.546  -2.162  0.00  0.00    +0.150 HD
BRANCH  11  15
ATOM     15  C   UNL     1       1.130  -3.772  -0.051  0.00  0.00    +0.179 C 
BRANCH  15  20
ATOM     16  C   UNL     1      -0.836   0.870   0.117  0.00  0.00    +0.086 C 
ATOM     17  C   UNL     1      -0.730  -0.631   0.036  0.00  0.00    +0.102 A 
ATOM     18  C   UNL     1      -1.762  -1.488  -0.065  0.00  0.00    +0.045 A 
ATOM     19  C   UNL     1      -1.211  -2.789  -0.112  0.00  0.00    +0.046 A 
ATOM     20  C   UNL     1       0.125  -2.649  -0.037  0.00  0.00    +0.122 A 
ATOM     21  O   UNL     1       0.410  -1.340   0.046  0.00  0.00    -0.463 OA
ENDBRANCH  15  20
ENDBRANCH  11  15
ENDBRANCH   1  12
BRANCH   9  22
ATOM     22  N   UNL     1       6.287  -8.975  -2.905  0.00  0.00    +0.380 N 
ATOM     23  H   UNL     1       6.596  -8.693  -1.986  0.00  0.00    -0.086 HD
ATOM     24  H   UNL     1       5.622  -9.729  -2.819  0.00  0.00    -0.086 HD
BRANCH  22  25
ATOM     25  C   UNL     1       7.442  -9.429  -3.691  0.00  0.00    -0.095 C 
BRANCH  25  26
ATOM     26  C   UNL     1       8.184 -10.524  -2.922  0.00  0.00    -0.081 C 
ATOM     27  C   UNL     1       9.458 -10.905  -3.679  0.00  0.00    -0.014 C 
ATOM     28  C   UNL     1       9.090 -11.419  -5.072  0.00  0.00    -0.001 C 
ATOM     29  C   UNL     1       8.189 -12.649  -4.939  0.00  0.00    -0.000 C 
ATOM     30  C   UNL     1       6.915 -12.268  -4.183  0.00  0.00    -0.001 C 
ATOM     31  C   UNL     1       7.283 -11.754  -2.790  0.00  0.00    -0.014 C 
BRANCH  26  32
ATOM     32  N   UNL     1       8.537 -10.030  -1.585  0.00  0.00    +0.382 N 
ATOM     33  C   UNL     1       9.317  -8.793  -1.712  0.00  0.00    -0.078 C 
ATOM     34  C   UNL     1       9.618  -8.230  -0.321  0.00  0.00    -0.019 C 
ATOM     35  C   UNL     1      10.421  -9.261   0.477  0.00  0.00    -0.004 C 
ATOM     36  C   UNL     1       9.632 -10.572   0.540  0.00  0.00    -0.019 C 
ATOM     37  C   UNL     1       9.329 -11.047  -0.882  0.00  0.00    -0.078 C 
ATOM     38  H   UNL     1       7.694  -9.842  -1.063  0.00  0.00    -0.081 HD
ENDBRANCH  26  32
ENDBRANCH  25  26
ENDBRANCH  22  25
ENDBRANCH   9  22
TORSDOF 7
