REMARK  Name = ZINC39515061
REMARK  8 active torsions:
REMARK  status: ('A' for Active; 'I' for Inactive)
REMARK    1  A    between atoms: C_1  and  C_2
REMARK    2  A    between atoms: C_2  and  C_3
REMARK    3  A    between atoms: C_2  and  C_4
REMARK    4  A    between atoms: C_2  and  C_5
REMARK    5  A    between atoms: C_8  and  O_25
REMARK    6  A    between atoms: C_9  and  N_11
REMARK    7  A    between atoms: C_12  and  C_14
REMARK    8  A    between atoms: C_14  and  C_15
REMARK                            x       y       z     vdW  Elec       q    Type
REMARK                         _______ _______ _______ _____ _____    ______ ____
ROOT
ATOM      1  N   UNL     1       4.013  -0.235  -2.833  0.00  0.00    -0.282 N 
ATOM      2  C   UNL     1       4.637   0.621  -2.000  0.00  0.00    +0.222 C 
ATOM      3  O   UNL     1       4.073   1.014  -1.001  0.00  0.00    -0.275 OA
ATOM      4  H   UNL     1       4.486  -0.601  -3.597  0.00  0.00    +0.155 HD
ENDROOT
BRANCH   1   9
ATOM      5  C   UNL     1       0.901  -1.087  -1.066  0.00  0.00    -0.040 A 
ATOM      6  C   UNL     1       0.045  -1.312  -2.128  0.00  0.00    +0.008 A 
ATOM      7  C   UNL     1       0.500  -1.181  -3.427  0.00  0.00    +0.047 A 
ATOM      8  C   UNL     1       1.817  -0.824  -3.667  0.00  0.00    +0.138 A 
ATOM      9  C   UNL     1       2.680  -0.597  -2.597  0.00  0.00    +0.076 A 
ATOM     10  C   UNL     1       2.214  -0.724  -1.296  0.00  0.00    +0.031 A 
BRANCH   5  12
ATOM     11  C   UNL     1       0.549   0.102   1.082  0.00  0.00    +0.015 C 
ATOM     12  C   UNL     1       0.398  -1.231   0.348  0.00  0.00    -0.013 C 
ATOM     13  C   UNL     1       1.212  -2.306   1.071  0.00  0.00    +0.015 C 
ATOM     14  C   UNL     1      -1.077  -1.637   0.325  0.00  0.00    +0.015 C 
ENDBRANCH   5  12
BRANCH   8  15
ATOM     15  O   UNL     1       2.267  -0.696  -4.944  0.00  0.00    -0.505 OA
ATOM     16  H   UNL     1       2.167   0.194  -5.309  0.00  0.00    +0.292 HD
ENDBRANCH   8  15
ENDBRANCH   1   9
BRANCH   2  17
ATOM     17  C   UNL     1       6.036   1.087  -2.309  0.00  0.00    +0.131 C 
BRANCH  17  18
ATOM     18  C   UNL     1       6.501   2.030  -1.229  0.00  0.00    -0.035 A 
ATOM     19  C   UNL     1       6.263   3.387  -1.349  0.00  0.00    +0.008 A 
ATOM     20  C   UNL     1       6.689   4.255  -0.361  0.00  0.00    +0.050 A 
ATOM     21  C   UNL     1       7.356   3.767   0.753  0.00  0.00    +0.162 A 
ATOM     22  C   UNL     1       7.592   2.403   0.875  0.00  0.00    +0.162 A 
ATOM     23  C   UNL     1       7.159   1.537  -0.118  0.00  0.00    +0.053 A 
ATOM     24  O   UNL     1       8.237   1.902   1.963  0.00  0.00    -0.485 OA
ATOM     25  C   UNL     1       8.979   2.834   2.757  0.00  0.00    +0.270 C 
ATOM     26  C   UNL     1       8.101   4.072   2.990  0.00  0.00    +0.270 C 
ATOM     27  O   UNL     1       7.773   4.635   1.716  0.00  0.00    -0.485 OA
ENDBRANCH  17  18
ENDBRANCH   2  17
TORSDOF 5
