REMARK  Name = ZINC18077248
REMARK  8 active torsions:
REMARK  status: ('A' for Active; 'I' for Inactive)
REMARK    1  A    between atoms: C_1  and  C_2
REMARK    2  A    between atoms: C_4  and  C_35
REMARK    3  A    between atoms: N_10  and  C_11
REMARK    4  A    between atoms: C_11  and  C_13
REMARK    5  A    between atoms: C_14  and  C_15
REMARK    6  A    between atoms: N_21  and  C_22
REMARK    7  A    between atoms: C_22  and  C_23
REMARK    8  A    between atoms: C_23  and  C_24
REMARK                            x       y       z     vdW  Elec       q    Type
REMARK                         _______ _______ _______ _____ _____    ______ ____
ROOT
ATOM      1  C   UNL     1       5.787   2.178   0.225  0.00  0.00    +0.066 C 
ATOM      2  C   UNL     1       5.774   3.642  -0.130  0.00  0.00    +0.044 A 
ATOM      3  C   UNL     1       6.950   4.294  -0.466  0.00  0.00    +0.046 A 
ATOM      4  C   UNL     1       6.892   5.641  -0.786  0.00  0.00    +0.044 A 
ATOM      5  N   UNL     1       5.724   6.261  -0.763  0.00  0.00    -0.217 NA
ATOM      6  C   UNL     1       4.618   5.608  -0.438  0.00  0.00    +0.231 A 
ATOM      7  N   UNL     1       4.639   4.322  -0.121  0.00  0.00    -0.217 NA
ATOM      8  N   UNL     1       3.409   6.290  -0.423  0.00  0.00    -0.297 N 
ATOM      9  C   UNL     1       2.256   5.632  -0.089  0.00  0.00    +0.196 C 
ATOM     10  N   UNL     1       2.295   4.346   0.219  0.00  0.00    -0.143 NA
ATOM     11  N   UNL     1       1.068   6.302  -0.074  0.00  0.00    -0.357 N 
ATOM     12  C   UNL     1       8.146   6.391  -1.158  0.00  0.00    +0.066 C 
ATOM     13  H   UNL     1       3.381   7.233  -0.649  0.00  0.00    +0.171 HD
ATOM     14  H   UNL     1       0.241   5.819   0.077  0.00  0.00    +0.162 HD
ENDROOT
BRANCH  10  15
ATOM     15  C   UNL     1       1.216   3.752   0.755  0.00  0.00    +0.263 C 
ATOM     16  O   UNL     1       0.242   4.418   1.061  0.00  0.00    -0.269 OA
BRANCH  15  17
ATOM     17  C   UNL     1       1.210   2.300   0.973  0.00  0.00    +0.070 C 
ATOM     18  C   UNL     1       0.129   1.704   1.510  0.00  0.00    +0.013 C 
BRANCH  18  19
ATOM     19  C   UNL     1       0.124   0.248   1.729  0.00  0.00    -0.025 A 
ATOM     20  C   UNL     1       1.237  -0.520   1.374  0.00  0.00    +0.008 A 
ATOM     21  C   UNL     1       1.226  -1.883   1.587  0.00  0.00    +0.001 A 
ATOM     22  C   UNL     1       0.113  -2.492   2.140  0.00  0.00    +0.000 A 
ATOM     23  C   UNL     1      -0.995  -1.739   2.488  0.00  0.00    +0.001 A 
ATOM     24  C   UNL     1      -0.997  -0.375   2.287  0.00  0.00    +0.008 A 
ENDBRANCH  18  19
ENDBRANCH  15  17
ENDBRANCH  10  15
BRANCH  11  25
ATOM     25  C   UNL     1       1.041   7.751  -0.287  0.00  0.00    +0.120 C 
BRANCH  25  26
ATOM     26  C   UNL     1      -0.404   8.250  -0.222  0.00  0.00    +0.058 C 
BRANCH  26  27
ATOM     27  C   UNL     1      -0.431   9.741  -0.440  0.00  0.00    -0.021 A 
ATOM     28  C   UNL     1      -0.437  10.687   0.512  0.00  0.00    +0.087 A 
ATOM     29  N   UNL     1      -0.463  11.928  -0.064  0.00  0.00    -0.360 N 
ATOM     30  H   UNL     1      -0.472  12.767   0.422  0.00  0.00    +0.165 HD
ATOM     31  C   UNL     1      -0.475  11.807  -1.437  0.00  0.00    +0.047 A 
ATOM     32  C   UNL     1      -0.450  10.432  -1.732  0.00  0.00    +0.006 A 
ATOM     33  C   UNL     1      -0.460  10.003  -3.061  0.00  0.00    +0.048 A 
ATOM     34  C   UNL     1      -0.486  10.934  -4.077  0.00  0.00    +0.124 A 
ATOM     35  C   UNL     1      -0.506  12.293  -3.783  0.00  0.00    +0.040 A 
ATOM     36  C   UNL     1      -0.500  12.729  -2.477  0.00  0.00    +0.029 A 
ATOM     37  F   UNL     1      -0.492  10.524  -5.364  0.00  0.00    -0.205 F 
ENDBRANCH  26  27
ENDBRANCH  25  26
ENDBRANCH  11  25
TORSDOF 6
