REMARK  Name = ZINC05005250
REMARK  5 active torsions:
REMARK  status: ('A' for Active; 'I' for Inactive)
REMARK    1  A    between atoms: C_4  and  C_7
REMARK    2  A    between atoms: C_7  and  C_26
REMARK    3  A    between atoms: C_9  and  C_11
REMARK    4  A    between atoms: N_13  and  N_14
REMARK    5  A    between atoms: C_15  and  C_16
REMARK                            x       y       z     vdW  Elec       q    Type
REMARK                         _______ _______ _______ _____ _____    ______ ____
ROOT
ATOM      1  C   UNL     1       4.572  -2.265  -1.329  0.00  0.00    +0.236 C 
ATOM      2  O   UNL     1       5.350  -1.461  -1.797  0.00  0.00    -0.274 OA
ATOM      3  N   UNL     1       4.578  -3.540  -1.766  0.00  0.00    -0.207 N 
ATOM      4  H   UNL     1       3.956  -4.184  -1.392  0.00  0.00    +0.177 HD
ENDROOT
BRANCH   1   7
ATOM      5  C   UNL     1       2.179  -1.482  -0.697  0.00  0.00    +0.033 C 
ATOM      6  C   UNL     1       3.146  -0.379  -0.258  0.00  0.00    +0.031 C 
ATOM      7  C   UNL     1       3.601  -1.840  -0.258  0.00  0.00    +0.093 C 
BRANCH   5  11
ATOM      8  C   UNL     1      -1.014  -2.480   1.959  0.00  0.00    +0.000 A 
ATOM      9  C   UNL     1      -1.274  -1.769   0.802  0.00  0.00    +0.000 A 
ATOM     10  C   UNL     1      -0.240  -1.446  -0.057  0.00  0.00    +0.004 A 
ATOM     11  C   UNL     1       1.053  -1.833   0.241  0.00  0.00    -0.036 A 
ATOM     12  C   UNL     1       1.313  -2.543   1.398  0.00  0.00    +0.004 A 
ATOM     13  C   UNL     1       0.279  -2.868   2.257  0.00  0.00    +0.000 A 
ENDBRANCH   5  11
BRANCH   5  14
ATOM     14  C   UNL     1       1.858  -1.582  -2.165  0.00  0.00    -0.036 A 
ATOM     15  C   UNL     1       1.832  -0.441  -2.946  0.00  0.00    +0.004 A 
ATOM     16  C   UNL     1       1.537  -0.533  -4.294  0.00  0.00    +0.000 A 
ATOM     17  C   UNL     1       1.268  -1.765  -4.860  0.00  0.00    +0.000 A 
ATOM     18  C   UNL     1       1.296  -2.906  -4.079  0.00  0.00    +0.000 A 
ATOM     19  C   UNL     1       1.595  -2.814  -2.733  0.00  0.00    +0.004 A 
ENDBRANCH   5  14
ENDBRANCH   1   7
BRANCH   3  20
ATOM     20  N   UNL     1       5.481  -3.936  -2.761  0.00  0.00    -0.185 NA
ATOM     21  C   UNL     1       5.486  -5.165  -3.183  0.00  0.00    +0.176 C 
BRANCH  21  22
ATOM     22  C   UNL     1       6.433  -5.580  -4.226  0.00  0.00    +0.152 A 
ATOM     23  N   UNL     1       6.526  -6.844  -4.752  0.00  0.00    -0.337 N 
ATOM     24  H   UNL     1       5.987  -7.612  -4.505  0.00  0.00    +0.167 HD
ATOM     25  C   UNL     1       7.532  -6.816  -5.698  0.00  0.00    +0.066 A 
ATOM     26  C   UNL     1       8.081  -7.766  -6.547  0.00  0.00    +0.028 A 
ATOM     27  C   UNL     1       9.107  -7.411  -7.398  0.00  0.00    +0.002 A 
ATOM     28  C   UNL     1       9.593  -6.111  -7.411  0.00  0.00    +0.002 A 
ATOM     29  C   UNL     1       9.066  -5.162  -6.582  0.00  0.00    +0.030 A 
ATOM     30  C   UNL     1       8.024  -5.497  -5.710  0.00  0.00    +0.089 A 
ATOM     31  N   UNL     1       7.315  -4.796  -4.802  0.00  0.00    -0.227 NA
ENDBRANCH  21  22
ENDBRANCH   3  20
TORSDOF 5
