REMARK  Name = ZINC20761582
REMARK  6 active torsions:
REMARK  status: ('A' for Active; 'I' for Inactive)
REMARK    1  A    between atoms: C_1  and  C_2
REMARK    2  A    between atoms: C_6  and  N_9
REMARK    3  A    between atoms: C_7  and  C_8
REMARK    4  A    between atoms: C_37  and  C_39
REMARK    5  A    between atoms: C_39  and  C_40
REMARK    6  A    between atoms: C_39  and  C_41
REMARK                            x       y       z     vdW  Elec       q    Type
REMARK                         _______ _______ _______ _____ _____    ______ ____
ROOT
ATOM      1  N   UNL     1       0.050  -2.798   2.395  0.00  0.00    -0.210 N 
ATOM      2  C   UNL     1      -1.067  -3.184   3.022  0.00  0.00    +0.232 C 
ATOM      3  O   UNL     1      -2.196  -2.972   2.634  0.00  0.00    -0.274 OA
ATOM      4  C   UNL     1      -0.703  -3.925   4.288  0.00  0.00    +0.107 C 
ATOM      5  C   UNL     1       0.851  -3.894   4.287  0.00  0.00    +0.121 C 
ATOM      6  C   UNL     1       1.183  -3.150   3.014  0.00  0.00    +0.233 C 
ATOM      7  O   UNL     1       2.303  -2.907   2.616  0.00  0.00    -0.274 OA
ATOM      8  C   UNL     1       1.267  -5.365   4.163  0.00  0.00    +0.118 C 
ATOM      9  C   UNL     1       1.627  -5.722   2.751  0.00  0.00    +0.005 A 
ATOM     10  C   UNL     1       0.934  -5.686   1.560  0.00  0.00    +0.008 A 
ATOM     11  C   UNL     1       1.550  -6.091   0.389  0.00  0.00    +0.000 A 
ATOM     12  C   UNL     1       2.861  -6.532   0.416  0.00  0.00    +0.002 A 
ATOM     13  C   UNL     1       3.558  -6.569   1.606  0.00  0.00    +0.026 A 
ATOM     14  C   UNL     1       2.944  -6.163   2.789  0.00  0.00    +0.057 A 
ATOM     15  N   UNL     1       3.444  -6.115   4.100  0.00  0.00    -0.262 N 
ATOM     16  C   UNL     1       2.506  -5.651   4.975  0.00  0.00    +0.143 A 
ATOM     17  N   UNL     1       2.730  -5.515   6.251  0.00  0.00    -0.231 NA
ATOM     18  C   UNL     1       3.922  -5.828   6.811  0.00  0.00    +0.078 A 
ATOM     19  C   UNL     1       4.153  -5.681   8.180  0.00  0.00    +0.028 A 
ATOM     20  C   UNL     1       5.382  -6.013   8.704  0.00  0.00    +0.002 A 
ATOM     21  C   UNL     1       6.398  -6.493   7.887  0.00  0.00    +0.001 A 
ATOM     22  C   UNL     1       6.194  -6.647   6.533  0.00  0.00    +0.015 A 
ATOM     23  C   UNL     1       4.957  -6.317   5.983  0.00  0.00    +0.065 A 
ATOM     24  C   UNL     1       4.680  -6.460   4.548  0.00  0.00    +0.266 A 
ATOM     25  O   UNL     1       5.531  -6.875   3.784  0.00  0.00    -0.267 OA
ATOM     26  N   UNL     1       0.120  -6.153   4.648  0.00  0.00    -0.296 NA
ATOM     27  C   UNL     1      -1.085  -5.413   4.131  0.00  0.00    +0.070 C 
ATOM     28  H   UNL     1       0.147  -7.093   4.283  0.00  0.00    +0.123 HD
ENDROOT
BRANCH   1  34
ATOM     29  C   UNL     1      -0.018   1.503   0.010  0.00  0.00    +0.044 C 
ATOM     30  C   UNL     1       0.002  -0.004   0.002  0.00  0.00    -0.046 A 
ATOM     31  C   UNL     1       0.006  -0.688  -1.200  0.00  0.00    +0.004 A 
ATOM     32  C   UNL     1       0.024  -2.071  -1.211  0.00  0.00    +0.002 A 
ATOM     33  C   UNL     1       0.039  -2.773  -0.022  0.00  0.00    +0.024 A 
ATOM     34  C   UNL     1       0.035  -2.089   1.186  0.00  0.00    +0.047 A 
ATOM     35  C   UNL     1       0.023  -0.700   1.194  0.00  0.00    -0.026 A 
ATOM     36  C   UNL     1       0.025   0.046   2.504  0.00  0.00    +0.046 C 
ENDBRANCH   1  34
BRANCH  27  37
ATOM     37  C   UNL     1      -2.316  -5.740   4.979  0.00  0.00    +0.001 C 
ATOM     38  C   UNL     1      -2.675  -7.217   4.808  0.00  0.00    +0.009 C 
ATOM     39  C   UNL     1      -2.011  -5.456   6.451  0.00  0.00    +0.009 C 
ENDBRANCH  27  37
TORSDOF 2
