REMARK  Name = ZINC08430530
REMARK  8 active torsions:
REMARK  status: ('A' for Active; 'I' for Inactive)
REMARK    1  A    between atoms: C_1  and  C_2
REMARK    2  A    between atoms: C_2  and  O_3
REMARK    3  A    between atoms: O_3  and  C_4
REMARK    4  A    between atoms: C_7  and  C_12
REMARK    5  A    between atoms: C_9  and  O_10
REMARK    6  A    between atoms: O_10  and  C_11
REMARK    7  A    between atoms: C_17  and  C_27
REMARK    8  A    between atoms: C_31  and  O_33
REMARK                            x       y       z     vdW  Elec       q    Type
REMARK                         _______ _______ _______ _____ _____    ______ ____
ROOT
ATOM      1  C   UNL     1      -2.360   1.315   3.608  0.00  0.00    +0.032 C 
ATOM      2  C   UNL     1      -1.657   2.617   3.227  0.00  0.00    +0.059 C 
ATOM      3  C   UNL     1      -0.650   2.354   2.118  0.00  0.00    +0.017 C 
ATOM      4  C   UNL     1      -0.897   1.419   1.188  0.00  0.00    +0.036 C 
ATOM      5  C   UNL     1      -0.013   1.086   0.008  0.00  0.00    +0.136 C 
ATOM      6  N   UNL     1       1.306   1.680   0.067  0.00  0.00    -0.331 N 
ATOM      7  C   UNL     1       1.474   3.062   0.027  0.00  0.00    +0.049 A 
ATOM      8  C   UNL     1       2.102   3.681  -1.043  0.00  0.00    +0.025 A 
ATOM      9  C   UNL     1       2.207   5.060  -1.067  0.00  0.00    +0.002 A 
ATOM     10  C   UNL     1       1.687   5.820  -0.035  0.00  0.00    +0.002 A 
ATOM     11  C   UNL     1       1.074   5.205   1.044  0.00  0.00    +0.025 A 
ATOM     12  C   UNL     1       0.990   3.825   1.079  0.00  0.00    +0.052 A 
ATOM     13  N   UNL     1       0.458   3.139   2.166  0.00  0.00    -0.316 N 
ATOM     14  C   UNL     1      -2.072   0.634   1.259  0.00  0.00    +0.163 C 
ATOM     15  O   UNL     1      -2.273  -0.198   0.395  0.00  0.00    -0.292 OA
ATOM     16  C   UNL     1      -3.077   0.789   2.360  0.00  0.00    +0.088 C 
ATOM     17  H   UNL     1       2.085   1.107   0.136  0.00  0.00    +0.147 HD
ATOM     18  H   UNL     1       0.910   3.228   3.020  0.00  0.00    +0.152 HD
ENDROOT
BRANCH   1  22
ATOM     19  C   UNL     1      -5.210   2.063   6.707  0.00  0.00    +0.162 A 
ATOM     20  C   UNL     1      -5.325   2.707   5.486  0.00  0.00    +0.050 A 
ATOM     21  C   UNL     1      -4.402   2.463   4.486  0.00  0.00    +0.008 A 
ATOM     22  C   UNL     1      -3.363   1.577   4.702  0.00  0.00    -0.040 A 
ATOM     23  C   UNL     1      -3.245   0.928   5.917  0.00  0.00    +0.053 A 
ATOM     24  C   UNL     1      -4.164   1.172   6.925  0.00  0.00    +0.162 A 
BRANCH  24  25
ATOM     25  O   UNL     1      -4.046   0.537   8.122  0.00  0.00    -0.491 OA
ATOM     26  C   UNL     1      -2.948  -0.364   8.273  0.00  0.00    +0.277 C 
ENDBRANCH  24  25
BRANCH  19  27
ATOM     27  O   UNL     1      -6.117   2.302   7.692  0.00  0.00    -0.489 OA
BRANCH  27  29
ATOM     28  C   UNL     1      -8.080   3.367   8.617  0.00  0.00    +0.048 C 
ATOM     29  C   UNL     1      -7.165   3.229   7.398  0.00  0.00    +0.226 C 
ENDBRANCH  27  29
ENDBRANCH  19  27
ENDBRANCH   1  22
BRANCH   5  30
ATOM     30  C   UNL     1      -0.696   1.561  -1.248  0.00  0.00    -0.019 A 
ATOM     31  C   UNL     1      -1.123   0.644  -2.191  0.00  0.00    +0.006 A 
ATOM     32  C   UNL     1      -1.751   1.077  -3.345  0.00  0.00    +0.004 A 
ATOM     33  C   UNL     1      -1.952   2.427  -3.558  0.00  0.00    +0.045 A 
ATOM     34  C   UNL     1      -1.525   3.348  -2.614  0.00  0.00    +0.117 A 
ATOM     35  C   UNL     1      -0.900   2.911  -1.454  0.00  0.00    +0.051 A 
BRANCH  34  36
ATOM     36  O   UNL     1      -1.723   4.677  -2.821  0.00  0.00    -0.507 OA
ATOM     37  H   UNL     1      -2.563   5.008  -2.475  0.00  0.00    +0.292 HD
ENDBRANCH  34  36
ENDBRANCH   5  30
TORSDOF 6
