REMARK  Name = ZINC15015565
REMARK  12 active torsions:
REMARK  status: ('A' for Active; 'I' for Inactive)
REMARK    1  A    between atoms: C_1  and  C_2
REMARK    2  A    between atoms: N_16  and  N_17
REMARK    3  A    between atoms: C_18  and  C_19
REMARK    4  A    between atoms: C_21  and  C_30
REMARK    5  A    between atoms: C_22  and  O_29
REMARK    6  A    between atoms: C_23  and  C_25
REMARK    7  A    between atoms: C_25  and  C_26
REMARK    8  A    between atoms: C_25  and  C_27
REMARK    9  A    between atoms: C_25  and  C_28
REMARK   10  A    between atoms: C_30  and  C_31
REMARK   11  A    between atoms: C_30  and  C_32
REMARK   12  A    between atoms: C_30  and  C_33
REMARK                            x       y       z     vdW  Elec       q    Type
REMARK                         _______ _______ _______ _____ _____    ______ ____
ROOT
ATOM      1  N   UNL     1      -0.017   1.397   0.010  0.00  0.00    -0.187 NA
ATOM      2  C   UNL     1       1.098   2.061   0.003  0.00  0.00    +0.138 C 
ENDROOT
BRANCH   1  18
ATOM      3  C   UNL     1      -4.097  -6.755   0.004  0.00  0.00    +0.046 C 
ATOM      4  C   UNL     1      -4.751  -5.397   0.018  0.00  0.00    -0.026 A 
ATOM      5  C   UNL     1      -6.126  -5.295   0.031  0.00  0.00    +0.005 A 
ATOM      6  C   UNL     1      -6.739  -4.052   0.043  0.00  0.00    +0.001 A 
ATOM      7  C   UNL     1      -5.979  -2.902   0.043  0.00  0.00    +0.012 A 
ATOM      8  C   UNL     1      -4.589  -2.991   0.030  0.00  0.00    +0.029 A 
ATOM      9  C   UNL     1      -3.966  -4.249   0.017  0.00  0.00    +0.053 A 
ATOM     10  N   UNL     1      -2.594  -4.058   0.005  0.00  0.00    -0.337 N 
ATOM     11  H   UNL     1      -1.936  -4.770  -0.005  0.00  0.00    +0.167 HD
ATOM     12  C   UNL     1      -2.298  -2.717   0.009  0.00  0.00    +0.163 A 
ATOM     13  C   UNL     1      -3.507  -1.992   0.025  0.00  0.00    +0.138 A 
ATOM     14  N   UNL     1      -3.472  -0.667   0.032  0.00  0.00    -0.142 NA
ATOM     15  N   UNL     1      -2.340  -0.051   0.030  0.00  0.00    -0.111 NA
ATOM     16  C   UNL     1      -1.187  -0.713   0.010  0.00  0.00    +0.256 A 
ATOM     17  N   UNL     1      -1.155  -2.039   0.002  0.00  0.00    -0.192 NA
ATOM     18  N   UNL     1       0.002  -0.004   0.002  0.00  0.00    -0.204 N 
ATOM     19  H   UNL     1       0.849  -0.478  -0.009  0.00  0.00    +0.177 HD
ENDBRANCH   1  18
BRANCH   2  20
ATOM     20  C   UNL     1       1.078   3.535   0.011  0.00  0.00    -0.005 A 
ATOM     21  C   UNL     1      -0.140   4.220   0.020  0.00  0.00    +0.017 A 
ATOM     22  C   UNL     1      -0.154   5.598   0.033  0.00  0.00    +0.000 A 
ATOM     23  C   UNL     1       1.041   6.306   0.026  0.00  0.00    +0.124 A 
ATOM     24  C   UNL     1       2.254   5.630   0.011  0.00  0.00    +0.000 A 
ATOM     25  C   UNL     1       2.277   4.252   0.003  0.00  0.00    +0.017 A 
BRANCH  24  26
ATOM     26  C   UNL     1       3.547   6.405   0.003  0.00  0.00    -0.009 C 
ATOM     27  C   UNL     1       4.725   5.430  -0.014  0.00  0.00    +0.015 C 
ATOM     28  C   UNL     1       3.601   7.293  -1.242  0.00  0.00    +0.015 C 
ATOM     29  C   UNL     1       3.625   7.279   1.256  0.00  0.00    +0.015 C 
ENDBRANCH  24  26
BRANCH  22  30
ATOM     30  C   UNL     1      -1.467   6.337   0.049  0.00  0.00    -0.009 C 
ATOM     31  C   UNL     1      -2.619   5.330   0.055  0.00  0.00    +0.015 C 
ATOM     32  C   UNL     1      -1.546   7.209   1.304  0.00  0.00    +0.015 C 
ATOM     33  C   UNL     1      -1.569   7.222  -1.195  0.00  0.00    +0.015 C 
ENDBRANCH  22  30
BRANCH  23  34
ATOM     34  O   UNL     1       1.022   7.665   0.033  0.00  0.00    -0.506 OA
ATOM     35  H   UNL     1       1.009   8.063  -0.848  0.00  0.00    +0.292 HD
ENDBRANCH  23  34
ENDBRANCH   2  20
TORSDOF 5
