REMARK  Name = ZINC08809766
REMARK  7 active torsions:
REMARK  status: ('A' for Active; 'I' for Inactive)
REMARK    1  A    between atoms: C_1  and  C_2
REMARK    2  A    between atoms: C_6  and  N_9
REMARK    3  A    between atoms: C_7  and  C_8
REMARK    4  A    between atoms: C_19  and  C_22
REMARK    5  A    between atoms: N_23  and  N_24
REMARK    6  A    between atoms: C_25  and  C_26
REMARK    7  A    between atoms: C_31  and  O_32
REMARK                            x       y       z     vdW  Elec       q    Type
REMARK                         _______ _______ _______ _____ _____    ______ ____
ROOT
ATOM      1  N   UNL     1      -0.899  -2.716   2.341  0.00  0.00    -0.283 N 
ATOM      2  C   UNL     1      -0.781  -4.093   2.332  0.00  0.00    +0.225 A 
ATOM      3  N   UNL     1      -0.793  -4.753   1.178  0.00  0.00    -0.179 NA
ATOM      4  C   UNL     1      -0.680  -6.078   1.170  0.00  0.00    +0.241 A 
ATOM      5  N   UNL     1      -0.554  -6.742   2.315  0.00  0.00    -0.180 NA
ATOM      6  C   UNL     1      -0.541  -6.082   3.468  0.00  0.00    +0.224 A 
ATOM      7  N   UNL     1      -0.650  -4.756   3.477  0.00  0.00    -0.181 NA
ATOM      8  N   UNL     1      -0.411  -6.771   4.657  0.00  0.00    -0.299 N 
ATOM      9  C   UNL     1      -0.402  -6.055   5.940  0.00  0.00    +0.108 C 
ATOM     10  C   UNL     1       0.853  -6.458   6.721  0.00  0.00    +0.022 C 
ATOM     11  C   UNL     1       0.900  -7.982   6.851  0.00  0.00    -0.011 C 
ATOM     12  C   UNL     1       0.974  -8.613   5.458  0.00  0.00    +0.022 C 
ATOM     13  C   UNL     1      -0.285  -8.235   4.664  0.00  0.00    +0.108 C 
ATOM     14  C   UNL     1       2.134  -8.386   7.660  0.00  0.00    +0.007 C 
ATOM     15  N   UNL     1      -0.693  -6.764  -0.029  0.00  0.00    -0.205 N 
ATOM     16  H   UNL     1      -0.824  -2.229   3.176  0.00  0.00    +0.155 HD
ATOM     17  H   UNL     1      -0.703  -6.276  -0.867  0.00  0.00    +0.177 HD
ENDROOT
BRANCH   1  23
ATOM     18  C   UNL     1      -2.886   1.109  -0.023  0.00  0.00    +0.044 C 
ATOM     19  C   UNL     1      -2.087  -0.169  -0.029  0.00  0.00    -0.046 A 
ATOM     20  C   UNL     1      -1.579  -0.661  -1.217  0.00  0.00    +0.004 A 
ATOM     21  C   UNL     1      -0.846  -1.833  -1.227  0.00  0.00    +0.002 A 
ATOM     22  C   UNL     1      -0.619  -2.517  -0.049  0.00  0.00    +0.023 A 
ATOM     23  C   UNL     1      -1.128  -2.026   1.147  0.00  0.00    +0.037 A 
ATOM     24  C   UNL     1      -1.859  -0.845   1.154  0.00  0.00    -0.026 A 
ATOM     25  C   UNL     1      -2.408  -0.306   2.449  0.00  0.00    +0.046 C 
ENDBRANCH   1  23
BRANCH  15  26
ATOM     26  N   UNL     1      -0.692  -8.165  -0.034  0.00  0.00    -0.187 NA
ATOM     27  C   UNL     1      -0.785  -8.810  -1.156  0.00  0.00    +0.142 C 
BRANCH  27  28
ATOM     28  C   UNL     1      -0.890 -10.281  -1.154  0.00  0.00    +0.036 A 
ATOM     29  C   UNL     1      -0.877 -10.987  -2.359  0.00  0.00    +0.013 A 
ATOM     30  C   UNL     1      -0.975 -12.362  -2.351  0.00  0.00    +0.001 A 
ATOM     31  C   UNL     1      -1.087 -13.047  -1.153  0.00  0.00    +0.004 A 
ATOM     32  C   UNL     1      -1.101 -12.359   0.046  0.00  0.00    +0.046 A 
ATOM     33  C   UNL     1      -0.998 -10.978   0.056  0.00  0.00    +0.125 A 
BRANCH  33  34
ATOM     34  O   UNL     1      -1.007 -10.302   1.234  0.00  0.00    -0.506 OA
ATOM     35  H   UNL     1      -1.881  -9.985   1.500  0.00  0.00    +0.292 HD
ENDBRANCH  33  34
ENDBRANCH  27  28
ENDBRANCH  15  26
TORSDOF 4
