REMARK  Name = ZINC65563750
REMARK  6 active torsions:
REMARK  status: ('A' for Active; 'I' for Inactive)
REMARK    1  A    between atoms: C_1  and  C_2
REMARK    2  A    between atoms: C_7  and  C_11
REMARK    3  A    between atoms: C_11  and  N_12
REMARK    4  A    between atoms: C_13  and  C_15
REMARK    5  A    between atoms: C_15  and  C_16
REMARK    6  A    between atoms: C_23  and  C_28
REMARK                            x       y       z     vdW  Elec       q    Type
REMARK                         _______ _______ _______ _____ _____    ______ ____
ROOT
ATOM      1  C   UNL     1       3.154  -7.368   3.688  0.00  0.00    +0.119 C 
ENDROOT
BRANCH   1   2
ATOM      2  C   UNL     1       3.174  -8.693   4.453  0.00  0.00    +0.146 C 
ATOM      3  C   UNL     1       4.579  -8.995   4.905  0.00  0.00    +0.231 C 
ATOM      4  O   UNL     1       4.889  -8.725   6.046  0.00  0.00    -0.274 OA
ATOM      5  N   UNL     1       5.496  -9.543   4.114  0.00  0.00    -0.284 N 
ATOM      6  C   UNL     1       5.299 -10.026   2.824  0.00  0.00    +0.047 A 
ATOM      7  C   UNL     1       6.402 -10.249   2.007  0.00  0.00    +0.036 A 
ATOM      8  C   UNL     1       6.232 -10.719   0.720  0.00  0.00    +0.057 A 
ATOM      9  C   UNL     1       4.965 -10.973   0.228  0.00  0.00    +0.013 A 
ATOM     10  C   UNL     1       3.859 -10.759   1.030  0.00  0.00    +0.017 A 
ATOM     11  C   UNL     1       4.025 -10.293   2.324  0.00  0.00    +0.030 A 
ATOM     12  S   UNL     1       2.613 -10.037   3.363  0.00  0.00    -0.110 S 
ATOM     13  H   UNL     1       6.395  -9.614   4.473  0.00  0.00    +0.155 HD
BRANCH   8  14
ATOM     14  C   UNL     1       7.436 -10.957  -0.155  0.00  0.00    +0.417 C 
ATOM     15  F   UNL     1       7.885 -12.271   0.017  0.00  0.00    -0.166 F 
ATOM     16  F   UNL     1       7.086 -10.756  -1.495  0.00  0.00    -0.166 F 
ATOM     17  F   UNL     1       8.454 -10.066   0.200  0.00  0.00    -0.166 F 
ENDBRANCH   8  14
ENDBRANCH   1   2
BRANCH   1  19
ATOM     18  N   UNL     1       1.469  -5.880   2.655  0.00  0.00    -0.310 N 
ATOM     19  C   UNL     1       1.732  -7.014   3.335  0.00  0.00    +0.215 C 
ATOM     20  O   UNL     1       0.825  -7.749   3.664  0.00  0.00    -0.276 OA
ATOM     21  H   UNL     1       2.195  -5.293   2.393  0.00  0.00    +0.149 HD
BRANCH  18  22
ATOM     22  C   UNL     1       0.087  -5.536   2.312  0.00  0.00    +0.159 C 
BRANCH  22  29
ATOM     23  C   UNL     1      -0.018   1.503   0.010  0.00  0.00    +0.044 C 
ATOM     24  C   UNL     1       0.002  -0.004   0.002  0.00  0.00    -0.046 A 
ATOM     25  C   UNL     1       0.006  -0.703  -1.216  0.00  0.00    +0.021 A 
ATOM     26  C   UNL     1       0.025  -2.052  -1.227  0.00  0.00    +0.093 A 
ATOM     27  N   UNL     1       0.040  -2.757  -0.058  0.00  0.00    -0.308 N 
ATOM     28  C   UNL     1       0.059  -4.097   0.214  0.00  0.00    +0.115 A 
ATOM     29  C   UNL     1       0.067  -4.231   1.559  0.00  0.00    +0.051 A 
ATOM     30  N   UNL     1       0.053  -3.014   2.108  0.00  0.00    -0.342 N 
ATOM     31  C   UNL     1       0.036  -2.103   1.146  0.00  0.00    +0.116 A 
ATOM     32  C   UNL     1       0.023  -0.694   1.174  0.00  0.00    +0.048 A 
ATOM     33  H   UNL     1       0.055  -2.827   3.060  0.00  0.00    +0.167 HD
ENDBRANCH  22  29
ENDBRANCH  18  22
ENDBRANCH   1  19
TORSDOF 5
