REMARK  Name = ZINC36082449
REMARK  7 active torsions:
REMARK  status: ('A' for Active; 'I' for Inactive)
REMARK    1  A    between atoms: C_3  and  C_10
REMARK    2  A    between atoms: C_5  and  N_7
REMARK    3  A    between atoms: C_13  and  C_15
REMARK    4  A    between atoms: C_15  and  C_33
REMARK    5  A    between atoms: C_16  and  N_17
REMARK    6  A    between atoms: C_22  and  C_29
REMARK    7  A    between atoms: C_24  and  O_25
REMARK                            x       y       z     vdW  Elec       q    Type
REMARK                         _______ _______ _______ _____ _____    ______ ____
ROOT
ATOM      1  C   UNL     1       7.455   1.828   0.993  0.00  0.00    +0.100 C 
ATOM      2  C   UNL     1       8.489   2.769   0.759  0.00  0.00    +0.104 C 
ENDROOT
BRANCH   2   3
ATOM      3  N   UNL     1       9.691   2.356   0.444  0.00  0.00    -0.360 N 
ATOM      4  C   UNL     1      10.668   3.257   0.169  0.00  0.00    +0.043 A 
ATOM      5  C   UNL     1      11.987   2.817  -0.050  0.00  0.00    +0.026 A 
ATOM      6  C   UNL     1      12.973   3.711  -0.326  0.00  0.00    +0.014 A 
ATOM      7  C   UNL     1      12.680   5.083  -0.394  0.00  0.00    +0.029 A 
ATOM      8  C   UNL     1      13.695   6.028  -0.680  0.00  0.00    +0.072 A 
ATOM      9  C   UNL     1      13.361   7.352  -0.736  0.00  0.00    +0.100 A 
ATOM     10  C   UNL     1      12.043   7.747  -0.513  0.00  0.00    +0.285 A 
ATOM     11  O   UNL     1      11.086   6.855  -0.243  0.00  0.00    -0.425 OA
ATOM     12  C   UNL     1      11.362   5.537  -0.176  0.00  0.00    +0.141 A 
ATOM     13  C   UNL     1      10.359   4.620   0.100  0.00  0.00    +0.072 A 
ATOM     14  H   UNL     1       9.883   1.406   0.407  0.00  0.00    +0.165 HD
BRANCH   8  15
ATOM     15  C   UNL     1      15.115   5.583  -0.918  0.00  0.00    +0.418 C 
ATOM     16  F   UNL     1      15.214   4.997  -2.184  0.00  0.00    -0.166 F 
ATOM     17  F   UNL     1      15.969   6.689  -0.848  0.00  0.00    -0.166 F 
ATOM     18  F   UNL     1      15.481   4.649   0.058  0.00  0.00    -0.166 F 
ENDBRANCH   8  15
BRANCH  10  19
ATOM     19  O   UNL     1      11.728   9.054  -0.571  0.00  0.00    -0.480 OA
ATOM     20  H   UNL     1      10.794   9.242  -0.404  0.00  0.00    +0.295 HD
ENDBRANCH  10  19
ENDBRANCH   2   3
BRANCH   1  24
ATOM     21  C   UNL     1       3.962   2.174   1.884  0.00  0.00    +0.079 A 
ATOM     22  C   UNL     1       3.971   3.580   1.922  0.00  0.00    +0.075 A 
ATOM     23  S   UNL     1       5.567   3.941   1.529  0.00  0.00    -0.074 S 
ATOM     24  C   UNL     1       6.164   2.271   1.331  0.00  0.00    +0.121 A 
ATOM     25  N   UNL     1       5.069   1.550   1.592  0.00  0.00    -0.238 NA
BRANCH  21  28
ATOM     26  C   UNL     1       0.369   1.386   2.656  0.00  0.00    +0.003 A 
ATOM     27  C   UNL     1       1.521   2.096   2.385  0.00  0.00    +0.010 A 
ATOM     28  C   UNL     1       2.722   1.418   2.176  0.00  0.00    +0.003 A 
ATOM     29  C   UNL     1       2.751   0.024   2.243  0.00  0.00    +0.042 A 
ATOM     30  C   UNL     1       1.593  -0.674   2.515  0.00  0.00    +0.127 A 
ATOM     31  C   UNL     1       0.405   0.004   2.721  0.00  0.00    +0.033 A 
BRANCH  30  32
ATOM     32  N   UNL     1       1.622  -2.153   2.586  0.00  0.00    +0.056 N 
ATOM     33  O   UNL     1       2.752  -2.800   2.389  0.00  0.00    -0.126 OA
ATOM     34  O   UNL     1       0.517  -2.821   2.845  0.00  0.00    -0.126 OA
ENDBRANCH  30  32
ENDBRANCH  21  28
ENDBRANCH   1  24
BRANCH   1  35
ATOM     35  C   UNL     1       7.725   0.425   0.884  0.00  0.00    +0.103 C 
ATOM     36  N   UNL     1       7.939  -0.687   0.798  0.00  0.00    -0.191 NA
ENDBRANCH   1  35
TORSDOF 7
