REMARK  Name = ZINC09927357
REMARK  9 active torsions:
REMARK  status: ('A' for Active; 'I' for Inactive)
REMARK    1  A    between atoms: C_1  and  C_2
REMARK    2  A    between atoms: C_2  and  N_3
REMARK    3  A    between atoms: C_4  and  C_19
REMARK    4  A    between atoms: C_6  and  C_8
REMARK    5  A    between atoms: C_9  and  C_10
REMARK    6  A    between atoms: C_13  and  N_16
REMARK    7  A    between atoms: N_16  and  C_17
REMARK    8  A    between atoms: N_16  and  C_18
REMARK    9  A    between atoms: C_24  and  O_25
REMARK                            x       y       z     vdW  Elec       q    Type
REMARK                         _______ _______ _______ _____ _____    ______ ____
ROOT
ATOM      1  N   UNL     1      -7.235   0.377   0.067  0.00  0.00    -0.245 N 
ATOM      2  C   UNL     1      -6.433  -0.721   0.029  0.00  0.00    +0.163 A 
ATOM      3  N   UNL     1      -5.183  -0.310   0.000  0.00  0.00    -0.207 NA
ATOM      4  C   UNL     1      -5.147   1.030   0.026  0.00  0.00    +0.175 A 
ATOM      5  N   UNL     1      -6.381   1.492   0.064  0.00  0.00    -0.150 NA
ENDROOT
BRANCH   2   6
ATOM      6  C   UNL     1      -6.886  -2.128   0.017  0.00  0.00    +0.060 A 
ATOM      7  C   UNL     1      -7.823  -2.571   0.951  0.00  0.00    +0.015 A 
ATOM      8  C   UNL     1      -8.242  -3.885   0.934  0.00  0.00    +0.001 A 
ATOM      9  C   UNL     1      -7.736  -4.767  -0.005  0.00  0.00    +0.004 A 
ATOM     10  C   UNL     1      -6.807  -4.340  -0.934  0.00  0.00    +0.046 A 
ATOM     11  C   UNL     1      -6.380  -3.022  -0.934  0.00  0.00    +0.128 A 
BRANCH  11  12
ATOM     12  O   UNL     1      -5.472  -2.599  -1.851  0.00  0.00    -0.506 OA
ATOM     13  H   UNL     1      -4.553  -2.693  -1.565  0.00  0.00    +0.292 HD
ENDBRANCH  11  12
ENDBRANCH   2   6
BRANCH   1  15
ATOM     14  C   UNL     1      -9.246   0.296  -1.321  0.00  0.00    +0.029 C 
ATOM     15  C   UNL     1      -8.699   0.393   0.104  0.00  0.00    +0.142 C 
ENDBRANCH   1  15
BRANCH   4  16
ATOM     16  C   UNL     1      -3.924   1.854   0.009  0.00  0.00    +0.050 C 
ATOM     17  C   UNL     1      -2.718   1.265  -0.030  0.00  0.00    +0.011 C 
BRANCH  17  18
ATOM     18  C   UNL     1      -1.497   2.088  -0.047  0.00  0.00    -0.025 A 
ATOM     19  C   UNL     1      -0.240   1.477  -0.088  0.00  0.00    +0.010 A 
ATOM     20  C   UNL     1       0.899   2.250  -0.110  0.00  0.00    +0.023 A 
ATOM     21  C   UNL     1       0.801   3.637  -0.086  0.00  0.00    +0.029 A 
ATOM     22  C   UNL     1      -0.447   4.249  -0.039  0.00  0.00    +0.023 A 
ATOM     23  C   UNL     1      -1.591   3.483  -0.017  0.00  0.00    +0.010 A 
BRANCH  21  24
ATOM     24  N   UNL     1       1.958   4.417  -0.108  0.00  0.00    -0.336 N 
ATOM     25  C   UNL     1       3.274   3.778  -0.029  0.00  0.00    +0.129 C 
ATOM     26  C   UNL     1       1.856   5.875  -0.211  0.00  0.00    +0.129 C 
ENDBRANCH  21  24
ENDBRANCH  17  18
ENDBRANCH   4  16
TORSDOF 6
