REMARK  Name = ZINC35780911
REMARK  13 active torsions:
REMARK  status: ('A' for Active; 'I' for Inactive)
REMARK    1  A    between atoms: C_1  and  C_2
REMARK    2  A    between atoms: C_2  and  C_3
REMARK    3  A    between atoms: C_2  and  C_4
REMARK    4  A    between atoms: C_11  and  C_15
REMARK    5  A    between atoms: C_15  and  N_16
REMARK    6  A    between atoms: N_16  and  C_17
REMARK    7  A    between atoms: N_16  and  C_23
REMARK    8  A    between atoms: C_17  and  C_18
REMARK    9  A    between atoms: C_23  and  C_24
REMARK   10  A    between atoms: C_24  and  C_26
REMARK   11  A    between atoms: C_24  and  O_34
REMARK   12  A    between atoms: C_26  and  O_27
REMARK   13  A    between atoms: O_27  and  C_28
REMARK                            x       y       z     vdW  Elec       q    Type
REMARK                         _______ _______ _______ _____ _____    ______ ____
ROOT
ATOM      1  N   UNL     1       2.263  -1.646  -7.358  0.00  0.00    +0.391 N 
ATOM      2  H   UNL     1       1.295  -1.768  -7.101  0.00  0.00    -0.080 HD
ENDROOT
BRANCH   1   3
ATOM      3  C   UNL     1       3.119  -2.318  -6.372  0.00  0.00    -0.003 C 
BRANCH   3  11
ATOM      4  C   UNL     1       0.767   0.668  -1.300  0.00  0.00    -0.005 A 
ATOM      5  C   UNL     1       1.742  -0.254  -1.247  0.00  0.00    +0.027 A 
ATOM      6  C   UNL     1       2.201  -0.871  -2.478  0.00  0.00    +0.072 A 
ATOM      7  C   UNL     1       3.214  -1.866  -2.673  0.00  0.00    +0.260 A 
ATOM      8  O   UNL     1       3.831  -2.316  -1.723  0.00  0.00    -0.267 OA
ATOM      9  N   UNL     1       3.473  -2.296  -3.922  0.00  0.00    -0.312 N 
ATOM     10  H   UNL     1       4.157  -2.969  -4.061  0.00  0.00    +0.170 HD
ATOM     11  C   UNL     1       2.795  -1.806  -4.992  0.00  0.00    +0.094 A 
ATOM     12  N   UNL     1       1.867  -0.899  -4.847  0.00  0.00    -0.229 NA
ATOM     13  C   UNL     1       1.554  -0.425  -3.644  0.00  0.00    +0.116 A 
ATOM     14  S   UNL     1       0.386   0.766  -3.039  0.00  0.00    -0.073 S 
BRANCH   4  16
ATOM     15  C   UNL     1       0.349   2.931  -0.378  0.00  0.00    +0.013 C 
ATOM     16  C   UNL     1       0.141   1.431  -0.162  0.00  0.00    +0.020 C 
ATOM     17  C   UNL     1      -1.358   1.127  -0.107  0.00  0.00    +0.013 C 
ENDBRANCH   4  16
ENDBRANCH   3  11
ENDBRANCH   1   3
BRANCH   1  18
ATOM     18  C   UNL     1       2.585  -0.213  -7.389  0.00  0.00    -0.002 C 
BRANCH  18  19
ATOM     19  C   UNL     1       1.613   0.500  -8.294  0.00  0.00    +0.089 A 
ATOM     20  C   UNL     1       0.394   0.948  -7.942  0.00  0.00    +0.042 A 
ATOM     21  C   UNL     1      -0.169   1.549  -9.092  0.00  0.00    +0.041 A 
ATOM     22  C   UNL     1       0.740   1.432 -10.077  0.00  0.00    +0.195 A 
ATOM     23  O   UNL     1       1.819   0.801  -9.586  0.00  0.00    -0.470 OA
ENDBRANCH  18  19
ENDBRANCH   1  18
BRANCH   1  24
ATOM     24  C   UNL     1       2.494  -2.229  -8.686  0.00  0.00    -0.043 C 
BRANCH  24  25
ATOM     25  C   UNL     1       2.022  -3.684  -8.693  0.00  0.00    +0.135 C 
BRANCH  25  26
ATOM     26  O   UNL     1       0.619  -3.731  -8.426  0.00  0.00    -0.390 OA
ATOM     27  H   UNL     1       0.075  -3.311  -9.107  0.00  0.00    +0.210 HD
ENDBRANCH  25  26
BRANCH  25  28
ATOM     28  C   UNL     1       2.301  -4.304 -10.064  0.00  0.00    +0.258 C 
BRANCH  28  29
ATOM     29  O   UNL     1       1.967  -5.694 -10.035  0.00  0.00    -0.489 OA
BRANCH  29  30
ATOM     30  C   UNL     1       2.157  -6.398 -11.182  0.00  0.00    +0.121 A 
ATOM     31  C   UNL     1       2.660  -5.766 -12.310  0.00  0.00    +0.045 A 
ATOM     32  C   UNL     1       2.853  -6.484 -13.474  0.00  0.00    +0.004 A 
ATOM     33  C   UNL     1       2.545  -7.831 -13.516  0.00  0.00    +0.000 A 
ATOM     34  C   UNL     1       2.043  -8.463 -12.393  0.00  0.00    +0.004 A 
ATOM     35  C   UNL     1       1.854  -7.751 -11.225  0.00  0.00    +0.045 A 
ENDBRANCH  29  30
ENDBRANCH  28  29
ENDBRANCH  25  28
ENDBRANCH  24  25
ENDBRANCH   1  24
TORSDOF 11
