REMARK  Name = ZINC12305078
REMARK  10 active torsions:
REMARK  status: ('A' for Active; 'I' for Inactive)
REMARK    1  A    between atoms: C_1  and  C_2
REMARK    2  A    between atoms: C_2  and  N_50
REMARK    3  A    between atoms: C_3  and  C_20
REMARK    4  A    between atoms: C_5  and  C_12
REMARK    5  A    between atoms: C_8  and  C_9
REMARK    6  A    between atoms: C_8  and  C_10
REMARK    7  A    between atoms: C_10  and  O_11
REMARK    8  A    between atoms: C_12  and  N_52
REMARK    9  A    between atoms: C_13  and  C_14
REMARK   10  A    between atoms: C_13  and  N_52
REMARK                            x       y       z     vdW  Elec       q    Type
REMARK                         _______ _______ _______ _____ _____    ______ ____
ROOT
ATOM      1  C   UNL     1      -4.204  -3.166  -3.114  0.00  0.00    -0.035 C 
ATOM      2  C   UNL     1      -2.791  -2.646  -2.773  0.00  0.00    -0.039 C 
ATOM      3  C   UNL     1      -1.833  -3.784  -3.182  0.00  0.00    -0.010 C 
ATOM      4  C   UNL     1      -2.751  -4.898  -3.735  0.00  0.00    -0.044 C 
ATOM      5  C   UNL     1      -2.859  -4.792  -5.257  0.00  0.00    -0.007 C 
ATOM      6  N   UNL     1      -4.042  -4.625  -3.108  0.00  0.00    +0.389 N 
ATOM      7  H   UNL     1      -4.044  -4.975  -2.143  0.00  0.00    -0.080 HD
ENDROOT
BRANCH   1   8
ATOM      8  C   UNL     1      -5.196  -2.717  -2.072  0.00  0.00    -0.061 A 
ATOM      9  C   UNL     1      -5.292  -3.397  -0.871  0.00  0.00    +0.003 A 
ATOM     10  C   UNL     1      -6.197  -2.982   0.087  0.00  0.00    +0.020 A 
ATOM     11  C   UNL     1      -7.015  -1.894  -0.159  0.00  0.00    +0.041 A 
ATOM     12  C   UNL     1      -6.923  -1.218  -1.363  0.00  0.00    +0.020 A 
ATOM     13  C   UNL     1      -6.013  -1.630  -2.318  0.00  0.00    +0.003 A 
ATOM     14 CL   UNL     1      -8.158  -1.377   1.042  0.00  0.00    -0.084 Cl
ENDBRANCH   1   8
BRANCH   6  16
ATOM     15  C   UNL     1      -6.488  -5.035  -3.167  0.00  0.00    -0.017 C 
ATOM     16  C   UNL     1      -5.152  -5.278  -3.871  0.00  0.00    -0.081 C 
ENDBRANCH   6  16
BRANCH   4  17
ATOM     17  C   UNL     1      -2.220  -6.276  -3.331  0.00  0.00    +0.143 C 
BRANCH  17  18
ATOM     18  O   UNL     1      -0.951  -6.497  -3.949  0.00  0.00    -0.396 OA
ATOM     19  H   UNL     1      -0.554  -7.353  -3.737  0.00  0.00    +0.209 HD
ENDBRANCH  17  18
ENDBRANCH   4  17
BRANCH   2  20
ATOM     20  C   UNL     1      -2.676  -2.367  -1.273  0.00  0.00    -0.080 C 
BRANCH  20  21
ATOM     21  N   UNL     1      -1.348  -1.791  -0.989  0.00  0.00    +0.383 N 
ATOM     22  H   UNL     1      -1.238  -0.917  -1.516  0.00  0.00    -0.085 HD
ATOM     23  H   UNL     1      -0.621  -2.457  -1.277  0.00  0.00    -0.085 HD
BRANCH  21  24
ATOM     24  C   UNL     1      -1.208  -1.512   0.453  0.00  0.00    -0.024 C 
BRANCH  24  25
ATOM     25  C   UNL     1       0.156  -0.926   0.712  0.00  0.00    +0.046 A 
ATOM     26  C   UNL     1       0.462   0.437   0.789  0.00  0.00    +0.042 A 
ATOM     27  C   UNL     1       1.787   0.553   1.034  0.00  0.00    +0.105 A 
ATOM     28  N   UNL     1       2.302  -0.692   1.111  0.00  0.00    -0.285 N 
ATOM     29  H   UNL     1       3.259  -0.923   1.284  0.00  0.00    +0.188 HD
ATOM     30  N   UNL     1       1.258  -1.603   0.905  0.00  0.00    -0.181 NA
ENDBRANCH  24  25
ENDBRANCH  21  24
ENDBRANCH  20  21
ENDBRANCH   2  20
TORSDOF 8
