REMARK  Name = ZINC02167397
REMARK  12 active torsions:
REMARK  status: ('A' for Active; 'I' for Inactive)
REMARK    1  A    between atoms: C_1  and  O_2
REMARK    2  A    between atoms: O_2  and  C_3
REMARK    3  A    between atoms: C_4  and  O_37
REMARK    4  A    between atoms: C_5  and  C_9
REMARK    5  A    between atoms: N_10  and  C_11
REMARK    6  A    between atoms: C_14  and  S_17
REMARK    7  A    between atoms: S_17  and  C_20
REMARK    8  A    between atoms: C_23  and  N_26
REMARK    9  A    between atoms: C_27  and  C_28
REMARK   10  A    between atoms: C_29  and  O_36
REMARK   11  A    between atoms: C_30  and  O_34
REMARK   12  A    between atoms: O_34  and  C_35
REMARK                            x       y       z     vdW  Elec       q    Type
REMARK                         _______ _______ _______ _____ _____    ______ ____
ROOT
ATOM      1  S   UNL     1       1.048 -10.693  -1.733  0.00  0.00    +0.025 S 
ATOM      2  O   UNL     1       0.861 -11.188  -0.415  0.00  0.00    -0.164 OA
ATOM      3  O   UNL     1       0.206 -11.068  -2.815  0.00  0.00    -0.164 OA
ENDROOT
BRANCH   1   7
ATOM      4  C   UNL     1       0.866  -6.174  -1.458  0.00  0.00    +0.064 A 
ATOM      5  C   UNL     1       0.577  -6.815  -2.664  0.00  0.00    +0.029 A 
ATOM      6  C   UNL     1       0.634  -8.191  -2.741  0.00  0.00    +0.029 A 
ATOM      7  C   UNL     1       0.977  -8.936  -1.626  0.00  0.00    +0.094 A 
ATOM      8  C   UNL     1       1.265  -8.307  -0.427  0.00  0.00    +0.029 A 
ATOM      9  C   UNL     1       1.218  -6.931  -0.338  0.00  0.00    +0.029 A 
BRANCH   4  11
ATOM     10  C   UNL     1       1.339  -4.076  -2.314  0.00  0.00    +0.123 C 
ATOM     11  N   UNL     1       0.811  -4.809  -1.374  0.00  0.00    -0.255 NA
BRANCH  10  14
ATOM     12  C   UNL     1       0.606  -0.608  -1.056  0.00  0.00    +0.162 A 
ATOM     13  C   UNL     1       0.656  -1.995  -1.130  0.00  0.00    +0.167 A 
ATOM     14  C   UNL     1       1.280  -2.610  -2.225  0.00  0.00    +0.038 A 
ATOM     15  C   UNL     1       1.846  -1.820  -3.231  0.00  0.00    +0.013 A 
ATOM     16  C   UNL     1       1.789  -0.446  -3.143  0.00  0.00    +0.004 A 
ATOM     17  C   UNL     1       1.167   0.160  -2.064  0.00  0.00    +0.049 A 
BRANCH  12  19
ATOM     18  C   UNL     1      -0.017   1.425   0.010  0.00  0.00    +0.277 C 
ATOM     19  O   UNL     1       0.002  -0.004   0.002  0.00  0.00    -0.491 OA
ENDBRANCH  12  19
BRANCH  13  20
ATOM     20  O   UNL     1       0.103  -2.751  -0.147  0.00  0.00    -0.503 OA
ATOM     21  H   UNL     1      -0.826  -2.974  -0.298  0.00  0.00    +0.292 HD
ENDBRANCH  13  20
ENDBRANCH  10  14
ENDBRANCH   4  11
ENDBRANCH   1   7
BRANCH   1  22
ATOM     22  C   UNL     1       2.692 -11.121  -2.203  0.00  0.00    +0.094 A 
ATOM     23  C   UNL     1       3.020 -11.224  -3.543  0.00  0.00    +0.029 A 
ATOM     24  C   UNL     1       4.305 -11.559  -3.918  0.00  0.00    +0.029 A 
ATOM     25  C   UNL     1       5.275 -11.793  -2.941  0.00  0.00    +0.064 A 
ATOM     26  C   UNL     1       4.936 -11.686  -1.590  0.00  0.00    +0.029 A 
ATOM     27  C   UNL     1       3.649 -11.346  -1.230  0.00  0.00    +0.029 A 
BRANCH  25  28
ATOM     28  N   UNL     1       6.551 -12.126  -3.305  0.00  0.00    -0.255 NA
ATOM     29  C   UNL     1       7.566 -11.553  -2.721  0.00  0.00    +0.123 C 
BRANCH  29  30
ATOM     30  C   UNL     1       8.938 -11.910  -3.113  0.00  0.00    +0.038 A 
ATOM     31  C   UNL     1       9.158 -12.862  -4.118  0.00  0.00    +0.167 A 
ATOM     32  C   UNL     1      10.460 -13.192  -4.480  0.00  0.00    +0.162 A 
ATOM     33  C   UNL     1      11.530 -12.581  -3.848  0.00  0.00    +0.049 A 
ATOM     34  C   UNL     1      11.314 -11.640  -2.855  0.00  0.00    +0.004 A 
ATOM     35  C   UNL     1      10.030 -11.297  -2.489  0.00  0.00    +0.013 A 
BRANCH  32  36
ATOM     36  O   UNL     1      10.682 -14.114  -5.454  0.00  0.00    -0.491 OA
ATOM     37  C   UNL     1      12.044 -14.404  -5.775  0.00  0.00    +0.277 C 
ENDBRANCH  32  36
BRANCH  31  38
ATOM     38  O   UNL     1       8.106 -13.459  -4.735  0.00  0.00    -0.503 OA
ATOM     39  H   UNL     1       7.794 -12.992  -5.522  0.00  0.00    +0.292 HD
ENDBRANCH  31  38
ENDBRANCH  29  30
ENDBRANCH  25  28
ENDBRANCH   1  22
TORSDOF 10
