REMARK  Name = ZINC39664349
REMARK  7 active torsions:
REMARK  status: ('A' for Active; 'I' for Inactive)
REMARK    1  A    between atoms: C_1  and  C_2
REMARK    2  A    between atoms: C_2  and  C_8
REMARK    3  A    between atoms: C_12  and  C_21
REMARK    4  A    between atoms: N_23  and  C_24
REMARK    5  A    between atoms: C_24  and  C_25
REMARK    6  A    between atoms: C_25  and  C_27
REMARK    7  A    between atoms: C_25  and  N_33
REMARK                            x       y       z     vdW  Elec       q    Type
REMARK                         _______ _______ _______ _____ _____    ______ ____
ROOT
ATOM      1  C   UNL     1      -1.732  -0.489   0.015  0.00  0.00    +0.222 C 
ATOM      2  O   UNL     1      -2.279  -1.085   0.918  0.00  0.00    -0.275 OA
ATOM      3  N   UNL     1      -2.438  -0.113  -1.070  0.00  0.00    -0.300 N 
ATOM      4  C   UNL     1      -1.930   0.523  -2.308  0.00  0.00    +0.121 C 
ATOM      5  C   UNL     1      -2.736  -0.141  -3.447  0.00  0.00    +0.100 C 
ATOM      6  C   UNL     1      -4.027  -0.638  -2.775  0.00  0.00    -0.004 C 
ATOM      7  C   UNL     1      -3.897  -0.247  -1.296  0.00  0.00    +0.115 C 
ATOM      8  C   UNL     1      -5.243   0.041  -3.398  0.00  0.00    -0.010 C 
ATOM      9  C   UNL     1      -6.517  -0.513  -2.753  0.00  0.00    -0.082 C 
ATOM     10  N   UNL     1      -6.582  -1.964  -2.962  0.00  0.00    +0.379 N 
ATOM     11  C   UNL     1      -5.459  -2.619  -2.281  0.00  0.00    -0.082 C 
ATOM     12  C   UNL     1      -4.140  -2.154  -2.906  0.00  0.00    -0.010 C 
ATOM     13  H   UNL     1      -7.451  -2.317  -2.591  0.00  0.00    -0.086 HD
ATOM     14  H   UNL     1      -6.537  -2.163  -3.951  0.00  0.00    -0.086 HD
ENDROOT
BRANCH   1  16
ATOM     15  C   UNL     1       0.502  -0.979  -0.944  0.00  0.00    +0.021 C 
ATOM     16  C   UNL     1      -0.262  -0.169   0.105  0.00  0.00    +0.044 C 
ATOM     17  C   UNL     1       0.253  -0.528   1.500  0.00  0.00    +0.016 C 
ATOM     18  C   UNL     1      -0.511   0.282   2.550  0.00  0.00    +0.001 C 
ATOM     19  C   UNL     1      -0.297   1.775   2.296  0.00  0.00    +0.000 C 
ATOM     20  C   UNL     1      -0.812   2.134   0.901  0.00  0.00    +0.001 C 
ATOM     21  C   UNL     1      -0.048   1.324  -0.149  0.00  0.00    +0.016 C 
ENDBRANCH   1  16
BRANCH   5  22
ATOM     22  C   UNL     1      -3.056   0.867  -4.521  0.00  0.00    +0.218 C 
ATOM     23  O   UNL     1      -3.265   2.024  -4.223  0.00  0.00    -0.275 OA
ATOM     24  N   UNL     1      -3.110   0.483  -5.811  0.00  0.00    -0.313 N 
ATOM     25  H   UNL     1      -2.943  -0.442  -6.049  0.00  0.00    +0.149 HD
BRANCH  24  26
ATOM     26  C   UNL     1      -3.421   1.463  -6.855  0.00  0.00    +0.127 C 
BRANCH  26  27
ATOM     27  C   UNL     1      -3.535   0.752  -8.205  0.00  0.00    +0.104 C 
BRANCH  27  28
ATOM     28  C   UNL     1      -2.200   0.158  -8.574  0.00  0.00    -0.029 A 
ATOM     29  C   UNL     1      -1.212   0.960  -9.113  0.00  0.00    +0.005 A 
ATOM     30  C   UNL     1       0.013   0.415  -9.452  0.00  0.00    +0.000 A 
ATOM     31  C   UNL     1       0.249  -0.932  -9.251  0.00  0.00    +0.000 A 
ATOM     32  C   UNL     1      -0.739  -1.734  -8.711  0.00  0.00    +0.000 A 
ATOM     33  C   UNL     1      -1.962  -1.188  -8.368  0.00  0.00    +0.005 A 
ENDBRANCH  27  28
BRANCH  27  34
ATOM     34  N   UNL     1      -3.943   1.717  -9.234  0.00  0.00    -0.290 NA
ATOM     35  C   UNL     1      -5.151   2.447  -8.823  0.00  0.00    +0.113 C 
ATOM     36  C   UNL     1      -5.505   3.481  -9.895  0.00  0.00    +0.175 C 
ATOM     37  O   UNL     1      -5.674   2.819 -11.151  0.00  0.00    -0.377 OA
ATOM     38  C   UNL     1      -4.516   2.099 -11.583  0.00  0.00    +0.175 C 
ATOM     39  C   UNL     1      -4.151   1.051 -10.528  0.00  0.00    +0.113 C 
ENDBRANCH  27  34
ENDBRANCH  26  27
ENDBRANCH  24  26
ENDBRANCH   5  22
TORSDOF 6
