REMARK  Name = ZINC12832960
REMARK  11 active torsions:
REMARK  status: ('A' for Active; 'I' for Inactive)
REMARK    1  A    between atoms: C_1  and  C_2
REMARK    2  A    between atoms: C_7  and  C_15
REMARK    3  A    between atoms: C_13  and  C_14
REMARK    4  A    between atoms: C_15  and  N_66
REMARK    5  A    between atoms: C_16  and  C_17
REMARK    6  A    between atoms: C_16  and  N_66
REMARK    7  A    between atoms: C_17  and  C_18
REMARK    8  A    between atoms: C_24  and  C_25
REMARK    9  A    between atoms: C_24  and  N_66
REMARK   10  A    between atoms: N_29  and  C_30
REMARK   11  A    between atoms: C_30  and  C_31
REMARK                            x       y       z     vdW  Elec       q    Type
REMARK                         _______ _______ _______ _____ _____    ______ ____
ROOT
ATOM      1  N   UNL     1      -0.022  -1.100   1.978  0.00  0.00    +0.387 N 
ATOM      2  H   UNL     1       0.333  -0.217   1.592  0.00  0.00    -0.081 HD
ENDROOT
BRANCH   1   3
ATOM      3  C   UNL     1       0.737  -2.221   1.386  0.00  0.00    -0.037 C 
BRANCH   3  10
ATOM      4  C   UNL     1       2.596  -0.388  -6.151  0.00  0.00    +0.044 C 
ATOM      5  C   UNL     1       2.449  -0.636  -4.671  0.00  0.00    -0.046 A 
ATOM      6  C   UNL     1       3.450  -0.221  -3.803  0.00  0.00    +0.004 A 
ATOM      7  C   UNL     1       3.336  -0.436  -2.459  0.00  0.00    +0.010 A 
ATOM      8  C   UNL     1       2.202  -1.079  -1.952  0.00  0.00    -0.001 A 
ATOM      9  C   UNL     1       2.046  -1.320  -0.517  0.00  0.00    +0.017 A 
ATOM     10  C   UNL     1       0.927  -1.953  -0.085  0.00  0.00    +0.001 A 
ATOM     11  C   UNL     1      -0.062  -2.357  -1.006  0.00  0.00    +0.251 A 
ATOM     12  O   UNL     1      -1.062  -2.921  -0.596  0.00  0.00    -0.268 OA
ATOM     13  N   UNL     1       0.070  -2.135  -2.326  0.00  0.00    -0.322 N 
ATOM     14  H   UNL     1      -0.629  -2.426  -2.932  0.00  0.00    +0.169 HD
ATOM     15  C   UNL     1       1.186  -1.501  -2.830  0.00  0.00    +0.052 A 
ATOM     16  C   UNL     1       1.323  -1.272  -4.195  0.00  0.00    -0.024 A 
ATOM     17  C   UNL     1       0.245  -1.718  -5.149  0.00  0.00    +0.046 C 
ENDBRANCH   3  10
ENDBRANCH   1   3
BRANCH   1  18
ATOM     18  C   UNL     1       0.154  -1.089   3.445  0.00  0.00    -0.073 C 
BRANCH  18  19
ATOM     19  C   UNL     1       1.564  -0.589   3.767  0.00  0.00    +0.016 C 
BRANCH  19  20
ATOM     20  C   UNL     1       1.793  -0.655   5.255  0.00  0.00    -0.049 A 
ATOM     21  C   UNL     1       1.482   0.432   6.051  0.00  0.00    +0.003 A 
ATOM     22  C   UNL     1       1.687   0.369   7.417  0.00  0.00    +0.000 A 
ATOM     23  C   UNL     1       2.213  -0.776   7.985  0.00  0.00    +0.000 A 
ATOM     24  C   UNL     1       2.530  -1.860   7.188  0.00  0.00    +0.000 A 
ATOM     25  C   UNL     1       2.319  -1.800   5.823  0.00  0.00    +0.003 A 
ENDBRANCH  19  20
ENDBRANCH  18  19
ENDBRANCH   1  18
BRANCH   1  26
ATOM     26  C   UNL     1      -1.456  -1.228   1.642  0.00  0.00    +0.001 C 
BRANCH  26  27
ATOM     27  C   UNL     1      -2.177   0.012   2.105  0.00  0.00    +0.135 A 
ATOM     28  N   UNL     1      -2.657   0.237   3.303  0.00  0.00    -0.115 NA
ATOM     29  N   UNL     1      -3.204   1.404   3.300  0.00  0.00    -0.023 NA
ATOM     30  N   UNL     1      -3.080   1.931   2.132  0.00  0.00    -0.044 NA
ATOM     31  N   UNL     1      -2.449   1.105   1.368  0.00  0.00    -0.227 N 
BRANCH  31  32
ATOM     32  C   UNL     1      -2.100   1.315  -0.039  0.00  0.00    +0.182 C 
BRANCH  32  33
ATOM     33  C   UNL     1      -0.835   2.130  -0.127  0.00  0.00    -0.026 A 
ATOM     34  C   UNL     1       0.396   1.504  -0.056  0.00  0.00    +0.005 A 
ATOM     35  C   UNL     1       1.556   2.250  -0.142  0.00  0.00    +0.000 A 
ATOM     36  C   UNL     1       1.486   3.623  -0.294  0.00  0.00    +0.000 A 
ATOM     37  C   UNL     1       0.255   4.248  -0.361  0.00  0.00    +0.000 A 
ATOM     38  C   UNL     1      -0.905   3.502  -0.274  0.00  0.00    +0.005 A 
ENDBRANCH  32  33
ENDBRANCH  31  32
ENDBRANCH  26  27
ENDBRANCH   1  26
TORSDOF 9
