REMARK  Name = ZINC49297085
REMARK  12 active torsions:
REMARK  status: ('A' for Active; 'I' for Inactive)
REMARK    1  A    between atoms: C_1  and  C_2
REMARK    2  A    between atoms: C_2  and  C_3
REMARK    3  A    between atoms: C_3  and  C_4
REMARK    4  A    between atoms: C_7  and  C_10
REMARK    5  A    between atoms: C_10  and  C_11
REMARK    6  A    between atoms: C_10  and  N_14
REMARK    7  A    between atoms: C_11  and  C_12
REMARK    8  A    between atoms: C_11  and  C_13
REMARK    9  A    between atoms: C_15  and  C_17
REMARK   10  A    between atoms: N_19  and  C_20
REMARK   11  A    between atoms: C_25  and  C_26
REMARK   12  A    between atoms: C_26  and  C_27
REMARK                            x       y       z     vdW  Elec       q    Type
REMARK                         _______ _______ _______ _____ _____    ______ ____
ROOT
ATOM      1  N   UNL     1       0.310  -6.770  -2.579  0.00  0.00    -0.301 N 
ATOM      2  C   UNL     1       0.694  -7.983  -3.024  0.00  0.00    +0.300 C 
ATOM      3  O   UNL     1       1.423  -8.676  -2.346  0.00  0.00    -0.265 OA
ATOM      4  H   UNL     1      -0.273  -6.217  -3.121  0.00  0.00    +0.150 HD
ENDROOT
BRANCH   2   5
ATOM      5  C   UNL     1       0.221  -8.475  -4.353  0.00  0.00    +0.303 C 
ATOM      6  O   UNL     1      -0.509  -7.782  -5.032  0.00  0.00    -0.265 OA
ATOM      7  N   UNL     1       0.605  -9.687  -4.798  0.00  0.00    -0.277 N 
ATOM      8  H   UNL     1       1.250 -10.207  -4.295  0.00  0.00    +0.155 HD
BRANCH   7   9
ATOM      9  C   UNL     1       0.072 -10.196  -5.986  0.00  0.00    +0.037 A 
ATOM     10  C   UNL     1      -1.167  -9.760  -6.436  0.00  0.00    +0.023 A 
ATOM     11  C   UNL     1      -1.691 -10.264  -7.610  0.00  0.00    +0.002 A 
ATOM     12  C   UNL     1      -0.982 -11.203  -8.338  0.00  0.00    +0.000 A 
ATOM     13  C   UNL     1       0.252 -11.640  -7.892  0.00  0.00    +0.006 A 
ATOM     14  C   UNL     1       0.784 -11.135  -6.722  0.00  0.00    -0.017 A 
BRANCH  14  15
ATOM     15  C   UNL     1       2.132 -11.606  -6.241  0.00  0.00    +0.132 C 
BRANCH  15  16
ATOM     16  C   UNL     1       1.949 -12.731  -5.255  0.00  0.00    +0.215 C 
ATOM     17  O   UNL     1       0.833 -13.113  -4.971  0.00  0.00    -0.276 OA
ATOM     18  N   UNL     1       3.025 -13.313  -4.689  0.00  0.00    -0.329 N 
ATOM     19  H   UNL     1       3.917 -13.008  -4.916  0.00  0.00    +0.145 HD
ATOM     20  H   UNL     1       2.907 -14.038  -4.055  0.00  0.00    +0.145 HD
ENDBRANCH  15  16
ENDBRANCH  14  15
ENDBRANCH   7   9
ENDBRANCH   2   5
BRANCH   1  21
ATOM     21  C   UNL     1       0.774  -6.288  -1.275  0.00  0.00    +0.106 C 
BRANCH  21  25
ATOM     22  C   UNL     1       0.719  -2.017  -1.236  0.00  0.00    -0.047 A 
ATOM     23  C   UNL     1       1.763  -2.700  -0.641  0.00  0.00    +0.004 A 
ATOM     24  C   UNL     1       1.780  -4.083  -0.654  0.00  0.00    +0.006 A 
ATOM     25  C   UNL     1       0.754  -4.782  -1.261  0.00  0.00    -0.027 A 
ATOM     26  C   UNL     1      -0.291  -4.098  -1.855  0.00  0.00    +0.006 A 
ATOM     27  C   UNL     1      -0.311  -2.716  -1.839  0.00  0.00    +0.004 A 
BRANCH  22  28
ATOM     28  C   UNL     1       0.699  -0.510  -1.223  0.00  0.00    +0.035 C 
BRANCH  28  30
ATOM     29  C   UNL     1      -0.045   1.509   0.046  0.00  0.00    +0.004 C 
ATOM     30  C   UNL     1      -0.026  -0.021   0.033  0.00  0.00    +0.001 C 
ENDBRANCH  28  30
ENDBRANCH  22  28
ENDBRANCH  21  25
BRANCH  21  31
ATOM     31  C   UNL     1      -0.148  -6.821  -0.177  0.00  0.00    +0.008 C 
ATOM     32  C   UNL     1      -0.128  -8.351  -0.192  0.00  0.00    +0.009 C 
ATOM     33  C   UNL     1       0.336  -6.318   1.184  0.00  0.00    +0.009 C 
ENDBRANCH  21  31
ENDBRANCH   1  21
TORSDOF 9
