REMARK  Name = ZINC41062905
REMARK  3 active torsions:
REMARK  status: ('A' for Active; 'I' for Inactive)
REMARK    1  A    between atoms: C_1  and  C_2
REMARK    2  A    between atoms: C_4  and  C_16
REMARK    3  A    between atoms: C_11  and  C_13
REMARK                            x       y       z     vdW  Elec       q    Type
REMARK                         _______ _______ _______ _____ _____    ______ ____
ROOT
ATOM      1  C   UNL     1      -0.018   1.503   0.010  0.00  0.00    +0.090 C 
ATOM      2  C   UNL     1       0.002  -0.004   0.002  0.00  0.00    +0.149 A 
ATOM      3  N   UNL     1       0.008  -0.772  -1.087  0.00  0.00    -0.216 NA
ATOM      4  C   UNL     1       0.027  -2.034  -0.742  0.00  0.00    +0.132 A 
ATOM      5  N   UNL     1       0.033  -2.097   0.605  0.00  0.00    -0.199 N 
ATOM      6  N   UNL     1       0.022  -0.769   1.062  0.00  0.00    -0.149 NA
ATOM      7  C   UNL     1       0.051  -3.254   1.390  0.00  0.00    +0.156 A 
ATOM      8  C   UNL     1       0.561  -3.201   2.682  0.00  0.00    +0.050 A 
ATOM      9  C   UNL     1       0.574  -4.353   3.449  0.00  0.00    +0.025 A 
ATOM     10  C   UNL     1       0.073  -5.524   2.894  0.00  0.00    +0.064 A 
ATOM     11  C   UNL     1      -0.419  -5.503   1.602  0.00  0.00    +0.076 A 
ATOM     12  N   UNL     1      -0.422  -4.387   0.898  0.00  0.00    -0.230 NA
ATOM     13 CL   UNL     1       0.066  -6.997   3.812  0.00  0.00    -0.082 Cl
ATOM     14  C   UNL     1       0.038  -3.210  -1.683  0.00  0.00    +0.088 C 
ENDROOT
BRANCH  11  15
ATOM     15  C   UNL     1      -0.963  -6.769   0.992  0.00  0.00    +0.165 C 
ATOM     16 CL   UNL     1      -2.727  -6.895   1.344  0.00  0.00    -0.119 Cl
ENDBRANCH  11  15
TORSDOF 1
