REMARK  Name = ZINC02136479
REMARK  8 active torsions:
REMARK  status: ('A' for Active; 'I' for Inactive)
REMARK    1  A    between atoms: C_1  and  C_2
REMARK    2  A    between atoms: C_16  and  C_18
REMARK    3  A    between atoms: C_18  and  C_19
REMARK    4  A    between atoms: C_19  and  C_20
REMARK    5  A    between atoms: N_25  and  C_28
REMARK    6  A    between atoms: C_31  and  O_34
REMARK    7  A    between atoms: O_34  and  C_35
REMARK    8  A    between atoms: C_35  and  C_37
REMARK                            x       y       z     vdW  Elec       q    Type
REMARK                         _______ _______ _______ _____ _____    ______ ____
ROOT
ATOM      1  C   UNL     1      -3.946   6.571   3.800  0.00  0.00    +0.047 C 
ATOM      2  C   UNL     1      -3.715   5.133   3.412  0.00  0.00    -0.011 A 
ATOM      3  C   UNL     1      -4.776   4.250   3.380  0.00  0.00    +0.046 A 
ATOM      4  C   UNL     1      -4.573   2.928   3.024  0.00  0.00    +0.020 A 
ATOM      5  C   UNL     1      -3.301   2.489   2.701  0.00  0.00    +0.006 A 
ATOM      6  C   UNL     1      -2.240   3.366   2.735  0.00  0.00    -0.027 A 
ATOM      7  C   UNL     1      -2.432   4.699   3.088  0.00  0.00    +0.040 A 
ATOM      8  N   UNL     1      -1.218   5.389   3.047  0.00  0.00    -0.286 N 
ATOM      9  C   UNL     1      -0.194   4.593   2.682  0.00  0.00    +0.211 C 
ATOM     10  O   UNL     1       0.968   4.919   2.560  0.00  0.00    -0.277 OA
ATOM     11  C   UNL     1      -0.771   3.224   2.453  0.00  0.00    +0.050 C 
ATOM     12  C   UNL     1      -0.122   2.181   3.372  0.00  0.00    +0.088 C 
ATOM     13  C   UNL     1      -0.062   0.887   2.513  0.00  0.00    +0.073 C 
ATOM     14  C   UNL     1      -0.691   1.280   1.160  0.00  0.00    -0.057 C 
ATOM     15  C   UNL     1       1.418   0.644   2.324  0.00  0.00    +0.228 C 
ATOM     16  O   UNL     1       1.902  -0.278   1.702  0.00  0.00    -0.275 OA
ATOM     17  N   UNL     1       2.101   1.623   2.959  0.00  0.00    -0.210 N 
ATOM     18  C   UNL     1       1.336   2.527   3.581  0.00  0.00    +0.229 C 
ATOM     19  O   UNL     1       1.746   3.477   4.213  0.00  0.00    -0.275 OA
ATOM     20 CL   UNL     1      -6.371   4.800   3.786  0.00  0.00    -0.083 Cl
ATOM     21  H   UNL     1      -1.124   6.331   3.257  0.00  0.00    +0.155 HD
ATOM     22  N   UNL     1      -0.536   2.736   1.106  0.00  0.00    +0.394 N 
ATOM     23  H   UNL     1       0.413   2.981   0.801  0.00  0.00    -0.083 HD
ATOM     24  H   UNL     1      -1.220   3.142   0.457  0.00  0.00    -0.083 HD
ENDROOT
BRANCH  17  25
ATOM     25  C   UNL     1       3.503   1.681   2.969  0.00  0.00    +0.044 A 
ATOM     26  C   UNL     1       4.193   1.592   4.170  0.00  0.00    +0.027 A 
ATOM     27  C   UNL     1       5.573   1.644   4.179  0.00  0.00    +0.048 A 
ATOM     28  C   UNL     1       6.269   1.795   2.989  0.00  0.00    +0.132 A 
ATOM     29  C   UNL     1       5.580   1.889   1.788  0.00  0.00    +0.048 A 
ATOM     30  C   UNL     1       4.200   1.832   1.778  0.00  0.00    +0.027 A 
BRANCH  28  31
ATOM     31  O   UNL     1       7.628   1.851   2.998  0.00  0.00    -0.426 OA
BRANCH  31  32
ATOM     32  C   UNL     1       8.189   3.061   2.847  0.00  0.00    +0.309 C 
ATOM     33  O   UNL     1       7.495   4.050   2.818  0.00  0.00    -0.251 OA
ATOM     34  C   UNL     1       9.685   3.186   2.713  0.00  0.00    +0.136 C 
ENDBRANCH  31  32
ENDBRANCH  28  31
ENDBRANCH  17  25
BRANCH  14  35
ATOM     35  C   UNL     1       0.052   0.597   0.009  0.00  0.00    -0.006 C 
BRANCH  35  36
ATOM     36  C   UNL     1      -0.662   0.899  -1.310  0.00  0.00    +0.094 C 
BRANCH  36  37
ATOM     37  C   UNL     1       0.069   0.227  -2.442  0.00  0.00    +0.210 C 
ATOM     38  O   UNL     1       1.063  -0.430  -2.217  0.00  0.00    -0.276 OA
ATOM     39  N   UNL     1      -0.382   0.354  -3.706  0.00  0.00    -0.329 N 
ATOM     40  H   UNL     1      -1.178   0.880  -3.886  0.00  0.00    +0.145 HD
ATOM     41  H   UNL     1       0.088  -0.079  -4.435  0.00  0.00    +0.145 HD
ENDBRANCH  36  37
ENDBRANCH  35  36
ENDBRANCH  14  35
TORSDOF 6
