REMARK  Name = ZINC12705179
REMARK  7 active torsions:
REMARK  status: ('A' for Active; 'I' for Inactive)
REMARK    1  A    between atoms: C_4  and  C_7
REMARK    2  A    between atoms: C_7  and  C_8
REMARK    3  A    between atoms: C_7  and  C_26
REMARK    4  A    between atoms: C_8  and  N_62
REMARK    5  A    between atoms: C_14  and  C_16
REMARK    6  A    between atoms: C_16  and  C_17
REMARK    7  A    between atoms: N_19  and  C_20
REMARK                            x       y       z     vdW  Elec       q    Type
REMARK                         _______ _______ _______ _____ _____    ______ ____
ROOT
ATOM      1  C   UNL     1       0.066   4.262  -0.494  0.00  0.00    -0.059 C 
ATOM      2  C   UNL     1      -1.284   3.588  -0.238  0.00  0.00    +0.085 C 
ATOM      3  N   UNL     1      -1.170   2.147  -0.449  0.00  0.00    -0.318 N 
ATOM      4  C   UNL     1       0.003   1.504  -0.454  0.00  0.00    +0.200 C 
ATOM      5  O   UNL     1       0.004   0.300  -0.601  0.00  0.00    -0.278 OA
ATOM      6  C   UNL     1       1.318   2.211  -0.292  0.00  0.00    +0.028 C 
ATOM      7  H   UNL     1      -1.981   1.634  -0.589  0.00  0.00    +0.149 HD
ATOM      8  N   UNL     1       1.091   3.546   0.292  0.00  0.00    +0.389 N 
ATOM      9  H   UNL     1       0.759   3.438   1.257  0.00  0.00    -0.081 HD
ENDROOT
BRANCH   8  10
ATOM     10  C   UNL     1       2.355   4.318   0.300  0.00  0.00    -0.065 C 
BRANCH  10  11
ATOM     11  C   UNL     1       2.233   5.455   1.317  0.00  0.00    +0.032 C 
BRANCH  11  15
ATOM     12  C   UNL     1       6.042   7.317   1.833  0.00  0.00    +0.000 A 
ATOM     13  C   UNL     1       5.424   6.699   2.904  0.00  0.00    +0.000 A 
ATOM     14  C   UNL     1       4.191   6.097   2.737  0.00  0.00    +0.004 A 
ATOM     15  C   UNL     1       3.576   6.112   1.499  0.00  0.00    -0.042 A 
ATOM     16  C   UNL     1       4.197   6.725   0.427  0.00  0.00    +0.004 A 
ATOM     17  C   UNL     1       5.428   7.332   0.595  0.00  0.00    +0.000 A 
ENDBRANCH  11  15
BRANCH  11  18
ATOM     18  C   UNL     1       1.240   6.472   0.815  0.00  0.00    -0.042 A 
ATOM     19  C   UNL     1       1.352   6.973  -0.468  0.00  0.00    +0.004 A 
ATOM     20  C   UNL     1       0.439   7.902  -0.929  0.00  0.00    +0.000 A 
ATOM     21  C   UNL     1      -0.581   8.339  -0.104  0.00  0.00    +0.000 A 
ATOM     22  C   UNL     1      -0.690   7.841   1.181  0.00  0.00    +0.000 A 
ATOM     23  C   UNL     1       0.220   6.908   1.641  0.00  0.00    +0.004 A 
ENDBRANCH  11  18
ENDBRANCH  10  11
ENDBRANCH   8  10
BRANCH   6  24
ATOM     24  C   UNL     1       2.216   1.404   0.648  0.00  0.00    +0.089 C 
BRANCH  24  25
ATOM     25  C   UNL     1       1.560   1.297   2.001  0.00  0.00    +0.212 C 
ATOM     26  O   UNL     1       0.444   1.740   2.170  0.00  0.00    -0.276 OA
ATOM     27  N   UNL     1       2.213   0.708   3.022  0.00  0.00    -0.312 N 
ATOM     28  H   UNL     1       3.106   0.354   2.887  0.00  0.00    +0.149 HD
BRANCH  27  29
ATOM     29  C   UNL     1       1.575   0.604   4.337  0.00  0.00    +0.077 C 
ATOM     30  C   UNL     1       1.815   1.895   5.126  0.00  0.00    +0.050 C 
ATOM     31  C   UNL     1       1.215   1.746   6.527  0.00  0.00    +0.161 C 
ATOM     32  O   UNL     1       1.796   0.614   7.177  0.00  0.00    -0.380 OA
ATOM     33  C   UNL     1       1.562  -0.627   6.508  0.00  0.00    +0.161 C 
ATOM     34  C   UNL     1       2.178  -0.574   5.107  0.00  0.00    +0.050 C 
ENDBRANCH  27  29
ENDBRANCH  24  25
ENDBRANCH   6  24
TORSDOF 7
