REMARK  Name = ZINC13128742
REMARK  8 active torsions:
REMARK  status: ('A' for Active; 'I' for Inactive)
REMARK    1  A    between atoms: C_1  and  O_2
REMARK    2  A    between atoms: O_2  and  C_3
REMARK    3  A    between atoms: C_6  and  C_11
REMARK    4  A    between atoms: C_7  and  O_9
REMARK    5  A    between atoms: O_9  and  C_10
REMARK    6  A    between atoms: C_16  and  C_17
REMARK    7  A    between atoms: C_16  and  N_54
REMARK    8  A    between atoms: C_23  and  C_28
REMARK                            x       y       z     vdW  Elec       q    Type
REMARK                         _______ _______ _______ _____ _____    ______ ____
ROOT
ATOM      1  C   UNL     1      -1.823   4.970   0.048  0.00  0.00    -0.002 C 
ENDROOT
BRANCH   1   2
ATOM      2  C   UNL     1      -0.703   3.962   0.031  0.00  0.00    +0.094 A 
ATOM      3  N   UNL     1       0.585   4.394   0.021  0.00  0.00    -0.312 N 
ATOM      4  H   UNL     1       0.766   5.347   0.025  0.00  0.00    +0.170 HD
ATOM      5  C   UNL     1       1.613   3.527   0.006  0.00  0.00    +0.260 A 
ATOM      6  O   UNL     1       2.764   3.931  -0.002  0.00  0.00    -0.267 OA
ATOM      7  C   UNL     1       1.337   2.123   0.001  0.00  0.00    +0.083 A 
ATOM      8  C   UNL     1       2.268   0.999  -0.014  0.00  0.00    +0.039 A 
ATOM      9  C   UNL     1       1.766  -0.262  -0.016  0.00  0.00    +0.059 A 
ATOM     10  S   UNL     1       0.002  -0.004   0.002  0.00  0.00    -0.076 S 
ATOM     11  C   UNL     1      -0.022   1.770   0.012  0.00  0.00    +0.116 A 
ATOM     12  N   UNL     1      -0.986   2.687   0.031  0.00  0.00    -0.229 NA
BRANCH   8  13
ATOM     13  C   UNL     1       3.727   1.229  -0.027  0.00  0.00    +0.136 A 
ATOM     14  C   UNL     1       4.633   0.650   0.805  0.00  0.00    +0.050 A 
ATOM     15  C   UNL     1       5.899   1.153   0.440  0.00  0.00    +0.042 A 
ATOM     16  C   UNL     1       5.704   2.004  -0.585  0.00  0.00    +0.196 A 
ATOM     17  O   UNL     1       4.391   2.044  -0.868  0.00  0.00    -0.463 OA
ENDBRANCH   8  13
ENDBRANCH   1   2
BRANCH   1  22
ATOM     18  C   UNL     1      -4.231   5.212   0.315  0.00  0.00    -0.034 C 
ATOM     19  C   UNL     1      -5.483   4.489  -0.227  0.00  0.00    -0.012 C 
ATOM     20  C   UNL     1      -4.948   3.493  -1.276  0.00  0.00    -0.020 C 
ATOM     21  C   UNL     1      -3.418   3.697  -1.280  0.00  0.00    -0.077 C 
ATOM     22  N   UNL     1      -3.144   4.266   0.037  0.00  0.00    +0.389 N 
ATOM     23  H   UNL     1      -3.135   3.522   0.745  0.00  0.00    -0.080 HD
BRANCH  18  27
ATOM     24  C   UNL     1      -4.623   5.949   4.509  0.00  0.00    +0.124 A 
ATOM     25  C   UNL     1      -3.952   4.821   4.059  0.00  0.00    +0.046 A 
ATOM     26  C   UNL     1      -3.832   4.582   2.704  0.00  0.00    +0.009 A 
ATOM     27  C   UNL     1      -4.369   5.472   1.793  0.00  0.00    -0.019 A 
ATOM     28  C   UNL     1      -5.041   6.601   2.238  0.00  0.00    +0.125 A 
ATOM     29  C   UNL     1      -5.168   6.840   3.598  0.00  0.00    +0.091 A 
BRANCH  24  31
ATOM     30  C   UNL     1      -4.161   5.220   6.724  0.00  0.00    +0.277 C 
ATOM     31  O   UNL     1      -4.747   6.180   5.843  0.00  0.00    -0.495 OA
ENDBRANCH  24  31
BRANCH  28  32
ATOM     32  O   UNL     1      -5.573   7.473   1.342  0.00  0.00    -0.495 OA
ATOM     33  C   UNL     1      -6.251   8.615   1.871  0.00  0.00    +0.277 C 
ENDBRANCH  28  32
ENDBRANCH  18  27
ENDBRANCH   1  22
TORSDOF 6
