REMARK  Name = ZINC09272489
REMARK  13 active torsions:
REMARK  status: ('A' for Active; 'I' for Inactive)
REMARK    1  A    between atoms: C_1  and  C_2
REMARK    2  A    between atoms: C_2  and  C_3
REMARK    3  A    between atoms: C_3  and  C_30
REMARK    4  A    between atoms: N_4  and  N_5
REMARK    5  A    between atoms: C_6  and  C_8
REMARK    6  A    between atoms: C_8  and  S_9
REMARK    7  A    between atoms: S_9  and  C_10
REMARK    8  A    between atoms: C_13  and  C_22
REMARK    9  A    between atoms: N_14  and  C_15
REMARK   10  A    between atoms: C_18  and  C_21
REMARK   11  A    between atoms: C_25  and  O_28
REMARK   12  A    between atoms: O_28  and  C_29
REMARK   13  A    between atoms: C_33  and  O_36
REMARK                            x       y       z     vdW  Elec       q    Type
REMARK                         _______ _______ _______ _____ _____    ______ ____
ROOT
ATOM      1  C   UNL     1      -5.139   0.819   1.157  0.00  0.00    +0.197 A 
ATOM      2  N   UNL     1      -5.083  -0.463   0.873  0.00  0.00    -0.122 NA
ATOM      3  N   UNL     1      -6.253  -0.987   0.959  0.00  0.00    -0.128 NA
ATOM      4  C   UNL     1      -7.131  -0.073   1.304  0.00  0.00    +0.169 A 
ATOM      5  N   UNL     1      -6.444   1.113   1.447  0.00  0.00    -0.270 N 
ENDROOT
BRANCH   5   6
ATOM      6  C   UNL     1      -6.971   2.360   1.810  0.00  0.00    +0.051 A 
ATOM      7  C   UNL     1      -7.519   2.542   3.072  0.00  0.00    +0.026 A 
ATOM      8  C   UNL     1      -8.034   3.773   3.429  0.00  0.00    +0.005 A 
ATOM      9  C   UNL     1      -8.013   4.821   2.526  0.00  0.00    -0.050 A 
ATOM     10  C   UNL     1      -7.473   4.641   1.266  0.00  0.00    +0.005 A 
ATOM     11  C   UNL     1      -6.952   3.413   0.905  0.00  0.00    +0.026 A 
ATOM     12  C   UNL     1      -8.581   6.161   2.916  0.00  0.00    +0.044 C 
ENDBRANCH   5   6
BRANCH   4  13
ATOM     13  C   UNL     1      -8.580  -0.278   1.506  0.00  0.00    +0.020 A 
ATOM     14  C   UNL     1      -9.441   0.819   1.569  0.00  0.00    +0.015 A 
ATOM     15  C   UNL     1     -10.793   0.623   1.752  0.00  0.00    +0.046 A 
ATOM     16  C   UNL     1     -11.297  -0.664   1.886  0.00  0.00    +0.120 A 
ATOM     17  C   UNL     1     -10.444  -1.758   1.830  0.00  0.00    +0.046 A 
ATOM     18  C   UNL     1      -9.092  -1.571   1.641  0.00  0.00    +0.015 A 
BRANCH  16  19
ATOM     19  O   UNL     1     -12.630  -0.853   2.073  0.00  0.00    -0.495 OA
ATOM     20  C   UNL     1     -13.451   0.316   2.121  0.00  0.00    +0.277 C 
ENDBRANCH  16  19
ENDBRANCH   4  13
BRANCH   1  21
ATOM     21  S   UNL     1      -3.785   1.947   1.169  0.00  0.00    -0.076 S 
BRANCH  21  22
ATOM     22  C   UNL     1      -2.440   0.829   0.702  0.00  0.00    +0.174 C 
BRANCH  22  24
ATOM     23  N   UNL     1      -0.001   0.966   0.318  0.00  0.00    -0.206 N 
ATOM     24  C   UNL     1      -1.145   1.597   0.647  0.00  0.00    +0.242 C 
ATOM     25  O   UNL     1      -1.132   2.784   0.899  0.00  0.00    -0.273 OA
ATOM     26  H   UNL     1      -0.011   0.018   0.116  0.00  0.00    +0.177 HD
BRANCH  23  28
ATOM     27  C   UNL     1       2.324   1.052   0.084  0.00  0.00    +0.066 C 
ATOM     28  N   UNL     1       1.203   1.681   0.261  0.00  0.00    -0.184 NA
BRANCH  27  29
ATOM     29  C   UNL     1       2.349  -0.422   0.075  0.00  0.00    -0.002 A 
ATOM     30  C   UNL     1       3.124  -1.104  -0.865  0.00  0.00    +0.013 A 
ATOM     31  C   UNL     1       3.148  -2.482  -0.866  0.00  0.00    +0.046 A 
ATOM     32  C   UNL     1       2.395  -3.192   0.060  0.00  0.00    +0.117 A 
ATOM     33  C   UNL     1       1.619  -2.518   0.994  0.00  0.00    +0.046 A 
ATOM     34  C   UNL     1       1.593  -1.140   1.005  0.00  0.00    +0.013 A 
BRANCH  32  35
ATOM     35  O   UNL     1       2.418  -4.551   0.053  0.00  0.00    -0.507 OA
ATOM     36  H   UNL     1       1.742  -4.952  -0.511  0.00  0.00    +0.292 HD
ENDBRANCH  32  35
ENDBRANCH  27  29
BRANCH  27  38
ATOM     37  C   UNL     1       4.256   2.087   1.244  0.00  0.00    +0.010 C 
ATOM     38  C   UNL     1       3.600   1.829  -0.115  0.00  0.00    +0.054 C 
ENDBRANCH  27  38
ENDBRANCH  23  28
ENDBRANCH  22  24
ENDBRANCH  21  22
ENDBRANCH   1  21
TORSDOF 10
