REMARK  Name = ZINC34258258
REMARK  3 active torsions:
REMARK  status: ('A' for Active; 'I' for Inactive)
REMARK    1  A    between atoms: C_4  and  S_8
REMARK    2  A    between atoms: C_5  and  C_6
REMARK    3  A    between atoms: S_8  and  N_11
REMARK                            x       y       z     vdW  Elec       q    Type
REMARK                         _______ _______ _______ _____ _____    ______ ____
ROOT
ATOM      1  C   UNL     1      -0.018   1.438   0.010  0.00  0.00    +0.028 A 
ATOM      2  C   UNL     1       1.189   2.040   0.002  0.00  0.00    +0.048 A 
ATOM      3  S   UNL     1       2.324   0.669  -0.017  0.00  0.00    -0.079 S 
ATOM      4  C   UNL     1       1.238  -0.610  -0.013  0.00  0.00    +0.120 A 
ATOM      5  C   UNL     1       0.002  -0.004   0.002  0.00  0.00    +0.082 A 
ENDROOT
BRANCH   4   6
ATOM      6  S   UNL     1       1.597  -2.335  -0.027  0.00  0.00    -0.057 S 
ATOM      7  O   UNL     1       1.153  -2.852   1.220  0.00  0.00    -0.191 OA
ATOM      8  O   UNL     1       1.129  -2.837  -1.270  0.00  0.00    -0.191 OA
BRANCH   6   9
ATOM      9  N   UNL     1       3.246  -2.491  -0.043  0.00  0.00    +0.459 NA
ATOM     10  H   UNL     1       3.649  -3.373  -0.052  0.00  0.00    -0.129 HD
ENDBRANCH   6   9
ENDBRANCH   4   6
BRANCH   5  11
ATOM     11  C   UNL     1      -1.208  -0.770   0.010  0.00  0.00    +0.102 C 
ATOM     12  N   UNL     1      -2.168  -1.377   0.016  0.00  0.00    -0.191 NA
ENDBRANCH   5  11
TORSDOF 3
