REMARK  Name = ZINC22311359
REMARK  3 active torsions:
REMARK  status: ('A' for Active; 'I' for Inactive)
REMARK    1  A    between atoms: N_12  and  C_16
REMARK    2  A    between atoms: C_16  and  C_17
REMARK    3  A    between atoms: N_25  and  C_26
REMARK                            x       y       z     vdW  Elec       q    Type
REMARK                         _______ _______ _______ _____ _____    ______ ____
ROOT
ATOM      1  C   UNL     1       3.812   6.958   1.752  0.00  0.00    +0.217 C 
ENDROOT
BRANCH   1  13
ATOM      2  C   UNL     1      -0.973   2.309  -0.889  0.00  0.00    +0.000 A 
ATOM      3  C   UNL     1      -1.086   3.667  -0.660  0.00  0.00    +0.000 A 
ATOM      4  C   UNL     1       0.047   4.455  -0.610  0.00  0.00    +0.006 A 
ATOM      5  C   UNL     1       1.300   3.890  -0.783  0.00  0.00    -0.012 A 
ATOM      6  C   UNL     1       1.413   2.528  -1.005  0.00  0.00    -0.042 A 
ATOM      7  C   UNL     1       0.275   1.741  -1.055  0.00  0.00    +0.004 A 
ATOM      8  C   UNL     1       2.873   2.153  -1.156  0.00  0.00    +0.038 C 
ATOM      9  C   UNL     1       3.607   3.485  -1.432  0.00  0.00    +0.045 C 
ATOM     10  C   UNL     1       2.671   4.511  -0.781  0.00  0.00    +0.138 C 
ATOM     11  C   UNL     1       3.123   4.854   0.614  0.00  0.00    +0.251 C 
ATOM     12  O   UNL     1       3.254   4.098   1.553  0.00  0.00    -0.272 OA
ATOM     13  N   UNL     1       3.351   6.185   0.596  0.00  0.00    -0.215 N 
ATOM     14  C   UNL     1       3.104   6.711  -0.611  0.00  0.00    +0.310 C 
ATOM     15  O   UNL     1       3.235   7.890  -0.874  0.00  0.00    -0.252 OA
ATOM     16  N   UNL     1       2.692   5.785  -1.500  0.00  0.00    -0.281 N 
ATOM     17  H   UNL     1       2.401   5.823  -2.560  0.00  0.00    +0.152 HD
ENDBRANCH   1  13
BRANCH   1  18
ATOM     18  C   UNL     1       2.622   7.460   2.528  0.00  0.00    +0.251 C 
ATOM     19  O   UNL     1       1.500   7.198   2.153  0.00  0.00    -0.271 OA
ATOM     20  N   UNL     1       2.805   8.199   3.640  0.00  0.00    -0.272 N 
ATOM     21  C   UNL     1       4.075   8.495   4.063  0.00  0.00    +0.096 A 
ATOM     22  C   UNL     1       4.276   9.233   5.171  0.00  0.00    +0.018 A 
ATOM     23  C   UNL     1       3.183   9.716   5.916  0.00  0.00    +0.005 A 
ATOM     24  C   UNL     1       1.917   9.436   5.516  0.00  0.00    +0.044 A 
ATOM     25  C   UNL     1       1.713   8.664   4.347  0.00  0.00    +0.114 A 
ATOM     26  N   UNL     1       0.495   8.386   3.941  0.00  0.00    -0.368 N 
ATOM     27  H   UNL     1       0.340   7.704   3.092  0.00  0.00    +0.161 HD
BRANCH  26  28
ATOM     28  C   UNL     1      -0.657   8.986   4.618  0.00  0.00    +0.081 C 
ATOM     29  C   UNL     1      -1.500   7.885   5.264  0.00  0.00    +0.024 C 
ATOM     30  C   UNL     1      -2.703   8.511   5.971  0.00  0.00    +0.002 C 
ATOM     31  C   UNL     1      -3.554   9.272   4.952  0.00  0.00    +0.000 C 
ATOM     32  C   UNL     1      -2.712  10.374   4.306  0.00  0.00    +0.002 C 
ATOM     33  C   UNL     1      -1.508   9.748   3.599  0.00  0.00    +0.024 C 
ENDBRANCH  26  28
ENDBRANCH   1  18
TORSDOF 3
