REMARK  Name = ZINC39844814
REMARK  6 active torsions:
REMARK  status: ('A' for Active; 'I' for Inactive)
REMARK    1  A    between atoms: C_1  and  C_2
REMARK    2  A    between atoms: C_5  and  S_8
REMARK    3  A    between atoms: S_8  and  C_11
REMARK    4  A    between atoms: C_12  and  N_23
REMARK    5  A    between atoms: C_14  and  C_16
REMARK    6  A    between atoms: N_23  and  C_24
REMARK                            x       y       z     vdW  Elec       q    Type
REMARK                         _______ _______ _______ _____ _____    ______ ____
ROOT
ATOM      1  C   UNL     1       1.665  -5.380  -0.063  0.00  0.00    +0.243 A 
ATOM      2  C   UNL     1       2.481  -5.377  -1.145  0.00  0.00    +0.237 A 
ATOM      3  O   UNL     1       3.721  -5.679  -0.709  0.00  0.00    -0.420 OA
ATOM      4  C   UNL     1       3.652  -5.862   0.624  0.00  0.00    +0.231 A 
ATOM      5  N   UNL     1       2.413  -5.675   1.011  0.00  0.00    -0.188 NA
ENDROOT
BRANCH   4   6
ATOM      6  C   UNL     1       4.786  -6.208   1.505  0.00  0.00    +0.037 A 
ATOM      7  C   UNL     1       4.582  -6.377   2.876  0.00  0.00    +0.016 A 
ATOM      8  C   UNL     1       5.644  -6.701   3.694  0.00  0.00    +0.039 A 
ATOM      9  C   UNL     1       6.912  -6.859   3.157  0.00  0.00    +0.123 A 
ATOM     10  C   UNL     1       7.120  -6.693   1.797  0.00  0.00    +0.039 A 
ATOM     11  C   UNL     1       6.065  -6.374   0.969  0.00  0.00    +0.016 A 
ATOM     12  F   UNL     1       7.949  -7.177   3.962  0.00  0.00    -0.205 F 
ENDBRANCH   4   6
BRANCH   1  13
ATOM     13  S   UNL     1      -0.065  -5.048  -0.065  0.00  0.00    +0.047 S 
ATOM     14  O   UNL     1      -0.601  -5.675   1.092  0.00  0.00    -0.163 OA
ATOM     15  O   UNL     1      -0.533  -5.339  -1.375  0.00  0.00    -0.163 OA
BRANCH  13  20
ATOM     16  C   UNL     1      -0.745   0.895   0.727  0.00  0.00    +0.044 C 
ATOM     17  C   UNL     1      -0.575  -0.589   0.529  0.00  0.00    -0.050 A 
ATOM     18  C   UNL     1      -0.464  -1.108  -0.747  0.00  0.00    +0.005 A 
ATOM     19  C   UNL     1      -0.308  -2.470  -0.929  0.00  0.00    +0.028 A 
ATOM     20  C   UNL     1      -0.263  -3.312   0.166  0.00  0.00    +0.095 A 
ATOM     21  C   UNL     1      -0.373  -2.793   1.443  0.00  0.00    +0.028 A 
ATOM     22  C   UNL     1      -0.525  -1.431   1.624  0.00  0.00    +0.005 A 
ENDBRANCH  13  20
ENDBRANCH   1  13
BRANCH   2  23
ATOM     23  N   UNL     1       2.109  -5.114  -2.459  0.00  0.00    -0.283 N 
ATOM     24  H   UNL     1       1.206  -4.822  -2.658  0.00  0.00    +0.155 HD
BRANCH  23  25
ATOM     25  C   UNL     1       3.038  -5.268  -3.493  0.00  0.00    +0.034 A 
ATOM     26  C   UNL     1       4.066  -6.195  -3.372  0.00  0.00    +0.026 A 
ATOM     27  C   UNL     1       4.981  -6.346  -4.394  0.00  0.00    +0.040 A 
ATOM     28  C   UNL     1       4.875  -5.576  -5.540  0.00  0.00    +0.124 A 
ATOM     29  C   UNL     1       3.852  -4.651  -5.663  0.00  0.00    +0.040 A 
ATOM     30  C   UNL     1       2.930  -4.500  -4.645  0.00  0.00    +0.026 A 
ATOM     31  F   UNL     1       5.772  -5.725  -6.539  0.00  0.00    -0.205 F 
ENDBRANCH  23  25
ENDBRANCH   2  23
TORSDOF 5
