REMARK  Name = ZINC21323994
REMARK  9 active torsions:
REMARK  status: ('A' for Active; 'I' for Inactive)
REMARK    1  A    between atoms: C_1  and  C_2
REMARK    2  A    between atoms: C_2  and  C_22
REMARK    3  A    between atoms: N_3  and  N_4
REMARK    4  A    between atoms: C_8  and  S_11
REMARK    5  A    between atoms: N_9  and  N_10
REMARK    6  A    between atoms: S_11  and  C_12
REMARK    7  A    between atoms: C_12  and  C_13
REMARK    8  A    between atoms: C_13  and  C_15
REMARK    9  A    between atoms: C_23  and  C_24
REMARK                            x       y       z     vdW  Elec       q    Type
REMARK                         _______ _______ _______ _____ _____    ______ ____
ROOT
ATOM      1  N   UNL     1       1.185   7.703   0.030  0.00  0.00    -0.204 N 
ATOM      2  C   UNL     1      -0.021   8.387   0.045  0.00  0.00    +0.254 A 
ATOM      3  N   UNL     1      -1.218   7.854   0.054  0.00  0.00    -0.109 NA
ATOM      4  N   UNL     1      -2.112   8.778   0.067  0.00  0.00    -0.119 NA
ATOM      5  C   UNL     1      -1.539   9.957   0.067  0.00  0.00    +0.210 A 
ATOM      6  N   UNL     1      -0.185   9.749   0.059  0.00  0.00    -0.211 N 
ATOM      7  H   UNL     1       2.133   8.260   0.024  0.00  0.00    +0.178 HD
ENDROOT
BRANCH   1  10
ATOM      8  C   UNL     1       3.628   6.422   0.001  0.00  0.00    +0.067 C 
ATOM      9  C   UNL     1       2.329   5.659   0.009  0.00  0.00    +0.056 C 
ATOM     10  N   UNL     1       1.195   6.302   0.023  0.00  0.00    -0.185 NA
BRANCH   9  11
ATOM     11  C   UNL     1       2.340   4.242   0.002  0.00  0.00    +0.025 C 
ATOM     12  C   UNL     1       1.176   3.558   0.009  0.00  0.00    +0.010 C 
BRANCH  12  13
ATOM     13  C   UNL     1       1.187   2.087   0.002  0.00  0.00    -0.025 A 
ATOM     14  C   UNL     1      -0.017   1.375   0.010  0.00  0.00    +0.008 A 
ATOM     15  C   UNL     1       0.002  -0.004   0.002  0.00  0.00    +0.001 A 
ATOM     16  C   UNL     1       1.208  -0.683  -0.013  0.00  0.00    +0.000 A 
ATOM     17  C   UNL     1       2.403   0.014  -0.020  0.00  0.00    +0.001 A 
ATOM     18  C   UNL     1       2.401   1.393  -0.013  0.00  0.00    +0.008 A 
ENDBRANCH  12  13
ENDBRANCH   9  11
ENDBRANCH   1  10
BRANCH   6  19
ATOM     19  N   UNL     1       0.796  10.699   0.062  0.00  0.00    -0.294 N 
ATOM     20  H   UNL     1       0.529  11.766   0.074  0.00  0.00    +0.163 HD
ATOM     21  H   UNL     1       1.854  10.396   0.052  0.00  0.00    +0.163 HD
ENDBRANCH   6  19
BRANCH   5  22
ATOM     22  S   UNL     1      -2.358  11.518   0.082  0.00  0.00    -0.076 S 
BRANCH  22  23
ATOM     23  C   UNL     1      -4.082  10.968   0.097  0.00  0.00    +0.157 C 
BRANCH  23  24
ATOM     24  C   UNL     1      -4.992  12.169   0.111  0.00  0.00    +0.173 C 
ATOM     25  O   UNL     1      -4.521  13.286   0.111  0.00  0.00    -0.291 OA
BRANCH  24  26
ATOM     26  C   UNL     1      -6.452  11.986   0.125  0.00  0.00    +0.018 A 
ATOM     27  C   UNL     1      -6.998  10.698   0.119  0.00  0.00    +0.012 A 
ATOM     28  C   UNL     1      -8.367  10.534   0.138  0.00  0.00    +0.016 A 
ATOM     29  C   UNL     1      -9.200  11.641   0.151  0.00  0.00    +0.018 A 
ATOM     30  C   UNL     1      -8.666  12.919   0.151  0.00  0.00    +0.016 A 
ATOM     31  C   UNL     1      -7.300  13.098   0.138  0.00  0.00    +0.012 A 
ATOM     32 BR   UNL     1     -11.076  11.405   0.170  0.00  0.00    -0.050 Br
ENDBRANCH  24  26
ENDBRANCH  23  24
ENDBRANCH  22  23
ENDBRANCH   5  22
TORSDOF 8
