REMARK  Name = ZINC27102340
REMARK  9 active torsions:
REMARK  status: ('A' for Active; 'I' for Inactive)
REMARK    1  A    between atoms: C_1  and  C_2
REMARK    2  A    between atoms: N_8  and  C_9
REMARK    3  A    between atoms: C_9  and  C_10
REMARK    4  A    between atoms: C_10  and  C_11
REMARK    5  A    between atoms: C_11  and  N_12
REMARK    6  A    between atoms: C_13  and  C_15
REMARK    7  A    between atoms: C_15  and  O_16
REMARK    8  A    between atoms: O_16  and  C_17
REMARK    9  A    between atoms: C_25  and  C_28
REMARK                            x       y       z     vdW  Elec       q    Type
REMARK                         _______ _______ _______ _____ _____    ______ ____
ROOT
ATOM      1  C   UNL     1      -1.226   3.138   0.030  0.00  0.00    +0.125 A 
ATOM      2  C   UNL     1      -1.203   1.745   0.017  0.00  0.00    +0.046 A 
ATOM      3  C   UNL     1      -0.013   1.076   0.008  0.00  0.00    +0.019 A 
ATOM      4  C   UNL     1       1.185   1.793   0.000  0.00  0.00    +0.065 A 
ATOM      5  C   UNL     1       1.172   3.198   0.008  0.00  0.00    +0.142 A 
ATOM      6  C   UNL     1      -0.047   3.863   0.023  0.00  0.00    +0.092 A 
ATOM      7  O   UNL     1       2.330   3.889   0.001  0.00  0.00    -0.462 OA
ATOM      8  C   UNL     1       3.531   3.306  -0.013  0.00  0.00    +0.208 A 
ATOM      9  C   UNL     1       3.689   1.957  -0.022  0.00  0.00    +0.064 A 
ATOM     10  C   UNL     1       2.488   1.104  -0.015  0.00  0.00    +0.200 A 
ATOM     11  O   UNL     1       2.568  -0.112  -0.022  0.00  0.00    -0.286 OA
ENDROOT
BRANCH   9  12
ATOM     12  C   UNL     1       5.044   1.354  -0.037  0.00  0.00    -0.011 A 
ATOM     13  C   UNL     1       5.378   0.361   0.882  0.00  0.00    +0.010 A 
ATOM     14  C   UNL     1       6.639  -0.200   0.861  0.00  0.00    +0.020 A 
ATOM     15  C   UNL     1       7.574   0.230  -0.065  0.00  0.00    +0.041 A 
ATOM     16  C   UNL     1       7.249   1.219  -0.977  0.00  0.00    +0.020 A 
ATOM     17  C   UNL     1       5.990   1.783  -0.967  0.00  0.00    +0.010 A 
ATOM     18 CL   UNL     1       9.160  -0.476  -0.083  0.00  0.00    -0.084 Cl
ENDBRANCH   9  12
BRANCH   1  19
ATOM     19  O   UNL     1      -2.417   3.791   0.044  0.00  0.00    -0.483 OA
BRANCH  19  20
ATOM     20  C   UNL     1      -3.597   2.986   0.051  0.00  0.00    +0.324 C 
BRANCH  20  22
ATOM     21  N   UNL     1      -6.046   3.335   0.075  0.00  0.00    -0.313 N 
ATOM     22  C   UNL     1      -4.812   3.877   0.067  0.00  0.00    +0.251 C 
ATOM     23  O   UNL     1      -4.680   5.083   0.072  0.00  0.00    -0.272 OA
ATOM     24  H   UNL     1      -6.166   2.241   0.070  0.00  0.00    +0.149 HD
BRANCH  21  25
ATOM     25  C   UNL     1      -7.227   4.201   0.091  0.00  0.00    +0.102 C 
BRANCH  25  26
ATOM     26  C   UNL     1      -8.492   3.340   0.098  0.00  0.00    +0.000 C 
BRANCH  26  27
ATOM     27  C   UNL     1      -9.725   4.245   0.114  0.00  0.00    -0.077 C 
BRANCH  27  34
ATOM     28  C   UNL     1     -10.817   3.360  -2.324  0.00  0.00    -0.013 C 
ATOM     29  C   UNL     1     -10.978   2.530  -1.049  0.00  0.00    -0.072 C 
ATOM     30  C   UNL     1     -12.318   1.792  -1.087  0.00  0.00    -0.016 C 
ATOM     31  C   UNL     1     -12.484   0.979   0.200  0.00  0.00    -0.003 C 
ATOM     32  C   UNL     1     -12.392   1.920   1.405  0.00  0.00    -0.019 C 
ATOM     33  C   UNL     1     -11.049   2.655   1.370  0.00  0.00    -0.078 C 
ATOM     34  N   UNL     1     -10.939   3.417   0.120  0.00  0.00    +0.381 N 
ATOM     35  H   UNL     1     -11.808   4.089   0.060  0.00  0.00    -0.081 HD
ENDBRANCH  27  34
ENDBRANCH  26  27
ENDBRANCH  25  26
ENDBRANCH  21  25
ENDBRANCH  20  22
ENDBRANCH  19  20
ENDBRANCH   1  19
TORSDOF 8
