REMARK  Name = ZINC05260981
REMARK  7 active torsions:
REMARK  status: ('A' for Active; 'I' for Inactive)
REMARK    1  A    between atoms: C_1  and  C_2
REMARK    2  A    between atoms: C_2  and  C_32
REMARK    3  A    between atoms: C_6  and  C_20
REMARK    4  A    between atoms: C_8  and  C_18
REMARK    5  A    between atoms: C_9  and  N_17
REMARK    6  A    between atoms: N_10  and  C_11
REMARK    7  A    between atoms: C_23  and  N_26
REMARK                            x       y       z     vdW  Elec       q    Type
REMARK                         _______ _______ _______ _____ _____    ______ ____
ROOT
ATOM      1  C   UNL     1      -1.586   0.489  -1.830  0.00  0.00    +0.011 C 
ATOM      2  C   UNL     1      -2.441   1.288  -2.816  0.00  0.00    -0.023 C 
ATOM      3  C   UNL     1      -3.844   1.484  -2.238  0.00  0.00    +0.058 C 
ATOM      4  C   UNL     1      -3.758   2.267  -0.951  0.00  0.00    +0.025 C 
ATOM      5  C   UNL     1      -2.782   3.178  -0.755  0.00  0.00    +0.025 C 
ATOM      6  C   UNL     1      -2.700   3.962   0.530  0.00  0.00    +0.097 C 
ATOM      7  C   UNL     1      -3.999   3.913   1.279  0.00  0.00    +0.077 C 
ATOM      8  C   UNL     1      -4.932   2.965   1.004  0.00  0.00    +0.107 C 
ATOM      9  N   UNL     1      -4.700   2.034   0.017  0.00  0.00    -0.260 N 
ATOM     10  C   UNL     1      -1.810   3.423  -1.742  0.00  0.00    +0.162 C 
ATOM     11  O   UNL     1      -0.953   4.260  -1.540  0.00  0.00    -0.292 OA
ATOM     12  C   UNL     1      -1.812   2.667  -3.042  0.00  0.00    +0.086 C 
ATOM     13  C   UNL     1      -2.532   0.535  -4.145  0.00  0.00    +0.011 C 
ENDROOT
BRANCH   9  14
ATOM     14  C   UNL     1      -5.432   0.841   0.001  0.00  0.00    +0.040 A 
ATOM     15  C   UNL     1      -6.636   0.771  -0.687  0.00  0.00    +0.024 A 
ATOM     16  C   UNL     1      -7.352  -0.409  -0.705  0.00  0.00    +0.002 A 
ATOM     17  C   UNL     1      -6.877  -1.518  -0.029  0.00  0.00    +0.000 A 
ATOM     18  C   UNL     1      -5.682  -1.450   0.663  0.00  0.00    +0.002 A 
ATOM     19  C   UNL     1      -4.958  -0.275   0.680  0.00  0.00    +0.024 A 
ENDBRANCH   9  14
BRANCH   6  20
ATOM     20  C   UNL     1      -1.609   3.383   1.394  0.00  0.00    -0.035 A 
ATOM     21  C   UNL     1      -1.694   2.074   1.829  0.00  0.00    +0.007 A 
ATOM     22  C   UNL     1      -0.697   1.544   2.626  0.00  0.00    +0.033 A 
ATOM     23  C   UNL     1       0.392   2.320   2.978  0.00  0.00    +0.126 A 
ATOM     24  C   UNL     1       0.480   3.628   2.538  0.00  0.00    +0.033 A 
ATOM     25  C   UNL     1      -0.521   4.159   1.746  0.00  0.00    +0.007 A 
BRANCH  23  26
ATOM     26  N   UNL     1       1.464   1.751   3.825  0.00  0.00    +0.056 N 
ATOM     27  O   UNL     1       1.386   0.599   4.213  0.00  0.00    -0.126 OA
ATOM     28  O   UNL     1       2.422   2.435   4.136  0.00  0.00    -0.126 OA
ENDBRANCH  23  26
ENDBRANCH   6  20
BRANCH   8  29
ATOM     29  N   UNL     1      -6.110   2.937   1.711  0.00  0.00    -0.345 N 
ATOM     30  H   UNL     1      -6.239   3.535   2.463  0.00  0.00    +0.144 HD
ATOM     31  H   UNL     1      -6.813   2.318   1.458  0.00  0.00    +0.144 HD
ENDBRANCH   8  29
BRANCH   7  32
ATOM     32  C   UNL     1      -4.259   4.881   2.302  0.00  0.00    +0.099 C 
ATOM     33  N   UNL     1      -4.465   5.649   3.113  0.00  0.00    -0.191 NA
ENDBRANCH   7  32
TORSDOF 5
