REMARK  Name = ZINC00844518
REMARK  7 active torsions:
REMARK  status: ('A' for Active; 'I' for Inactive)
REMARK    1  A    between atoms: C_1  and  C_2
REMARK    2  A    between atoms: C_2  and  O_3
REMARK    3  A    between atoms: O_3  and  C_4
REMARK    4  A    between atoms: C_9  and  C_10
REMARK    5  A    between atoms: C_12  and  C_31
REMARK    6  A    between atoms: C_13  and  C_30
REMARK    7  A    between atoms: C_20  and  C_23
REMARK                            x       y       z     vdW  Elec       q    Type
REMARK                         _______ _______ _______ _____ _____    ______ ____
ROOT
ATOM      1  C   UNL     1       1.990  -1.397  -3.491  0.00  0.00    +0.099 C 
ATOM      2  C   UNL     1       3.469  -1.627  -3.591  0.00  0.00    +0.058 C 
ATOM      3  C   UNL     1       4.000  -2.324  -4.607  0.00  0.00    +0.019 C 
ATOM      4  N   UNL     1       3.194  -2.843  -5.588  0.00  0.00    -0.320 N 
ATOM      5  C   UNL     1       1.934  -2.349  -5.787  0.00  0.00    +0.016 C 
ATOM      6  C   UNL     1       1.312  -1.650  -4.814  0.00  0.00    +0.025 C 
ATOM      7  C   UNL     1       0.017  -1.139  -5.005  0.00  0.00    +0.162 C 
ATOM      8  O   UNL     1      -0.510  -0.501  -4.116  0.00  0.00    -0.292 OA
ATOM      9  C   UNL     1      -0.728  -1.369  -6.292  0.00  0.00    +0.088 C 
ATOM     10  C   UNL     1      -0.249  -2.683  -6.918  0.00  0.00    +0.032 C 
ATOM     11  C   UNL     1       1.264  -2.600  -7.115  0.00  0.00    +0.059 C 
ATOM     12  C   UNL     1       5.490  -2.539  -4.671  0.00  0.00    +0.061 C 
ATOM     13  H   UNL     1       3.521  -3.566  -6.146  0.00  0.00    +0.152 HD
ENDROOT
BRANCH  10  14
ATOM     14  C   UNL     1      -0.926  -2.886  -8.249  0.00  0.00    -0.043 A 
ATOM     15  C   UNL     1      -0.754  -1.959  -9.261  0.00  0.00    +0.005 A 
ATOM     16  C   UNL     1      -1.374  -2.145 -10.482  0.00  0.00    +0.020 A 
ATOM     17  C   UNL     1      -2.169  -3.258 -10.691  0.00  0.00    +0.041 A 
ATOM     18  C   UNL     1      -2.341  -4.185  -9.679  0.00  0.00    +0.020 A 
ATOM     19  C   UNL     1      -1.716  -4.001  -8.460  0.00  0.00    +0.005 A 
ATOM     20 CL   UNL     1      -2.949  -3.491 -12.224  0.00  0.00    -0.084 Cl
ENDBRANCH  10  14
BRANCH   1  26
ATOM     21  C   UNL     1       0.777  -1.810  -1.336  0.00  0.00    +0.125 A 
ATOM     22  C   UNL     1       0.243  -2.669  -0.386  0.00  0.00    +0.046 A 
ATOM     23  C   UNL     1       0.351  -4.036  -0.554  0.00  0.00    +0.004 A 
ATOM     24  C   UNL     1       0.991  -4.548  -1.667  0.00  0.00    +0.001 A 
ATOM     25  C   UNL     1       1.525  -3.695  -2.615  0.00  0.00    +0.008 A 
ATOM     26  C   UNL     1       1.414  -2.327  -2.455  0.00  0.00    +0.007 A 
BRANCH  21  27
ATOM     27  O   UNL     1       0.671  -0.465  -1.174  0.00  0.00    -0.492 OA
BRANCH  27  29
ATOM     28  C   UNL     1      -0.019   1.526   0.010  0.00  0.00    +0.048 C 
ATOM     29  C   UNL     1       0.002  -0.004   0.002  0.00  0.00    +0.225 C 
ENDBRANCH  27  29
ENDBRANCH  21  27
ENDBRANCH   1  26
BRANCH   2  30
ATOM     30  C   UNL     1       4.333  -1.091  -2.582  0.00  0.00    +0.097 C 
ATOM     31  N   UNL     1       5.017  -0.666  -1.781  0.00  0.00    -0.191 NA
ENDBRANCH   2  30
TORSDOF 5
