REMARK  Name = ZINC00910764
REMARK  7 active torsions:
REMARK  status: ('A' for Active; 'I' for Inactive)
REMARK    1  A    between atoms: C_1  and  O_2
REMARK    2  A    between atoms: O_2  and  C_3
REMARK    3  A    between atoms: C_7  and  C_9
REMARK    4  A    between atoms: C_12  and  C_14
REMARK    5  A    between atoms: C_12  and  O_18
REMARK    6  A    between atoms: C_19  and  C_21
REMARK    7  A    between atoms: C_26  and  O_27
REMARK                            x       y       z     vdW  Elec       q    Type
REMARK                         _______ _______ _______ _____ _____    ______ ____
ROOT
ATOM      1  C   UNL     1      -0.785   1.711   6.048  0.00  0.00    +0.072 C 
ATOM      2  N   UNL     1      -1.851   2.429   6.135  0.00  0.00    -0.178 NA
ATOM      3  N   UNL     1      -2.269   2.672   7.442  0.00  0.00    -0.148 N 
ATOM      4  C   UNL     1      -1.336   2.014   8.370  0.00  0.00    +0.257 C 
ATOM      5  C   UNL     1      -0.311   1.341   7.436  0.00  0.00    +0.124 C 
ATOM      6  C   UNL     1      -3.351   3.393   7.798  0.00  0.00    +0.272 C 
ATOM      7  O   UNL     1      -3.665   3.481   8.969  0.00  0.00    -0.268 OA
ENDROOT
BRANCH   1  12
ATOM      8  C   UNL     1      -0.046   1.323   2.386  0.00  0.00    +0.121 A 
ATOM      9  C   UNL     1       1.103   0.544   2.427  0.00  0.00    +0.045 A 
ATOM     10  C   UNL     1       1.633   0.147   3.640  0.00  0.00    +0.004 A 
ATOM     11  C   UNL     1       1.025   0.523   4.820  0.00  0.00    +0.010 A 
ATOM     12  C   UNL     1      -0.132   1.306   4.790  0.00  0.00    +0.001 A 
ATOM     13  C   UNL     1      -0.663   1.710   3.563  0.00  0.00    +0.055 A 
BRANCH   8  15
ATOM     14  C   UNL     1       0.129   1.279   0.015  0.00  0.00    +0.277 C 
ATOM     15  O   UNL     1      -0.562   1.710   1.190  0.00  0.00    -0.495 OA
ENDBRANCH   8  15
ENDBRANCH   1  12
BRANCH   6  16
ATOM     16  C   UNL     1      -4.154   4.077   6.766  0.00  0.00    +0.080 A 
ATOM     17  C   UNL     1      -3.872   3.880   5.412  0.00  0.00    +0.017 A 
ATOM     18  C   UNL     1      -4.630   4.516   4.453  0.00  0.00    +0.001 A 
ATOM     19  C   UNL     1      -5.663   5.360   4.825  0.00  0.00    +0.004 A 
ATOM     20  C   UNL     1      -5.948   5.569   6.160  0.00  0.00    +0.046 A 
ATOM     21  C   UNL     1      -5.200   4.931   7.138  0.00  0.00    +0.129 A 
BRANCH  21  22
ATOM     22  O   UNL     1      -5.479   5.135   8.450  0.00  0.00    -0.506 OA
ATOM     23  H   UNL     1      -4.999   5.875   8.845  0.00  0.00    +0.292 HD
ENDBRANCH  21  22
ENDBRANCH   6  16
BRANCH   4  24
ATOM     24  C   UNL     1      -2.064   0.961   9.209  0.00  0.00    +0.438 C 
ATOM     25  F   UNL     1      -2.649   0.013   8.362  0.00  0.00    -0.166 F 
ATOM     26  F   UNL     1      -1.151   0.328  10.058  0.00  0.00    -0.166 F 
ATOM     27  F   UNL     1      -3.059   1.581   9.973  0.00  0.00    -0.166 F 
ENDBRANCH   4  24
BRANCH   4  28
ATOM     28  O   UNL     1      -0.700   2.977   9.212  0.00  0.00    -0.363 OA
ATOM     29  H   UNL     1      -1.312   3.475   9.772  0.00  0.00    +0.212 HD
ENDBRANCH   4  28
TORSDOF 6
