REMARK  Name = ZINC09589388
REMARK  12 active torsions:
REMARK  status: ('A' for Active; 'I' for Inactive)
REMARK    1  A    between atoms: C_1  and  C_2
REMARK    2  A    between atoms: C_2  and  C_4
REMARK    3  A    between atoms: C_2  and  S_18
REMARK    4  A    between atoms: N_6  and  C_7
REMARK    5  A    between atoms: S_18  and  C_19
REMARK    6  A    between atoms: C_22  and  C_25
REMARK    7  A    between atoms: N_23  and  N_24
REMARK    8  A    between atoms: C_25  and  O_26
REMARK    9  A    between atoms: O_26  and  C_27
REMARK   10  A    between atoms: C_30  and  C_33
REMARK   11  A    between atoms: C_33  and  C_34
REMARK   12  A    between atoms: C_33  and  C_35
REMARK                            x       y       z     vdW  Elec       q    Type
REMARK                         _______ _______ _______ _____ _____    ______ ____
ROOT
ATOM      1  C   UNL     1       2.533  -0.042   1.241  0.00  0.00    +0.209 A 
ATOM      2  N   UNL     1       2.985   0.657   0.225  0.00  0.00    -0.121 NA
ATOM      3  N   UNL     1       4.239   0.893   0.382  0.00  0.00    -0.128 NA
ATOM      4  C   UNL     1       4.658   0.365   1.497  0.00  0.00    +0.189 A 
ATOM      5  N   UNL     1       3.585  -0.245   2.087  0.00  0.00    -0.225 N 
ENDROOT
BRANCH   5   6
ATOM      6  N   UNL     1       3.571  -0.920   3.274  0.00  0.00    -0.295 N 
ATOM      7  H   UNL     1       3.776  -1.898   3.137  0.00  0.00    +0.163 HD
ATOM      8  H   UNL     1       4.211  -0.505   3.934  0.00  0.00    +0.163 HD
ENDBRANCH   5   6
BRANCH   1   9
ATOM      9  S   UNL     1       0.879  -0.605   1.472  0.00  0.00    -0.072 S 
BRANCH   9  11
ATOM     10  C   UNL     1      -0.019   1.526   0.010  0.00  0.00    +0.029 C 
ATOM     11  C   UNL     1       0.002  -0.004   0.002  0.00  0.00    +0.137 C 
BRANCH  11  12
ATOM     12  C   UNL     1      -1.412  -0.526   0.013  0.00  0.00    +0.227 C 
ATOM     13  O   UNL     1      -1.939  -0.827   1.062  0.00  0.00    -0.275 OA
ATOM     14  N   UNL     1      -2.090  -0.657  -1.144  0.00  0.00    -0.308 N 
ATOM     15  H   UNL     1      -1.669  -0.416  -1.984  0.00  0.00    +0.149 HD
BRANCH  14  16
ATOM     16  C   UNL     1      -3.465  -1.164  -1.134  0.00  0.00    +0.103 C 
ATOM     17  C   UNL     1      -4.202  -0.645  -2.366  0.00  0.00    +0.027 C 
ATOM     18  C   UNL     1      -5.558  -1.355  -2.453  0.00  0.00    +0.007 C 
ATOM     19  C   UNL     1      -5.313  -2.817  -2.820  0.00  0.00    +0.035 C 
ATOM     20  C   UNL     1      -4.290  -3.430  -1.899  0.00  0.00    -0.042 A 
ATOM     21  C   UNL     1      -3.438  -2.670  -1.129  0.00  0.00    -0.024 A 
ATOM     22  C   UNL     1      -2.513  -3.298  -0.306  0.00  0.00    +0.006 A 
ATOM     23  C   UNL     1      -2.442  -4.675  -0.253  0.00  0.00    +0.000 A 
ATOM     24  C   UNL     1      -3.299  -5.437  -1.025  0.00  0.00    +0.000 A 
ATOM     25  C   UNL     1      -4.218  -4.815  -1.842  0.00  0.00    +0.004 A 
ENDBRANCH  14  16
ENDBRANCH  11  12
ENDBRANCH   9  11
ENDBRANCH   1   9
BRANCH   4  26
ATOM     26  C   UNL     1       6.063   0.421   2.039  0.00  0.00    +0.306 C 
BRANCH  26  27
ATOM     27  O   UNL     1       6.210   1.579   2.863  0.00  0.00    -0.484 OA
BRANCH  27  28
ATOM     28  C   UNL     1       7.427   1.780   3.434  0.00  0.00    +0.121 A 
ATOM     29  C   UNL     1       8.460   0.883   3.201  0.00  0.00    +0.046 A 
ATOM     30  C   UNL     1       9.696   1.090   3.782  0.00  0.00    +0.007 A 
ATOM     31  C   UNL     1       9.904   2.188   4.596  0.00  0.00    -0.045 A 
ATOM     32  C   UNL     1       8.876   3.083   4.830  0.00  0.00    +0.007 A 
ATOM     33  C   UNL     1       7.639   2.884   4.246  0.00  0.00    +0.046 A 
BRANCH  31  34
ATOM     34  C   UNL     1      11.253   2.411   5.229  0.00  0.00    +0.013 C 
ATOM     35  C   UNL     1      11.819   3.755   4.765  0.00  0.00    +0.012 C 
ATOM     36  C   UNL     1      11.107   2.417   6.752  0.00  0.00    +0.012 C 
ENDBRANCH  31  34
ENDBRANCH  27  28
ENDBRANCH  26  27
ENDBRANCH   4  26
TORSDOF 9
