REMARK  Name = ZINC21190881
REMARK  5 active torsions:
REMARK  status: ('A' for Active; 'I' for Inactive)
REMARK    1  A    between atoms: C_1  and  C_2
REMARK    2  A    between atoms: C_3  and  C_24
REMARK    3  A    between atoms: C_8  and  C_12
REMARK    4  A    between atoms: C_13  and  C_14
REMARK    5  A    between atoms: C_18  and  N_20
REMARK                            x       y       z     vdW  Elec       q    Type
REMARK                         _______ _______ _______ _____ _____    ______ ____
ROOT
ATOM      1  C   UNL     1       0.788  13.406  -0.516  0.00  0.00    +0.052 C 
ATOM      2  C   UNL     1       0.297  11.983  -0.432  0.00  0.00    -0.003 A 
ATOM      3  C   UNL     1      -1.090  11.505  -0.447  0.00  0.00    +0.007 A 
ATOM      4  C   UNL     1      -1.299  10.144  -0.357  0.00  0.00    +0.080 A 
ATOM      5  C   UNL     1      -2.569   9.368  -0.346  0.00  0.00    +0.282 A 
ATOM      6  O   UNL     1      -3.646   9.928  -0.424  0.00  0.00    -0.265 OA
ATOM      7  N   UNL     1      -2.487   8.025  -0.254  0.00  0.00    -0.190 NA
ATOM      8  C   UNL     1      -1.285   7.386  -0.161  0.00  0.00    +0.154 A 
ATOM      9  N   UNL     1      -0.119   8.041  -0.167  0.00  0.00    -0.333 N 
ATOM     10  C   UNL     1      -0.066   9.338  -0.257  0.00  0.00    +0.092 A 
ATOM     11  S   UNL     1       1.239  10.536  -0.296  0.00  0.00    -0.075 S 
ATOM     12  H   UNL     1       0.826   7.482  -0.094  0.00  0.00    +0.168 HD
ENDROOT
BRANCH   3  13
ATOM     13  C   UNL     1      -2.219  12.445  -0.553  0.00  0.00    -0.016 A 
ATOM     14  C   UNL     1      -3.129  12.574   0.505  0.00  0.00    +0.008 A 
ATOM     15  C   UNL     1      -4.180  13.459   0.400  0.00  0.00    +0.001 A 
ATOM     16  C   UNL     1      -4.345  14.211  -0.752  0.00  0.00    +0.000 A 
ATOM     17  C   UNL     1      -3.452  14.086  -1.805  0.00  0.00    +0.001 A 
ATOM     18  C   UNL     1      -2.393  13.210  -1.714  0.00  0.00    +0.008 A 
ENDBRANCH   3  13
BRANCH   8  19
ATOM     19  C   UNL     1      -1.272   5.985  -0.061  0.00  0.00    +0.084 C 
ATOM     20  C   UNL     1      -0.070   5.310   0.028  0.00  0.00    +0.031 C 
ATOM     21 CL   UNL     1      -2.767   5.101  -0.051  0.00  0.00    -0.080 Cl
BRANCH  20  22
ATOM     22  C   UNL     1      -0.057   3.871   0.291  0.00  0.00    -0.021 A 
ATOM     23  C   UNL     1      -1.062   3.287   1.080  0.00  0.00    +0.008 A 
ATOM     24  C   UNL     1      -1.044   1.931   1.317  0.00  0.00    +0.003 A 
ATOM     25  C   UNL     1      -0.033   1.144   0.788  0.00  0.00    +0.033 A 
ATOM     26  C   UNL     1       0.964   1.711   0.009  0.00  0.00    +0.127 A 
ATOM     27  C   UNL     1       0.961   3.064  -0.244  0.00  0.00    +0.040 A 
BRANCH  26  28
ATOM     28  N   UNL     1       2.034   0.858  -0.554  0.00  0.00    +0.056 N 
ATOM     29  O   UNL     1       2.039  -0.438  -0.314  0.00  0.00    -0.126 OA
ATOM     30  O   UNL     1       2.982   1.393  -1.294  0.00  0.00    -0.126 OA
ENDBRANCH  26  28
ENDBRANCH  20  22
ENDBRANCH   8  19
TORSDOF 4
