REMARK  Name = ZINC40986249
REMARK  17 active torsions:
REMARK  status: ('A' for Active; 'I' for Inactive)
REMARK    1  A    between atoms: C_1  and  C_2
REMARK    2  A    between atoms: C_2  and  C_3
REMARK    3  A    between atoms: C_3  and  C_4
REMARK    4  A    between atoms: C_4  and  S_5
REMARK    5  A    between atoms: S_5  and  C_8
REMARK    6  A    between atoms: C_11  and  C_15
REMARK    7  A    between atoms: N_17  and  C_18
REMARK    8  A    between atoms: C_18  and  C_19
REMARK    9  A    between atoms: C_19  and  C_21
REMARK   10  A    between atoms: C_19  and  N_30
REMARK   11  A    between atoms: C_24  and  C_27
REMARK   12  A    between atoms: C_27  and  C_28
REMARK   13  A    between atoms: C_27  and  C_29
REMARK   14  A    between atoms: N_30  and  C_31
REMARK   15  A    between atoms: N_30  and  C_33
REMARK   16  A    between atoms: C_31  and  C_32
REMARK   17  A    between atoms: C_33  and  C_34
REMARK                            x       y       z     vdW  Elec       q    Type
REMARK                         _______ _______ _______ _____ _____    ______ ____
ROOT
ATOM      1  C   UNL     1       1.100 -10.219   1.324  0.00  0.00    +0.248 C 
ATOM      2  O   UNL     1       1.534 -11.191   0.736  0.00  0.00    -0.270 OA
ATOM      3  N   UNL     1       0.259 -10.382   2.365  0.00  0.00    -0.312 N 
ATOM      4  H   UNL     1      -0.143  -9.607   2.788  0.00  0.00    +0.149 HD
ENDROOT
BRANCH   1   8
ATOM      5  C   UNL     1       2.209  -6.397   0.124  0.00  0.00    +0.272 A 
ATOM      6  N   UNL     1       1.302  -6.531   1.072  0.00  0.00    -0.219 NA
ATOM      7  C   UNL     1       0.920  -7.728   1.484  0.00  0.00    +0.130 A 
ATOM      8  C   UNL     1       1.494  -8.861   0.897  0.00  0.00    +0.092 A 
ATOM      9  C   UNL     1       2.453  -8.671  -0.107  0.00  0.00    +0.146 A 
ATOM     10  N   UNL     1       2.772  -7.436  -0.460  0.00  0.00    -0.199 NA
ATOM     11 CL   UNL     1       3.206 -10.032  -0.878  0.00  0.00    -0.061 Cl
BRANCH   5  12
ATOM     12  S   UNL     1       2.678  -4.776  -0.384  0.00  0.00    +0.032 S 
ATOM     13  O   UNL     1       3.996  -4.923  -0.895  0.00  0.00    -0.166 OA
ATOM     14  O   UNL     1       2.428  -3.955   0.748  0.00  0.00    -0.166 OA
BRANCH  12  15
ATOM     15  C   UNL     1       1.531  -4.358  -1.726  0.00  0.00    +0.175 C 
BRANCH  15  16
ATOM     16  C   UNL     1       1.848  -2.955  -2.249  0.00  0.00    +0.023 C 
BRANCH  16  18
ATOM     17  C   UNL     1       1.198  -1.200  -3.904  0.00  0.00    +0.004 C 
ATOM     18  C   UNL     1       0.881  -2.603  -3.381  0.00  0.00    -0.002 C 
ENDBRANCH  16  18
ENDBRANCH  15  16
ENDBRANCH  12  15
ENDBRANCH   5  12
ENDBRANCH   1   8
BRANCH   3  19
ATOM     19  C   UNL     1      -0.047 -11.727   2.856  0.00  0.00    +0.094 C 
BRANCH  19  20
ATOM     20  C   UNL     1      -1.119 -11.641   3.945  0.00  0.00    -0.020 C 
BRANCH  20  21
ATOM     21  C   UNL     1      -1.416 -13.023   4.468  0.00  0.00    -0.059 A 
ATOM     22  C   UNL     1      -0.761 -13.492   5.591  0.00  0.00    +0.002 A 
ATOM     23  C   UNL     1      -1.034 -14.760   6.070  0.00  0.00    +0.004 A 
ATOM     24  C   UNL     1      -1.962 -15.557   5.427  0.00  0.00    -0.045 A 
ATOM     25  C   UNL     1      -2.618 -15.087   4.305  0.00  0.00    +0.004 A 
ATOM     26  C   UNL     1      -2.348 -13.818   3.828  0.00  0.00    +0.002 A 
BRANCH  24  27
ATOM     27  C   UNL     1      -2.258 -16.939   5.950  0.00  0.00    +0.013 C 
ATOM     28  C   UNL     1      -3.740 -17.038   6.319  0.00  0.00    +0.012 C 
ATOM     29  C   UNL     1      -1.932 -17.974   4.870  0.00  0.00    +0.012 C 
ENDBRANCH  24  27
ENDBRANCH  20  21
BRANCH  20  30
ATOM     30  N   UNL     1      -0.634 -10.795   5.044  0.00  0.00    +0.385 N 
ATOM     31  H   UNL     1      -0.609  -9.833   4.742  0.00  0.00    -0.081 HD
BRANCH  30  32
ATOM     32  C   UNL     1      -1.537 -10.924   6.195  0.00  0.00    -0.081 C 
ATOM     33  C   UNL     1      -2.907 -10.346   5.837  0.00  0.00    -0.017 C 
ENDBRANCH  30  32
BRANCH  30  34
ATOM     34  C   UNL     1       0.717 -11.222   5.431  0.00  0.00    -0.081 C 
ATOM     35  C   UNL     1       1.748 -10.277   4.810  0.00  0.00    -0.017 C 
ENDBRANCH  30  34
ENDBRANCH  20  30
ENDBRANCH  19  20
ENDBRANCH   3  19
TORSDOF 12
