REMARK  Name = ZINC13064649
REMARK  11 active torsions:
REMARK  status: ('A' for Active; 'I' for Inactive)
REMARK    1  A    between atoms: C_1  and  C_2
REMARK    2  A    between atoms: C_2  and  C_3
REMARK    3  A    between atoms: C_3  and  C_5
REMARK    4  A    between atoms: C_3  and  N_69
REMARK    5  A    between atoms: N_9  and  C_10
REMARK    6  A    between atoms: C_10  and  C_11
REMARK    7  A    between atoms: C_17  and  C_18
REMARK    8  A    between atoms: C_17  and  N_69
REMARK    9  A    between atoms: C_22  and  C_31
REMARK   10  A    between atoms: C_23  and  C_30
REMARK   11  A    between atoms: C_32  and  N_69
REMARK                            x       y       z     vdW  Elec       q    Type
REMARK                         _______ _______ _______ _____ _____    ______ ____
ROOT
ATOM      1  N   UNL     1      -5.477   4.090  -1.111  0.00  0.00    +0.391 N 
ATOM      2  H   UNL     1      -4.598   4.151  -1.639  0.00  0.00    -0.080 HD
ENDROOT
BRANCH   1   3
ATOM      3  C   UNL     1      -6.044   2.735  -1.278  0.00  0.00    -0.067 C 
ATOM      4  C   UNL     1      -7.009   2.394  -0.124  0.00  0.00    -0.015 C 
ATOM      5  C   UNL     1      -6.752   0.891   0.153  0.00  0.00    -0.002 C 
ATOM      6  C   UNL     1      -5.220   0.764  -0.036  0.00  0.00    -0.002 C 
ATOM      7  C   UNL     1      -4.907   1.700  -1.222  0.00  0.00    -0.015 C 
ENDBRANCH   1   3
BRANCH   1   8
ATOM      8  C   UNL     1      -6.421   5.100  -1.631  0.00  0.00    +0.003 C 
BRANCH   8   9
ATOM      9  C   UNL     1      -7.526   5.350  -0.637  0.00  0.00    +0.138 A 
ATOM     10  N   UNL     1      -8.236   4.443  -0.012  0.00  0.00    -0.115 NA
ATOM     11  N   UNL     1      -9.076   5.052   0.752  0.00  0.00    -0.023 NA
ATOM     12  N   UNL     1      -8.926   6.324   0.624  0.00  0.00    -0.044 NA
ATOM     13  N   UNL     1      -7.980   6.548  -0.224  0.00  0.00    -0.226 N 
BRANCH  13  14
ATOM     14  C   UNL     1      -7.492   7.860  -0.656  0.00  0.00    +0.182 C 
BRANCH  14  15
ATOM     15  C   UNL     1      -8.274   8.315  -1.861  0.00  0.00    -0.026 A 
ATOM     16  C   UNL     1      -7.833   7.995  -3.132  0.00  0.00    +0.005 A 
ATOM     17  C   UNL     1      -8.553   8.409  -4.237  0.00  0.00    +0.000 A 
ATOM     18  C   UNL     1      -9.707   9.150  -4.072  0.00  0.00    +0.000 A 
ATOM     19  C   UNL     1     -10.145   9.474  -2.802  0.00  0.00    +0.000 A 
ATOM     20  C   UNL     1      -9.428   9.056  -1.696  0.00  0.00    +0.005 A 
ENDBRANCH  14  15
ENDBRANCH  13  14
ENDBRANCH   8   9
BRANCH   8  22
ATOM     21  C   UNL     1      -5.901   4.351  -3.957  0.00  0.00    +0.002 C 
ATOM     22  C   UNL     1      -7.022   4.599  -2.946  0.00  0.00    -0.011 C 
ENDBRANCH   8  22
ENDBRANCH   1   8
BRANCH   1  23
ATOM     23  C   UNL     1      -5.196   4.348   0.317  0.00  0.00    -0.036 C 
BRANCH  23  24
ATOM     24  C   UNL     1      -4.268   5.530   0.422  0.00  0.00    +0.001 A 
ATOM     25  C   UNL     1      -4.764   6.754   0.732  0.00  0.00    +0.017 A 
ATOM     26  C   UNL     1      -3.836   7.882   0.826  0.00  0.00    -0.001 A 
ATOM     27  C   UNL     1      -4.289   9.167   1.143  0.00  0.00    +0.013 A 
ATOM     28  C   UNL     1      -3.397  10.198   1.222  0.00  0.00    -0.047 A 
ATOM     29  C   UNL     1      -2.045   9.983   0.993  0.00  0.00    -0.046 A 
ATOM     30  C   UNL     1      -1.576   8.725   0.679  0.00  0.00    +0.030 A 
ATOM     31  C   UNL     1      -2.467   7.660   0.586  0.00  0.00    +0.049 A 
ATOM     32  N   UNL     1      -2.025   6.391   0.281  0.00  0.00    -0.322 N 
ATOM     33  H   UNL     1      -1.080   6.239   0.120  0.00  0.00    +0.169 HD
ATOM     34  C   UNL     1      -2.885   5.361   0.197  0.00  0.00    +0.251 A 
ATOM     35  O   UNL     1      -2.460   4.253  -0.082  0.00  0.00    -0.268 OA
ATOM     36  C   UNL     1      -1.079  11.136   1.087  0.00  0.00    +0.044 C 
ATOM     37  C   UNL     1      -3.885  11.583   1.563  0.00  0.00    +0.044 C 
ENDBRANCH  23  24
ENDBRANCH   1  23
TORSDOF 8
