REMARK  Name = ZINC21791381
REMARK  6 active torsions:
REMARK  status: ('A' for Active; 'I' for Inactive)
REMARK    1  A    between atoms: C_1  and  C_2
REMARK    2  A    between atoms: C_5  and  N_20
REMARK    3  A    between atoms: C_6  and  C_19
REMARK    4  A    between atoms: C_7  and  N_8
REMARK    5  A    between atoms: N_8  and  S_9
REMARK    6  A    between atoms: S_9  and  C_12
REMARK                            x       y       z     vdW  Elec       q    Type
REMARK                         _______ _______ _______ _____ _____    ______ ____
ROOT
ATOM      1  N   UNL     1       0.121   1.659   0.595  0.00  0.00    -0.216 N 
ATOM      2  H   UNL     1       0.613   0.857   0.025  0.00  0.00    +0.174 HD
ENDROOT
BRANCH   1   9
ATOM      3  C   UNL     1      -2.240   0.119   0.962  0.00  0.00    +0.046 C 
ATOM      4  C   UNL     1      -2.267   1.475   0.305  0.00  0.00    -0.028 A 
ATOM      5  C   UNL     1      -3.466   2.005  -0.134  0.00  0.00    +0.007 A 
ATOM      6  C   UNL     1      -3.495   3.245  -0.741  0.00  0.00    +0.023 A 
ATOM      7  C   UNL     1      -2.319   3.967  -0.908  0.00  0.00    +0.029 A 
ATOM      8  C   UNL     1      -1.115   3.440  -0.463  0.00  0.00    -0.007 A 
ATOM      9  C   UNL     1      -1.089   2.193   0.147  0.00  0.00    +0.056 A 
ATOM     10  C   UNL     1       0.163   4.220  -0.643  0.00  0.00    +0.047 C 
BRANCH   7  11
ATOM     11  N   UNL     1      -2.349   5.221  -1.522  0.00  0.00    -0.358 N 
ATOM     12  H   UNL     1      -1.418   5.792  -1.653  0.00  0.00    +0.142 HD
ATOM     13  H   UNL     1      -3.304   5.638  -1.874  0.00  0.00    +0.142 HD
ENDBRANCH   7  11
ENDBRANCH   1   9
BRANCH   1  14
ATOM     14  S   UNL     1       0.816   2.234   1.984  0.00  0.00    +0.072 S 
ATOM     15  O   UNL     1       2.046   1.541   2.140  0.00  0.00    -0.150 OA
ATOM     16  O   UNL     1       0.743   3.652   1.918  0.00  0.00    -0.150 OA
BRANCH  14  17
ATOM     17  C   UNL     1      -0.214   1.739   3.325  0.00  0.00    +0.109 A 
ATOM     18  C   UNL     1      -1.170   2.607   3.820  0.00  0.00    +0.030 A 
ATOM     19  C   UNL     1      -1.981   2.217   4.868  0.00  0.00    +0.017 A 
ATOM     20  C   UNL     1      -1.831   0.962   5.430  0.00  0.00    +0.018 A 
ATOM     21  C   UNL     1      -0.871   0.096   4.938  0.00  0.00    +0.017 A 
ATOM     22  C   UNL     1      -0.063   0.484   3.886  0.00  0.00    +0.030 A 
ATOM     23 BR   UNL     1      -2.936   0.430   6.869  0.00  0.00    -0.050 Br
ENDBRANCH  14  17
ENDBRANCH   1  14
TORSDOF 4
