REMARK  Name = ZINC07046503
REMARK  9 active torsions:
REMARK  status: ('A' for Active; 'I' for Inactive)
REMARK    1  A    between atoms: C_1  and  C_2
REMARK    2  A    between atoms: C_6  and  N_9
REMARK    3  A    between atoms: C_7  and  C_8
REMARK    4  A    between atoms: C_10  and  C_12
REMARK    5  A    between atoms: C_12  and  C_13
REMARK    6  A    between atoms: C_12  and  S_14
REMARK    7  A    between atoms: S_14  and  C_15
REMARK    8  A    between atoms: C_18  and  C_22
REMARK    9  A    between atoms: C_19  and  N_21
REMARK                            x       y       z     vdW  Elec       q    Type
REMARK                         _______ _______ _______ _____ _____    ______ ____
ROOT
ATOM      1  C   UNL     1       1.936  -4.254   4.128  0.00  0.00    +0.137 C 
ATOM      2  C   UNL     1       1.220  -3.760   5.387  0.00  0.00    +0.029 C 
ENDROOT
BRANCH   1   4
ATOM      3  N   UNL     1       1.471  -2.526   2.420  0.00  0.00    -0.311 N 
ATOM      4  C   UNL     1       1.207  -3.754   2.907  0.00  0.00    +0.226 C 
ATOM      5  O   UNL     1       0.382  -4.458   2.364  0.00  0.00    -0.275 OA
ATOM      6  H   UNL     1       2.131  -1.963   2.855  0.00  0.00    +0.149 HD
BRANCH   3  12
ATOM      7  C   UNL     1      -0.019   1.526   0.010  0.00  0.00    +0.008 C 
ATOM      8  C   UNL     1       0.002  -0.004   0.002  0.00  0.00    -0.009 C 
ATOM      9  C   UNL     1       0.718  -0.497  -1.257  0.00  0.00    +0.003 C 
ATOM     10  C   UNL     1       0.739  -2.027  -1.265  0.00  0.00    +0.002 C 
ATOM     11  C   UNL     1       1.479  -2.534  -0.026  0.00  0.00    +0.022 C 
ATOM     12  C   UNL     1       0.763  -2.041   1.233  0.00  0.00    +0.076 C 
ATOM     13  C   UNL     1       0.742  -0.511   1.242  0.00  0.00    +0.009 C 
ATOM     14  C   UNL     1       0.026  -0.018   2.500  0.00  0.00    +0.009 C 
ENDBRANCH   3  12
ENDBRANCH   1   4
BRANCH   1  15
ATOM     15  S   UNL     1       1.960  -6.067   4.118  0.00  0.00    -0.074 S 
BRANCH  15  16
ATOM     16  C   UNL     1       2.960  -6.488   5.507  0.00  0.00    +0.191 A 
ATOM     17  N   UNL     1       3.469  -5.514   6.252  0.00  0.00    -0.229 NA
ATOM     18  C   UNL     1       4.223  -5.781   7.302  0.00  0.00    +0.136 A 
ATOM     19  C   UNL     1       4.487  -7.115   7.629  0.00  0.00    +0.109 A 
ATOM     20  C   UNL     1       3.929  -8.124   6.813  0.00  0.00    +0.138 A 
ATOM     21  N   UNL     1       3.176  -7.767   5.779  0.00  0.00    -0.206 NA
BRANCH  20  22
ATOM     22  N   UNL     1       4.157  -9.457   7.089  0.00  0.00    -0.342 N 
ATOM     23  H   UNL     1       4.704  -9.708   7.849  0.00  0.00    +0.144 HD
ATOM     24  H   UNL     1       3.769 -10.142   6.523  0.00  0.00    +0.144 HD
ENDBRANCH  20  22
BRANCH  19  25
ATOM     25  C   UNL     1       5.301  -7.450   8.759  0.00  0.00    +0.104 C 
ATOM     26  N   UNL     1       5.946  -7.715   9.655  0.00  0.00    -0.191 NA
ENDBRANCH  19  25
ENDBRANCH  15  16
ENDBRANCH   1  15
TORSDOF 6
