REMARK  Name = ZINC40979695
REMARK  10 active torsions:
REMARK  status: ('A' for Active; 'I' for Inactive)
REMARK    1  A    between atoms: C_1  and  C_2
REMARK    2  A    between atoms: C_2  and  C_3
REMARK    3  A    between atoms: C_3  and  C_4
REMARK    4  A    between atoms: C_4  and  O_5
REMARK    5  A    between atoms: O_5  and  C_6
REMARK    6  A    between atoms: C_6  and  C_8
REMARK    7  A    between atoms: C_9  and  C_27
REMARK    8  A    between atoms: C_16  and  C_18
REMARK    9  A    between atoms: C_23  and  O_24
REMARK   10  A    between atoms: O_24  and  C_25
REMARK                            x       y       z     vdW  Elec       q    Type
REMARK                         _______ _______ _______ _____ _____    ______ ____
ROOT
ATOM      1  C   UNL     1      -4.209  -4.489   0.225  0.00  0.00    +0.082 C 
ATOM      2  C   UNL     1      -4.334  -5.788  -0.085  0.00  0.00    +0.020 C 
ATOM      3  N   UNL     1      -5.556  -6.381  -0.284  0.00  0.00    -0.286 N 
ATOM      4  C   UNL     1      -6.682  -5.663   0.093  0.00  0.00    +0.240 A 
ATOM      5  N   UNL     1      -7.924  -6.031   0.224  0.00  0.00    -0.092 NA
ATOM      6  N   UNL     1      -8.648  -5.034   0.605  0.00  0.00    -0.021 NA
ATOM      7  N   UNL     1      -7.919  -3.973   0.738  0.00  0.00    -0.042 NA
ATOM      8  N   UNL     1      -6.617  -4.343   0.408  0.00  0.00    -0.201 N 
ATOM      9  C   UNL     1      -5.387  -3.563   0.376  0.00  0.00    +0.184 C 
ATOM     10  C   UNL     1      -3.089  -6.627  -0.220  0.00  0.00    +0.061 C 
ATOM     11  H   UNL     1      -5.630  -7.266  -0.674  0.00  0.00    +0.155 HD
ENDROOT
BRANCH   9  12
ATOM     12  C   UNL     1      -5.432  -2.611  -0.791  0.00  0.00    +0.024 A 
ATOM     13  C   UNL     1      -5.561  -3.099  -2.077  0.00  0.00    +0.025 A 
ATOM     14  C   UNL     1      -5.601  -2.225  -3.149  0.00  0.00    +0.018 A 
ATOM     15  C   UNL     1      -5.513  -0.861  -2.936  0.00  0.00    +0.019 A 
ATOM     16  C   UNL     1      -5.384  -0.369  -1.651  0.00  0.00    +0.047 A 
ATOM     17  C   UNL     1      -5.348  -1.243  -0.575  0.00  0.00    +0.126 A 
ATOM     18 BR   UNL     1      -5.778  -2.897  -4.908  0.00  0.00    -0.050 Br
BRANCH  17  19
ATOM     19  O   UNL     1      -5.227  -0.760   0.690  0.00  0.00    -0.495 OA
ATOM     20  C   UNL     1      -5.146   0.659   0.838  0.00  0.00    +0.277 C 
ENDBRANCH  17  19
ENDBRANCH   9  12
BRANCH   1  21
ATOM     21  C   UNL     1      -2.912  -3.966   0.424  0.00  0.00    +0.339 C 
ATOM     22  O   UNL     1      -2.479  -3.826   1.553  0.00  0.00    -0.245 OA
BRANCH  21  23
ATOM     23  O   UNL     1      -2.153  -3.621  -0.637  0.00  0.00    -0.461 OA
BRANCH  23  24
ATOM     24  C   UNL     1      -0.852  -3.098  -0.362  0.00  0.00    +0.232 C 
BRANCH  24  25
ATOM     25  C   UNL     1      -0.146  -2.767  -1.678  0.00  0.00    +0.041 C 
BRANCH  25  27
ATOM     26  C   UNL     1       1.952  -1.876  -2.700  0.00  0.00    +0.004 C 
ATOM     27  C   UNL     1       1.247  -2.208  -1.383  0.00  0.00    -0.000 C 
ENDBRANCH  25  27
ENDBRANCH  24  25
ENDBRANCH  23  24
ENDBRANCH  21  23
ENDBRANCH   1  21
TORSDOF 7
