REMARK  Name = ZINC03847239
REMARK  13 active torsions:
REMARK  status: ('A' for Active; 'I' for Inactive)
REMARK    1  A    between atoms: C_1  and  C_2
REMARK    2  A    between atoms: C_2  and  C_3
REMARK    3  A    between atoms: C_7  and  O_16
REMARK    4  A    between atoms: C_8  and  O_14
REMARK    5  A    between atoms: C_13  and  N_67
REMARK    6  A    between atoms: O_14  and  C_15
REMARK    7  A    between atoms: O_16  and  C_17
REMARK    8  A    between atoms: C_21  and  O_24
REMARK    9  A    between atoms: C_22  and  O_23
REMARK   10  A    between atoms: O_24  and  C_25
REMARK   11  A    between atoms: C_28  and  C_30
REMARK   12  A    between atoms: C_30  and  C_31
REMARK   13  A    between atoms: C_32  and  N_69
REMARK                            x       y       z     vdW  Elec       q    Type
REMARK                         _______ _______ _______ _____ _____    ______ ____
ROOT
ATOM      1  C   UNL     1      -1.973  -0.683  -0.324  0.00  0.00    +0.175 A 
ATOM      2  C   UNL     1      -1.956  -1.198   0.969  0.00  0.00    -0.012 A 
ATOM      3  C   UNL     1      -1.735  -2.544   1.168  0.00  0.00    -0.040 A 
ATOM      4  C   UNL     1      -1.522  -3.379   0.081  0.00  0.00    +0.053 A 
ATOM      5  C   UNL     1      -1.535  -2.873  -1.207  0.00  0.00    +0.165 A 
ATOM      6  C   UNL     1      -1.768  -1.518  -1.413  0.00  0.00    +0.202 A 
ATOM      7  C   UNL     1      -1.720  -3.147   2.549  0.00  0.00    +0.017 C 
ATOM      8  C   UNL     1      -1.548  -2.047   3.597  0.00  0.00    -0.074 C 
ATOM      9  C   UNL     1      -2.179  -0.251   2.119  0.00  0.00    -0.034 C 
ATOM     10  C   UNL     1      -2.663  -0.087   4.483  0.00  0.00    -0.095 C 
ATOM     11  N   UNL     1      -2.558  -1.003   3.327  0.00  0.00    +0.383 N 
ATOM     12  H   UNL     1      -3.469  -1.450   3.171  0.00  0.00    -0.081 HD
ENDROOT
BRANCH   6  13
ATOM     13  O   UNL     1      -1.791  -1.012  -2.677  0.00  0.00    -0.501 OA
ATOM     14  H   UNL     1      -0.928  -0.713  -2.996  0.00  0.00    +0.292 HD
ENDBRANCH   6  13
BRANCH   5  15
ATOM     15  O   UNL     1      -1.325  -3.698  -2.268  0.00  0.00    -0.491 OA
ATOM     16  C   UNL     1      -1.098  -5.079  -1.979  0.00  0.00    +0.277 C 
ENDBRANCH   5  15
BRANCH   9  17
ATOM     17  C   UNL     1      -3.309   0.717   1.765  0.00  0.00    -0.014 C 
ATOM     18  C   UNL     1      -4.549  -0.077   1.349  0.00  0.00    +0.002 C 
ENDBRANCH   9  17
BRANCH   1  19
ATOM     19  O   UNL     1      -2.196   0.644  -0.521  0.00  0.00    -0.448 OA
BRANCH  19  23
ATOM     20  C   UNL     1       2.624   1.205  -0.219  0.00  0.00    -0.038 C 
ATOM     21  C   UNL     1       1.257   1.810  -0.402  0.00  0.00    -0.054 A 
ATOM     22  C   UNL     1       0.155   0.967  -0.373  0.00  0.00    +0.052 A 
ATOM     23  C   UNL     1      -1.120   1.475  -0.546  0.00  0.00    +0.170 A 
ATOM     24  C   UNL     1      -1.298   2.843  -0.739  0.00  0.00    +0.162 A 
ATOM     25  C   UNL     1      -0.196   3.679  -0.766  0.00  0.00    +0.053 A 
ATOM     26  C   UNL     1       1.081   3.163  -0.596  0.00  0.00    -0.044 A 
ATOM     27  C   UNL     1       2.248   4.116  -0.628  0.00  0.00    +0.017 C 
ATOM     28  C   UNL     1       3.549   3.342  -0.841  0.00  0.00    -0.074 C 
ATOM     29  C   UNL     1       4.956   1.678   0.220  0.00  0.00    -0.095 C 
ATOM     30  N   UNL     1       3.593   2.249   0.153  0.00  0.00    +0.383 N 
ATOM     31  H   UNL     1       3.343   2.625   1.076  0.00  0.00    -0.081 HD
BRANCH  20  33
ATOM     32  C   UNL     1       2.153   0.837   2.207  0.00  0.00    +0.002 C 
ATOM     33  C   UNL     1       2.570   0.162   0.898  0.00  0.00    -0.014 C 
ENDBRANCH  20  33
BRANCH  24  34
ATOM     34  O   UNL     1      -2.547   3.353  -0.905  0.00  0.00    -0.491 OA
ATOM     35  C   UNL     1      -2.650   4.764  -1.104  0.00  0.00    +0.277 C 
ENDBRANCH  24  34
ENDBRANCH  19  23
ENDBRANCH   1  19
TORSDOF 7
