REMARK  Name = ZINC36214723
REMARK  11 active torsions:
REMARK  status: ('A' for Active; 'I' for Inactive)
REMARK    1  A    between atoms: C_1  and  C_2
REMARK    2  A    between atoms: C_2  and  C_4
REMARK    3  A    between atoms: C_2  and  N_7
REMARK    4  A    between atoms: C_4  and  C_5
REMARK    5  A    between atoms: C_4  and  C_6
REMARK    6  A    between atoms: C_8  and  C_10
REMARK    7  A    between atoms: C_10  and  C_12
REMARK    8  A    between atoms: C_10  and  N_28
REMARK    9  A    between atoms: N_15  and  S_18
REMARK   10  A    between atoms: S_18  and  C_21
REMARK   11  A    between atoms: C_29  and  C_31
REMARK                            x       y       z     vdW  Elec       q    Type
REMARK                         _______ _______ _______ _____ _____    ______ ____
ROOT
ATOM      1  C   UNL     1      -3.465  -1.164  -1.134  0.00  0.00    +0.162 C 
ENDROOT
BRANCH   1   2
ATOM      2  C   UNL     1      -3.485  -2.571  -0.532  0.00  0.00    +0.021 C 
ATOM      3  C   UNL     1      -2.604  -3.498  -1.372  0.00  0.00    +0.023 C 
ATOM      4  C   UNL     1      -2.599  -4.896  -0.746  0.00  0.00    +0.110 C 
ATOM      5  N   UNL     1      -3.987  -5.353  -0.599  0.00  0.00    -0.177 NA
ATOM      6  C   UNL     1      -4.942  -4.494   0.114  0.00  0.00    +0.110 C 
ATOM      7  C   UNL     1      -4.921  -3.100  -0.521  0.00  0.00    +0.023 C 
BRANCH   5   8
ATOM      8  S   UNL     1      -4.467  -6.809  -1.225  0.00  0.00    +0.061 S 
ATOM      9  O   UNL     1      -5.871  -6.721  -1.429  0.00  0.00    -0.153 OA
ATOM     10  O   UNL     1      -3.563  -7.117  -2.277  0.00  0.00    -0.153 OA
BRANCH   8  11
ATOM     11  C   UNL     1      -4.216  -8.023   0.026  0.00  0.00    +0.106 A 
ATOM     12  C   UNL     1      -3.005  -8.686   0.113  0.00  0.00    +0.030 A 
ATOM     13  C   UNL     1      -2.807  -9.638   1.095  0.00  0.00    +0.022 A 
ATOM     14  C   UNL     1      -3.821  -9.929   1.991  0.00  0.00    +0.041 A 
ATOM     15  C   UNL     1      -5.032  -9.265   1.904  0.00  0.00    +0.022 A 
ATOM     16  C   UNL     1      -5.226  -8.309   0.925  0.00  0.00    +0.030 A 
ATOM     17 CL   UNL     1      -3.573 -11.126   3.224  0.00  0.00    -0.084 Cl
ENDBRANCH   8  11
ENDBRANCH   5   8
ENDBRANCH   1   2
BRANCH   1  19
ATOM     18  N   UNL     1      -1.372  -0.511   0.012  0.00  0.00    -0.311 N 
ATOM     19  C   UNL     1      -2.051  -0.643  -1.145  0.00  0.00    +0.234 C 
ATOM     20  O   UNL     1      -1.524  -0.341  -2.194  0.00  0.00    -0.274 OA
ATOM     21  H   UNL     1      -1.794  -0.752   0.852  0.00  0.00    +0.149 HD
BRANCH  18  23
ATOM     22  C   UNL     1      -0.019   1.526   0.010  0.00  0.00    +0.028 C 
ATOM     23  C   UNL     1       0.002  -0.004   0.002  0.00  0.00    +0.072 C 
BRANCH  23  24
ATOM     24  C   UNL     1       0.742  -0.511   1.242  0.00  0.00    +0.003 C 
ATOM     25  C   UNL     1       0.763  -2.041   1.233  0.00  0.00    +0.009 C 
ATOM     26  C   UNL     1       2.178   0.019   1.231  0.00  0.00    +0.009 C 
ENDBRANCH  23  24
ENDBRANCH  18  23
ENDBRANCH   1  19
BRANCH   1  27
ATOM     27  N   UNL     1      -3.978  -1.213  -2.505  0.00  0.00    -0.300 N 
ATOM     28  C   UNL     1      -4.525  -0.113  -3.060  0.00  0.00    +0.245 C 
ATOM     29  O   UNL     1      -4.593   0.919  -2.422  0.00  0.00    -0.270 OA
ATOM     30  H   UNL     1      -3.923  -2.037  -3.014  0.00  0.00    +0.150 HD
BRANCH  28  31
ATOM     31  C   UNL     1      -5.042  -0.162  -4.444  0.00  0.00    +0.037 A 
ATOM     32  C   UNL     1      -4.971  -1.348  -5.177  0.00  0.00    +0.013 A 
ATOM     33  C   UNL     1      -5.457  -1.387  -6.468  0.00  0.00    +0.001 A 
ATOM     34  C   UNL     1      -6.012  -0.255  -7.036  0.00  0.00    +0.000 A 
ATOM     35  C   UNL     1      -6.086   0.924  -6.314  0.00  0.00    +0.001 A 
ATOM     36  C   UNL     1      -5.610   0.975  -5.021  0.00  0.00    +0.013 A 
ENDBRANCH  28  31
ENDBRANCH   1  27
TORSDOF 8
