REMARK  Name = ZINC39969396
REMARK  12 active torsions:
REMARK  status: ('A' for Active; 'I' for Inactive)
REMARK    1  A    between atoms: C_1  and  C_2
REMARK    2  A    between atoms: C_2  and  O_3
REMARK    3  A    between atoms: O_3  and  C_4
REMARK    4  A    between atoms: C_6  and  C_21
REMARK    5  A    between atoms: C_9  and  O_10
REMARK    6  A    between atoms: O_10  and  C_11
REMARK    7  A    between atoms: C_11  and  C_12
REMARK    8  A    between atoms: C_15  and  N_18
REMARK    9  A    between atoms: C_22  and  C_23
REMARK   10  A    between atoms: C_22  and  C_25
REMARK   11  A    between atoms: C_31  and  O_35
REMARK   12  A    between atoms: O_35  and  C_36
REMARK                            x       y       z     vdW  Elec       q    Type
REMARK                         _______ _______ _______ _____ _____    ______ ____
ROOT
ATOM      1  C   UNL     1       0.782  -1.925  -1.515  0.00  0.00    +0.162 A 
ATOM      2  C   UNL     1       0.325  -2.732  -0.492  0.00  0.00    +0.057 A 
ATOM      3  C   UNL     1       0.245  -4.116  -0.680  0.00  0.00    -0.020 A 
ATOM      4  C   UNL     1       0.630  -4.675  -1.904  0.00  0.00    +0.012 A 
ATOM      5  C   UNL     1       1.085  -3.862  -2.919  0.00  0.00    +0.050 A 
ATOM      6  C   UNL     1       1.159  -2.488  -2.733  0.00  0.00    +0.162 A 
ENDROOT
BRANCH   3   7
ATOM      7  C   UNL     1      -0.240  -4.981   0.405  0.00  0.00    +0.026 C 
ATOM      8  C   UNL     1       0.293  -6.208   0.580  0.00  0.00    +0.072 C 
BRANCH   8   9
ATOM      9  C   UNL     1       1.504  -6.624  -0.216  0.00  0.00    +0.216 C 
ATOM     10  N   UNL     1       1.157  -7.728  -1.120  0.00  0.00    -0.359 N 
ATOM     11  C   UNL     1       1.897  -8.748  -0.794  0.00  0.00    +0.061 A 
ATOM     12  C   UNL     1       1.995 -10.112  -1.337  0.00  0.00    +0.031 A 
ATOM     13  C   UNL     1       2.866 -10.985  -0.798  0.00  0.00    +0.048 A 
ATOM     14  C   UNL     1       3.729 -10.622   0.319  0.00  0.00    +0.122 A 
ATOM     15  C   UNL     1       3.698  -9.385   0.874  0.00  0.00    +0.073 A 
ATOM     16  C   UNL     1       2.777  -8.376   0.346  0.00  0.00    +0.064 A 
ATOM     17  N   UNL     1       2.546  -7.135   0.683  0.00  0.00    -0.359 N 
ATOM     18  H   UNL     1       0.497  -7.701  -1.830  0.00  0.00    +0.162 HD
ATOM     19  H   UNL     1       2.983  -6.641   1.394  0.00  0.00    +0.162 HD
BRANCH  14  20
ATOM     20  O   UNL     1       4.586 -11.546   0.818  0.00  0.00    -0.495 OA
ATOM     21  C   UNL     1       4.582 -12.835   0.200  0.00  0.00    +0.277 C 
ENDBRANCH  14  20
ENDBRANCH   8   9
BRANCH   8  22
ATOM     22  C   UNL     1      -0.290  -7.115   1.522  0.00  0.00    +0.099 C 
ATOM     23  N   UNL     1      -0.754  -7.835   2.269  0.00  0.00    -0.191 NA
ENDBRANCH   8  22
ENDBRANCH   3   7
BRANCH   1  24
ATOM     24  O   UNL     1       0.860  -0.579  -1.336  0.00  0.00    -0.489 OA
BRANCH  24  26
ATOM     25  C   UNL     1       0.615   1.453  -0.050  0.00  0.00    +0.048 C 
ATOM     26  C   UNL     1       0.459  -0.069  -0.063  0.00  0.00    +0.226 C 
ENDBRANCH  24  26
ENDBRANCH   1  24
BRANCH   6  27
ATOM     27  O   UNL     1       1.603  -1.692  -3.740  0.00  0.00    -0.484 OA
BRANCH  27  28
ATOM     28  C   UNL     1       1.972  -2.334  -4.962  0.00  0.00    +0.264 C 
BRANCH  28  29
ATOM     29  C   UNL     1       2.437  -1.300  -5.953  0.00  0.00    -0.010 A 
ATOM     30  C   UNL     1       1.528  -0.702  -6.806  0.00  0.00    +0.009 A 
ATOM     31  C   UNL     1       1.954   0.248  -7.716  0.00  0.00    +0.033 A 
ATOM     32  C   UNL     1       3.289   0.600  -7.773  0.00  0.00    +0.126 A 
ATOM     33  C   UNL     1       4.199   0.003  -6.920  0.00  0.00    +0.033 A 
ATOM     34  C   UNL     1       3.772  -0.944  -6.007  0.00  0.00    +0.009 A 
BRANCH  32  35
ATOM     35  N   UNL     1       3.746   1.615  -8.748  0.00  0.00    +0.056 N 
ATOM     36  O   UNL     1       2.951   2.137  -9.494  0.00  0.00    -0.126 OA
ATOM     37  O   UNL     1       4.914   1.923  -8.798  0.00  0.00    -0.126 OA
ENDBRANCH  32  35
ENDBRANCH  28  29
ENDBRANCH  27  28
ENDBRANCH   6  27
TORSDOF 10
