REMARK  Name = ZINC32887416
REMARK  5 active torsions:
REMARK  status: ('A' for Active; 'I' for Inactive)
REMARK    1  A    between atoms: C_1  and  C_2
REMARK    2  A    between atoms: C_2  and  C_4
REMARK    3  A    between atoms: C_2  and  N_14
REMARK    4  A    between atoms: N_6  and  C_7
REMARK    5  A    between atoms: C_16  and  C_19
REMARK                            x       y       z     vdW  Elec       q    Type
REMARK                         _______ _______ _______ _____ _____    ______ ____
ROOT
ATOM      1  C   UNL     1      -1.280   5.507  -1.207  0.00  0.00    +0.044 C 
ATOM      2  C   UNL     1      -1.554   4.658   0.036  0.00  0.00    +0.213 C 
ENDROOT
BRANCH   2   3
ATOM      3  N   UNL     1      -0.684   3.480   0.025  0.00  0.00    -0.151 N 
ATOM      4  N   UNL     1      -1.087   2.256   0.010  0.00  0.00    -0.130 NA
ATOM      5  C   UNL     1      -0.021   1.480   0.006  0.00  0.00    +0.205 A 
ATOM      6  N   UNL     1       1.045   2.293   0.010  0.00  0.00    -0.108 NA
ATOM      7  N   UNL     1       0.603   3.505   0.021  0.00  0.00    -0.045 NA
BRANCH   5   8
ATOM      8  C   UNL     1      -0.004  -0.004  -0.007  0.00  0.00    +0.023 A 
ATOM      9  C   UNL     1      -1.202  -0.716  -0.004  0.00  0.00    +0.013 A 
ATOM     10  C   UNL     1      -1.181  -2.096  -0.021  0.00  0.00    +0.016 A 
ATOM     11  C   UNL     1       0.027  -2.772  -0.030  0.00  0.00    +0.018 A 
ATOM     12  C   UNL     1       1.219  -2.069  -0.028  0.00  0.00    +0.016 A 
ATOM     13  C   UNL     1       1.209  -0.689  -0.016  0.00  0.00    +0.013 A 
ATOM     14 BR   UNL     1       0.048  -4.663  -0.047  0.00  0.00    -0.050 Br
ENDBRANCH   5   8
ENDBRANCH   2   3
BRANCH   2  15
ATOM     15  C   UNL     1      -1.278   5.475   1.272  0.00  0.00    +0.243 C 
ATOM     16  O   UNL     1      -0.437   5.108   2.066  0.00  0.00    -0.273 OA
ATOM     17  N   UNL     1      -1.966   6.612   1.497  0.00  0.00    -0.284 N 
ATOM     18  H   UNL     1      -2.673   6.985   0.742  0.00  0.00    +0.155 HD
BRANCH  17  19
ATOM     19  C   UNL     1      -1.779   7.319   2.690  0.00  0.00    +0.034 A 
ATOM     20  C   UNL     1      -2.847   7.982   3.280  0.00  0.00    +0.025 A 
ATOM     21  C   UNL     1      -2.661   8.675   4.460  0.00  0.00    +0.022 A 
ATOM     22  C   UNL     1      -1.410   8.718   5.049  0.00  0.00    +0.041 A 
ATOM     23  C   UNL     1      -0.343   8.062   4.460  0.00  0.00    +0.022 A 
ATOM     24  C   UNL     1      -0.524   7.364   3.283  0.00  0.00    +0.025 A 
ATOM     25 CL   UNL     1      -1.178   9.595   6.529  0.00  0.00    -0.084 Cl
ENDBRANCH  17  19
ENDBRANCH   2  15
TORSDOF 4
