REMARK  Name = ZINC02663820
REMARK  9 active torsions:
REMARK  status: ('A' for Active; 'I' for Inactive)
REMARK    1  A    between atoms: C_1  and  C_2
REMARK    2  A    between atoms: C_5  and  C_35
REMARK    3  A    between atoms: C_6  and  N_8
REMARK    4  A    between atoms: C_9  and  C_25
REMARK    5  A    between atoms: C_12  and  S_13
REMARK    6  A    between atoms: S_13  and  C_14
REMARK    7  A    between atoms: C_14  and  C_15
REMARK    8  A    between atoms: C_25  and  O_26
REMARK    9  A    between atoms: O_26  and  C_27
REMARK                            x       y       z     vdW  Elec       q    Type
REMARK                         _______ _______ _______ _____ _____    ______ ____
ROOT
ATOM      1  N   UNL     1       0.052  -2.798   2.396  0.00  0.00    -0.271 N 
ATOM      2  C   UNL     1       1.152  -3.198   3.107  0.00  0.00    +0.176 A 
ATOM      3  N   UNL     1       0.722  -3.826   4.165  0.00  0.00    -0.130 NA
ATOM      4  N   UNL     1      -0.563  -3.852   4.173  0.00  0.00    -0.122 NA
ATOM      5  C   UNL     1      -1.029  -3.231   3.114  0.00  0.00    +0.197 A 
ENDROOT
BRANCH   1  11
ATOM      6  C   UNL     1      -0.018   1.503   0.010  0.00  0.00    +0.044 C 
ATOM      7  C   UNL     1       0.002  -0.004   0.002  0.00  0.00    -0.048 A 
ATOM      8  C   UNL     1       0.006  -0.688  -1.200  0.00  0.00    +0.004 A 
ATOM      9  C   UNL     1       0.025  -2.071  -1.211  0.00  0.00    +0.005 A 
ATOM     10  C   UNL     1       0.040  -2.772  -0.022  0.00  0.00    -0.026 A 
ATOM     11  C   UNL     1       0.036  -2.088   1.186  0.00  0.00    +0.053 A 
ATOM     12  C   UNL     1       0.023  -0.700   1.194  0.00  0.00    +0.030 A 
ATOM     13  C   UNL     1       0.060  -4.279  -0.035  0.00  0.00    +0.046 C 
ENDBRANCH   1  11
BRANCH   5  14
ATOM     14  S   UNL     1      -2.725  -3.002   2.696  0.00  0.00    -0.079 S 
BRANCH  14  15
ATOM     15  C   UNL     1      -3.624  -3.807   4.050  0.00  0.00    +0.133 C 
BRANCH  15  16
ATOM     16  C   UNL     1      -5.107  -3.683   3.813  0.00  0.00    +0.059 A 
ATOM     17  C   UNL     1      -5.843  -4.768   3.388  0.00  0.00    +0.095 A 
ATOM     18  C   UNL     1      -7.215  -4.633   3.174  0.00  0.00    +0.259 A 
ATOM     19  O   UNL     1      -7.872  -5.591   2.798  0.00  0.00    -0.267 OA
ATOM     20  N   UNL     1      -7.823  -3.428   3.387  0.00  0.00    -0.262 N 
ATOM     21  C   UNL     1      -9.157  -3.140   3.222  0.00  0.00    +0.104 A 
ATOM     22  C   UNL     1      -9.631  -1.918   3.464  0.00  0.00    +0.067 A 
ATOM     23  S   UNL     1      -8.156  -1.046   3.966  0.00  0.00    -0.058 S 
ATOM     24  C   UNL     1      -7.018  -2.404   3.808  0.00  0.00    +0.180 A 
ATOM     25  N   UNL     1      -5.730  -2.525   4.016  0.00  0.00    -0.227 NA
ENDBRANCH  15  16
ENDBRANCH  14  15
ENDBRANCH   5  14
BRANCH   2  26
ATOM     26  C   UNL     1       2.592  -2.956   2.736  0.00  0.00    +0.305 C 
BRANCH  26  27
ATOM     27  O   UNL     1       3.028  -1.718   3.300  0.00  0.00    -0.483 OA
BRANCH  27  28
ATOM     28  C   UNL     1       4.314  -1.348   3.058  0.00  0.00    +0.139 A 
ATOM     29  C   UNL     1       5.136  -2.157   2.288  0.00  0.00    +0.048 A 
ATOM     30  C   UNL     1       6.442  -1.780   2.043  0.00  0.00    +0.023 A 
ATOM     31  C   UNL     1       6.931  -0.595   2.564  0.00  0.00    +0.043 A 
ATOM     32  C   UNL     1       6.113   0.215   3.332  0.00  0.00    +0.043 A 
ATOM     33  C   UNL     1       4.804  -0.157   3.575  0.00  0.00    +0.084 A 
ATOM     34 CL   UNL     1       3.775   0.863   4.533  0.00  0.00    -0.080 Cl
ATOM     35 CL   UNL     1       8.573  -0.124   2.255  0.00  0.00    -0.083 Cl
ENDBRANCH  27  28
ENDBRANCH  26  27
ENDBRANCH   2  26
TORSDOF 7
