REMARK  Name = ZINC09761321
REMARK  12 active torsions:
REMARK  status: ('A' for Active; 'I' for Inactive)
REMARK    1  A    between atoms: C_1  and  O_2
REMARK    2  A    between atoms: O_2  and  C_3
REMARK    3  A    between atoms: C_6  and  C_11
REMARK    4  A    between atoms: C_8  and  O_9
REMARK    5  A    between atoms: O_9  and  C_10
REMARK    6  A    between atoms: N_20  and  C_28
REMARK    7  A    between atoms: C_21  and  N_27
REMARK    8  A    between atoms: C_22  and  C_23
REMARK    9  A    between atoms: C_23  and  O_25
REMARK   10  A    between atoms: O_25  and  C_26
REMARK   11  A    between atoms: C_31  and  S_34
REMARK   12  A    between atoms: S_34  and  N_37
REMARK                            x       y       z     vdW  Elec       q    Type
REMARK                         _______ _______ _______ _____ _____    ______ ____
ROOT
ATOM      1  C   UNL     1      -0.940   4.956  -0.108  0.00  0.00    +0.094 C 
ATOM      2  C   UNL     1      -1.491   3.579   0.162  0.00  0.00    +0.025 C 
ATOM      3  C   UNL     1      -1.394   3.022   1.387  0.00  0.00    +0.024 C 
ATOM      4  C   UNL     1      -1.937   1.640   1.661  0.00  0.00    +0.052 C 
ATOM      5  C   UNL     1      -1.858   0.796   0.387  0.00  0.00    +0.014 C 
ATOM      6  C   UNL     1      -2.651   1.502  -0.718  0.00  0.00    +0.080 C 
ATOM      7  C   UNL     1      -2.104   2.892  -0.900  0.00  0.00    +0.162 C 
ATOM      8  O   UNL     1      -2.194   3.430  -1.986  0.00  0.00    -0.292 OA
ATOM      9  N   UNL     1      -0.796   3.699   2.419  0.00  0.00    -0.261 N 
ATOM     10  C   UNL     1      -0.648   5.064   2.365  0.00  0.00    +0.103 C 
ATOM     11  C   UNL     1      -0.715   5.711   1.168  0.00  0.00    +0.084 C 
ENDROOT
BRANCH   1  15
ATOM     12  C   UNL     1       2.777   4.592  -2.191  0.00  0.00    +0.162 A 
ATOM     13  C   UNL     1       2.626   4.030  -0.933  0.00  0.00    +0.050 A 
ATOM     14  C   UNL     1       1.423   4.150  -0.263  0.00  0.00    +0.008 A 
ATOM     15  C   UNL     1       0.369   4.829  -0.844  0.00  0.00    -0.031 A 
ATOM     16  C   UNL     1       0.511   5.387  -2.101  0.00  0.00    +0.054 A 
ATOM     17  C   UNL     1       1.716   5.276  -2.776  0.00  0.00    +0.162 A 
BRANCH  12  19
ATOM     18  C   UNL     1       5.006   3.761  -2.189  0.00  0.00    +0.277 C 
ATOM     19  O   UNL     1       3.960   4.476  -2.851  0.00  0.00    -0.491 OA
ENDBRANCH  12  19
BRANCH  17  20
ATOM     20  O   UNL     1       1.860   5.830  -4.010  0.00  0.00    -0.491 OA
ATOM     21  C   UNL     1       0.728   6.517  -4.548  0.00  0.00    +0.277 C 
ENDBRANCH  17  20
ENDBRANCH   1  15
BRANCH   9  22
ATOM     22  C   UNL     1      -0.332   2.994   3.536  0.00  0.00    +0.040 A 
ATOM     23  C   UNL     1       0.913   2.380   3.503  0.00  0.00    +0.026 A 
ATOM     24  C   UNL     1       1.370   1.690   4.609  0.00  0.00    +0.030 A 
ATOM     25  C   UNL     1       0.585   1.601   5.743  0.00  0.00    +0.105 A 
ATOM     26  C   UNL     1      -0.658   2.207   5.777  0.00  0.00    +0.030 A 
ATOM     27  C   UNL     1      -1.119   2.903   4.677  0.00  0.00    +0.026 A 
BRANCH  25  28
ATOM     28  S   UNL     1       1.168   0.713   7.149  0.00  0.00    +0.056 S 
ATOM     29  O   UNL     1       2.587   0.701   7.061  0.00  0.00    -0.153 OA
ATOM     30  O   UNL     1       0.479   1.237   8.275  0.00  0.00    -0.153 OA
BRANCH  28  31
ATOM     31  N   UNL     1       0.670  -0.857   6.978  0.00  0.00    -0.204 NA
ATOM     32  H   UNL     1       0.155  -1.120   6.199  0.00  0.00    +0.144 HD
ATOM     33  H   UNL     1       0.894  -1.514   7.656  0.00  0.00    +0.144 HD
ENDBRANCH  28  31
ENDBRANCH  25  28
ENDBRANCH   9  22
BRANCH  10  34
ATOM     34  N   UNL     1      -0.433   5.776   3.516  0.00  0.00    -0.346 N 
ATOM     35  H   UNL     1       0.096   5.391   4.232  0.00  0.00    +0.143 HD
ATOM     36  H   UNL     1      -0.811   6.664   3.615  0.00  0.00    +0.143 HD
ENDBRANCH  10  34
BRANCH  11  37
ATOM     37  C   UNL     1      -0.571   7.105   1.129  0.00  0.00    +0.339 C 
ATOM     38  O   UNL     1      -0.358   7.725   2.156  0.00  0.00    -0.245 OA
BRANCH  37  39
ATOM     39  O   UNL     1      -0.668   7.761  -0.048  0.00  0.00    -0.465 OA
ATOM     40  C   UNL     1      -0.511   9.181  -0.014  0.00  0.00    +0.280 C 
ENDBRANCH  37  39
ENDBRANCH  11  37
TORSDOF 9
