REMARK  Name = ZINC21637070
REMARK  4 active torsions:
REMARK  status: ('A' for Active; 'I' for Inactive)
REMARK    1  A    between atoms: C_1  and  N_2
REMARK    2  A    between atoms: C_4  and  S_7
REMARK    3  A    between atoms: S_7  and  N_10
REMARK    4  A    between atoms: N_10  and  C_11
REMARK                            x       y       z     vdW  Elec       q    Type
REMARK                         _______ _______ _______ _____ _____    ______ ____
ROOT
ATOM      1  C   UNL     1      -2.322  -3.309  -2.712  0.00  0.00    +0.062 A 
ATOM      2  C   UNL     1      -1.782  -2.220  -3.431  0.00  0.00    +0.023 A 
ATOM      3  C   UNL     1      -0.425  -1.879  -3.341  0.00  0.00    +0.012 A 
ATOM      4  C   UNL     1       0.053  -0.821  -4.054  0.00  0.00    +0.001 A 
ATOM      5  C   UNL     1      -0.791  -0.074  -4.872  0.00  0.00    +0.002 A 
ATOM      6  C   UNL     1      -2.113  -0.378  -4.982  0.00  0.00    +0.028 A 
ATOM      7  C   UNL     1      -2.642  -1.462  -4.260  0.00  0.00    +0.073 A 
ATOM      8  N   UNL     1      -3.934  -1.784  -4.344  0.00  0.00    -0.251 NA
ATOM      9  C   UNL     1      -4.459  -2.799  -3.678  0.00  0.00    +0.047 A 
ATOM     10  C   UNL     1      -3.677  -3.592  -2.856  0.00  0.00    -0.003 A 
ATOM     11  C   UNL     1      -4.226  -4.770  -2.096  0.00  0.00    +0.039 C 
ATOM     12  C   UNL     1      -5.750  -4.692  -2.013  0.00  0.00    +0.005 C 
ATOM     13  C   UNL     1      -6.299  -4.468  -3.426  0.00  0.00    +0.006 C 
ATOM     14  C   UNL     1      -5.936  -3.045  -3.859  0.00  0.00    +0.056 C 
ENDROOT
BRANCH   1  15
ATOM     15  N   UNL     1      -1.520  -4.082  -1.886  0.00  0.00    -0.214 N 
ATOM     16  H   UNL     1      -1.319  -5.000  -2.126  0.00  0.00    +0.174 HD
BRANCH  15  17
ATOM     17  S   UNL     1      -0.905  -3.437  -0.490  0.00  0.00    +0.089 S 
ATOM     18  O   UNL     1      -0.366  -2.168  -0.832  0.00  0.00    -0.148 OA
ATOM     19  O   UNL     1      -0.126  -4.457   0.120  0.00  0.00    -0.148 OA
BRANCH  17  23
ATOM     20  C   UNL     1      -4.871  -1.173   2.128  0.00  0.00    +0.150 C 
ATOM     21  N   UNL     1      -3.903  -2.166   1.655  0.00  0.00    -0.340 N 
ATOM     22  C   UNL     1      -2.923  -1.964   0.721  0.00  0.00    +0.134 A 
ATOM     23  C   UNL     1      -2.267  -3.132   0.587  0.00  0.00    +0.193 A 
ATOM     24  N   UNL     1      -2.830  -4.023   1.416  0.00  0.00    -0.330 N 
ATOM     25  C   UNL     1      -3.808  -3.450   2.063  0.00  0.00    +0.175 A 
ATOM     26  H   UNL     1      -2.553  -4.947   1.521  0.00  0.00    +0.168 HD
ENDBRANCH  17  23
ENDBRANCH  15  17
ENDBRANCH   1  15
TORSDOF 3
