REMARK  Name = ZINC63514519
REMARK  7 active torsions:
REMARK  status: ('A' for Active; 'I' for Inactive)
REMARK    1  A    between atoms: C_4  and  C_7
REMARK    2  A    between atoms: N_9  and  C_10
REMARK    3  A    between atoms: C_10  and  C_18
REMARK    4  A    between atoms: C_11  and  C_12
REMARK    5  A    between atoms: N_20  and  C_21
REMARK    6  A    between atoms: C_21  and  C_22
REMARK    7  A    between atoms: C_22  and  C_23
REMARK                            x       y       z     vdW  Elec       q    Type
REMARK                         _______ _______ _______ _____ _____    ______ ____
ROOT
ATOM      1  C   UNL     1       4.942  -2.860   0.312  0.00  0.00    +0.097 C 
ATOM      2  C   UNL     1       6.052  -2.245  -0.158  0.00  0.00    +0.038 C 
ENDROOT
BRANCH   2   3
ATOM      3  C   UNL     1       6.126  -0.776  -0.179  0.00  0.00    -0.005 A 
ATOM      4  C   UNL     1       5.164  -0.003   0.488  0.00  0.00    +0.011 A 
ATOM      5  C   UNL     1       5.279   1.374   0.437  0.00  0.00    +0.020 A 
ATOM      6  C   UNL     1       6.330   1.940  -0.264  0.00  0.00    +0.111 A 
ATOM      7  N   UNL     1       7.221   1.190  -0.883  0.00  0.00    -0.263 NA
ATOM      8  C   UNL     1       7.160  -0.126  -0.859  0.00  0.00    +0.118 A 
ENDBRANCH   2   3
BRANCH   1  11
ATOM      9  C   UNL     1       3.344  -2.106   1.902  0.00  0.00    +0.248 C 
ATOM     10  O   UNL     1       3.950  -2.695   2.775  0.00  0.00    -0.270 OA
ATOM     11  N   UNL     1       3.811  -2.107   0.638  0.00  0.00    -0.277 N 
ATOM     12  H   UNL     1       3.362  -1.585  -0.046  0.00  0.00    +0.155 HD
BRANCH   9  16
ATOM     13  C   UNL     1      -0.249  -0.042   2.836  0.00  0.00    +0.000 A 
ATOM     14  C   UNL     1       0.386  -0.793   3.808  0.00  0.00    +0.001 A 
ATOM     15  C   UNL     1       1.553  -1.466   3.512  0.00  0.00    +0.013 A 
ATOM     16  C   UNL     1       2.093  -1.388   2.227  0.00  0.00    +0.037 A 
ATOM     17  C   UNL     1       1.447  -0.628   1.250  0.00  0.00    +0.013 A 
ATOM     18  C   UNL     1       0.280   0.040   1.560  0.00  0.00    +0.001 A 
ENDBRANCH   9  16
ENDBRANCH   1  11
BRANCH   1  19
ATOM     19  C   UNL     1       4.926  -4.321   0.479  0.00  0.00    +0.258 C 
ATOM     20  O   UNL     1       3.928  -4.874   0.901  0.00  0.00    -0.269 OA
ATOM     21  N   UNL     1       6.017  -5.048   0.164  0.00  0.00    -0.310 N 
ATOM     22  H   UNL     1       6.813  -4.607  -0.172  0.00  0.00    +0.149 HD
BRANCH  21  23
ATOM     23  C   UNL     1       6.001  -6.503   0.331  0.00  0.00    +0.107 C 
BRANCH  23  24
ATOM     24  C   UNL     1       7.352  -7.080  -0.095  0.00  0.00    +0.047 C 
BRANCH  24  25
ATOM     25  C   UNL     1       7.335  -8.600   0.079  0.00  0.00    +0.104 C 
ATOM     26  C   UNL     1       8.642  -9.194  -0.396  0.00  0.00    +0.007 C 
ATOM     27  C   UNL     1       9.190  -9.804   0.679  0.00  0.00    -0.004 A 
ATOM     28  C   UNL     1      10.438 -10.554   0.869  0.00  0.00    +0.010 A 
ATOM     29  C   UNL     1      10.720 -11.059   2.091  0.00  0.00    +0.001 A 
ATOM     30  C   UNL     1       9.854 -10.885   3.179  0.00  0.00    +0.002 A 
ATOM     31  C   UNL     1       8.690 -10.208   3.083  0.00  0.00    +0.026 A 
ATOM     32  C   UNL     1       8.292  -9.634   1.844  0.00  0.00    +0.043 A 
ATOM     33  N   UNL     1       7.229  -8.945   1.501  0.00  0.00    -0.378 N 
ATOM     34  H   UNL     1       6.495  -8.704   2.089  0.00  0.00    +0.160 HD
ENDBRANCH  24  25
ENDBRANCH  23  24
ENDBRANCH  21  23
ENDBRANCH   1  19
TORSDOF 7
