REMARK  Name = ZINC59490471
REMARK  17 active torsions:
REMARK  status: ('A' for Active; 'I' for Inactive)
REMARK    1  A    between atoms: C_1  and  C_2
REMARK    2  A    between atoms: C_2  and  C_3
REMARK    3  A    between atoms: C_3  and  C_4
REMARK    4  A    between atoms: C_4  and  C_5
REMARK    5  A    between atoms: C_5  and  C_6
REMARK    6  A    between atoms: C_6  and  O_7
REMARK    7  A    between atoms: O_7  and  C_8
REMARK    8  A    between atoms: C_11  and  N_14
REMARK    9  A    between atoms: C_18  and  S_22
REMARK   10  A    between atoms: S_22  and  C_23
REMARK   11  A    between atoms: N_24  and  C_25
REMARK   12  A    between atoms: C_25  and  C_26
REMARK   13  A    between atoms: C_26  and  C_27
REMARK   14  A    between atoms: C_30  and  O_33
REMARK   15  A    between atoms: O_33  and  C_34
REMARK   16  A    between atoms: N_35  and  C_36
REMARK   17  A    between atoms: C_36  and  C_37
REMARK                            x       y       z     vdW  Elec       q    Type
REMARK                         _______ _______ _______ _____ _____    ______ ____
ROOT
ATOM      1  N   UNL     1       1.707 -10.231   5.583  0.00  0.00    -0.209 N 
ATOM      2  C   UNL     1       0.925 -11.100   4.931  0.00  0.00    +0.228 C 
ATOM      3  O   UNL     1      -0.075 -10.814   4.309  0.00  0.00    -0.275 OA
ATOM      4  C   UNL     1       1.487 -12.495   5.095  0.00  0.00    +0.120 C 
ATOM      5  C   UNL     1       2.743 -12.279   5.963  0.00  0.00    +0.149 C 
ATOM      6  C   UNL     1       2.761 -10.784   6.195  0.00  0.00    +0.240 C 
ATOM      7  O   UNL     1       3.597 -10.183   6.835  0.00  0.00    -0.274 OA
ENDROOT
BRANCH   1  11
ATOM      8  C   UNL     1       0.930  -6.133   5.686  0.00  0.00    +0.121 A 
ATOM      9  C   UNL     1       2.109  -6.601   5.124  0.00  0.00    +0.047 A 
ATOM     10  C   UNL     1       2.366  -7.958   5.090  0.00  0.00    +0.027 A 
ATOM     11  C   UNL     1       1.446  -8.852   5.618  0.00  0.00    +0.044 A 
ATOM     12  C   UNL     1       0.267  -8.383   6.181  0.00  0.00    +0.027 A 
ATOM     13  C   UNL     1       0.012  -7.026   6.219  0.00  0.00    +0.047 A 
BRANCH   8  14
ATOM     14  O   UNL     1       0.677  -4.798   5.720  0.00  0.00    -0.492 OA
BRANCH  14  15
ATOM     15  C   UNL     1       1.666  -3.936   5.153  0.00  0.00    +0.229 C 
BRANCH  15  16
ATOM     16  C   UNL     1       1.209  -2.481   5.282  0.00  0.00    +0.041 C 
BRANCH  16  17
ATOM     17  C   UNL     1       2.268  -1.558   4.675  0.00  0.00    +0.003 C 
BRANCH  17  18
ATOM     18  C   UNL     1       1.811  -0.104   4.804  0.00  0.00    -0.000 C 
BRANCH  18  20
ATOM     19  C   UNL     1       2.413   2.274   4.327  0.00  0.00    +0.004 C 
ATOM     20  C   UNL     1       2.869   0.819   4.197  0.00  0.00    -0.003 C 
ENDBRANCH  18  20
ENDBRANCH  17  18
ENDBRANCH  16  17
ENDBRANCH  15  16
ENDBRANCH  14  15
ENDBRANCH   8  14
ENDBRANCH   1  11
BRANCH   5  21
ATOM     21  S   UNL     1       4.234 -12.804   5.072  0.00  0.00    -0.079 S 
BRANCH  21  22
ATOM     22  C   UNL     1       5.524 -12.625   6.258  0.00  0.00    +0.129 C 
ATOM     23  N   UNL     1       6.752 -12.924   5.936  0.00  0.00    -0.367 N 
ATOM     24  N   UNL     1       5.237 -12.169   7.524  0.00  0.00    -0.326 N 
ATOM     25  H   UNL     1       4.611 -12.655   8.084  0.00  0.00    +0.148 HD
ATOM     26  H   UNL     1       6.968 -13.167   5.022  0.00  0.00    +0.161 HD
BRANCH  24  27
ATOM     27  C   UNL     1       5.877 -10.951   8.027  0.00  0.00    +0.100 C 
ATOM     28  C   UNL     1       5.250 -10.562   9.368  0.00  0.00    +0.024 C 
ENDBRANCH  24  27
BRANCH  23  29
ATOM     29  C   UNL     1       7.806 -12.891   6.954  0.00  0.00    +0.119 C 
BRANCH  29  30
ATOM     30  C   UNL     1       9.089 -13.494   6.379  0.00  0.00    +0.056 C 
BRANCH  30  31
ATOM     31  C   UNL     1      10.172 -13.460   7.426  0.00  0.00    -0.045 A 
ATOM     32  C   UNL     1      11.002 -12.359   7.525  0.00  0.00    +0.007 A 
ATOM     33  C   UNL     1      11.996 -12.326   8.484  0.00  0.00    +0.046 A 
ATOM     34  C   UNL     1      12.162 -13.399   9.347  0.00  0.00    +0.120 A 
ATOM     35  C   UNL     1      11.328 -14.503   9.245  0.00  0.00    +0.046 A 
ATOM     36  C   UNL     1      10.332 -14.529   8.289  0.00  0.00    +0.007 A 
BRANCH  34  37
ATOM     37  O   UNL     1      13.139 -13.370  10.291  0.00  0.00    -0.495 OA
ATOM     38  C   UNL     1      13.251 -14.510  11.145  0.00  0.00    +0.277 C 
ENDBRANCH  34  37
ENDBRANCH  30  31
ENDBRANCH  29  30
ENDBRANCH  23  29
ENDBRANCH  21  22
ENDBRANCH   5  21
TORSDOF 14
