REMARK  Name = ZINC59489319
REMARK  11 active torsions:
REMARK  status: ('A' for Active; 'I' for Inactive)
REMARK    1  A    between atoms: C_1  and  C_2
REMARK    2  A    between atoms: C_2  and  C_3
REMARK    3  A    between atoms: C_3  and  O_4
REMARK    4  A    between atoms: O_4  and  C_5
REMARK    5  A    between atoms: C_8  and  N_11
REMARK    6  A    between atoms: C_15  and  S_19
REMARK    7  A    between atoms: S_19  and  C_20
REMARK    8  A    between atoms: N_22  and  N_23
REMARK    9  A    between atoms: C_24  and  C_25
REMARK   10  A    between atoms: C_24  and  C_26
REMARK   11  A    between atoms: C_29  and  C_32
REMARK                            x       y       z     vdW  Elec       q    Type
REMARK                         _______ _______ _______ _____ _____    ______ ____
ROOT
ATOM      1  N   UNL     1      -6.308  -4.540   0.037  0.00  0.00    -0.209 N 
ATOM      2  C   UNL     1      -7.471  -3.886   0.139  0.00  0.00    +0.228 C 
ATOM      3  O   UNL     1      -7.594  -2.683   0.234  0.00  0.00    -0.275 OA
ATOM      4  C   UNL     1      -8.608  -4.884   0.117  0.00  0.00    +0.120 C 
ATOM      5  C   UNL     1      -7.893  -6.244  -0.017  0.00  0.00    +0.149 C 
ATOM      6  C   UNL     1      -6.427  -5.870  -0.062  0.00  0.00    +0.240 C 
ATOM      7  O   UNL     1      -5.506  -6.652  -0.169  0.00  0.00    -0.274 OA
ENDROOT
BRANCH   1  11
ATOM      8  C   UNL     1      -2.617  -2.595   0.012  0.00  0.00    +0.121 A 
ATOM      9  C   UNL     1      -3.068  -3.241  -1.130  0.00  0.00    +0.047 A 
ATOM     10  C   UNL     1      -4.290  -3.885  -1.122  0.00  0.00    +0.027 A 
ATOM     11  C   UNL     1      -5.066  -3.886   0.029  0.00  0.00    +0.044 A 
ATOM     12  C   UNL     1      -4.614  -3.240   1.171  0.00  0.00    +0.027 A 
ATOM     13  C   UNL     1      -3.390  -2.601   1.164  0.00  0.00    +0.047 A 
BRANCH   8  14
ATOM     14  O   UNL     1      -1.414  -1.962   0.004  0.00  0.00    -0.492 OA
BRANCH  14  15
ATOM     15  C   UNL     1      -0.671  -1.996  -1.216  0.00  0.00    +0.229 C 
BRANCH  15  17
ATOM     16  C   UNL     1       1.440  -1.273  -2.340  0.00  0.00    +0.007 C 
ATOM     17  C   UNL     1       0.644  -1.236  -1.034  0.00  0.00    +0.038 C 
ENDBRANCH  15  17
ENDBRANCH  14  15
ENDBRANCH   8  14
ENDBRANCH   1  11
BRANCH   5  18
ATOM     18  S   UNL     1      -8.385  -7.076  -1.552  0.00  0.00    -0.078 S 
BRANCH  18  19
ATOM     19  C   UNL     1      -7.596  -8.648  -1.456  0.00  0.00    +0.146 C 
ATOM     20  N   UNL     1      -6.861  -8.947  -0.421  0.00  0.00    -0.380 N 
ATOM     21  N   UNL     1      -7.754  -9.561  -2.475  0.00  0.00    -0.217 N 
ATOM     22  H   UNL     1      -6.426  -9.813  -0.369  0.00  0.00    +0.158 HD
ATOM     23  H   UNL     1      -8.300  -9.339  -3.245  0.00  0.00    +0.176 HD
ATOM     24  H   UNL     1      -6.749  -8.304   0.297  0.00  0.00    +0.158 HD
BRANCH  21  25
ATOM     25  N   UNL     1      -7.126 -10.811  -2.400  0.00  0.00    -0.185 NA
ATOM     26  C   UNL     1      -7.275 -11.671  -3.360  0.00  0.00    +0.063 C 
ATOM     27  C   UNL     1      -8.124 -11.326  -4.556  0.00  0.00    +0.068 C 
BRANCH  26  28
ATOM     28  C   UNL     1      -6.614 -12.987  -3.280  0.00  0.00    -0.003 A 
ATOM     29  C   UNL     1      -6.768 -13.914  -4.314  0.00  0.00    +0.010 A 
ATOM     30  C   UNL     1      -6.147 -15.142  -4.233  0.00  0.00    +0.004 A 
ATOM     31  C   UNL     1      -5.372 -15.458  -3.131  0.00  0.00    -0.050 A 
ATOM     32  C   UNL     1      -5.216 -14.546  -2.103  0.00  0.00    +0.004 A 
ATOM     33  C   UNL     1      -5.827 -13.311  -2.173  0.00  0.00    +0.010 A 
ATOM     34  C   UNL     1      -4.696 -16.803  -3.050  0.00  0.00    +0.044 C 
ENDBRANCH  26  28
ENDBRANCH  21  25
ENDBRANCH  18  19
ENDBRANCH   5  18
TORSDOF 8
