REMARK  Name = ZINC46077414
REMARK  6 active torsions:
REMARK  status: ('A' for Active; 'I' for Inactive)
REMARK    1  A    between atoms: C_1  and  N_2
REMARK    2  A    between atoms: N_2  and  C_3
REMARK    3  A    between atoms: N_2  and  S_11
REMARK    4  A    between atoms: C_6  and  O_9
REMARK    5  A    between atoms: O_9  and  C_10
REMARK    6  A    between atoms: S_11  and  C_14
REMARK                            x       y       z     vdW  Elec       q    Type
REMARK                         _______ _______ _______ _____ _____    ______ ____
ROOT
ATOM      1  C   UNL     1      -0.437  -1.721  -2.092  0.00  0.00    +0.110 A 
ATOM      2  C   UNL     1       0.416  -1.464  -3.152  0.00  0.00    +0.032 A 
ATOM      3  C   UNL     1       0.943  -2.505  -3.890  0.00  0.00    +0.049 A 
ATOM      4  C   UNL     1       0.615  -3.817  -3.579  0.00  0.00    +0.141 A 
ATOM      5  C   UNL     1      -0.263  -4.080  -2.522  0.00  0.00    +0.081 A 
ATOM      6  C   UNL     1      -0.773  -3.018  -1.769  0.00  0.00    +0.045 A 
ATOM      7  C   UNL     1      -0.677  -5.456  -2.216  0.00  0.00    +0.252 C 
ATOM      8  O   UNL     1      -1.832  -5.634  -1.881  0.00  0.00    -0.270 OA
ATOM      9  N   UNL     1       0.114  -6.519  -2.278  0.00  0.00    -0.278 N 
ATOM     10  C   UNL     1       1.466  -6.520  -2.617  0.00  0.00    +0.078 A 
ATOM     11  C   UNL     1       2.333  -7.357  -1.921  0.00  0.00    +0.047 A 
ATOM     12  C   UNL     1       3.674  -7.401  -2.252  0.00  0.00    +0.043 A 
ATOM     13  C   UNL     1       4.160  -6.613  -3.280  0.00  0.00    +0.024 A 
ATOM     14  C   UNL     1       3.307  -5.773  -3.969  0.00  0.00    +0.049 A 
ATOM     15  C   UNL     1       1.962  -5.713  -3.633  0.00  0.00    +0.150 A 
ATOM     16  O   UNL     1       1.163  -4.832  -4.285  0.00  0.00    -0.453 OA
ATOM     17 CL   UNL     1       4.749  -8.445  -1.376  0.00  0.00    -0.083 Cl
ATOM     18  H   UNL     1      -0.287  -7.377  -2.067  0.00  0.00    +0.155 HD
ENDROOT
BRANCH   1  19
ATOM     19  S   UNL     1      -1.091  -0.385  -1.147  0.00  0.00    +0.074 S 
ATOM     20  O   UNL     1      -2.202  -0.901  -0.428  0.00  0.00    -0.150 OA
ATOM     21  O   UNL     1      -1.203   0.721  -2.033  0.00  0.00    -0.150 OA
BRANCH  19  23
ATOM     22  C   UNL     1       1.095   0.998  -0.357  0.00  0.00    +0.157 C 
ATOM     23  N   UNL     1       0.053   0.025  -0.022  0.00  0.00    -0.206 N 
BRANCH  23  24
ATOM     24  C   UNL     1       0.023  -0.559   1.250  0.00  0.00    +0.051 A 
ATOM     25  C   UNL     1       0.342  -1.902   1.405  0.00  0.00    +0.028 A 
ATOM     26  C   UNL     1       0.313  -2.477   2.660  0.00  0.00    +0.047 A 
ATOM     27  C   UNL     1      -0.034  -1.714   3.766  0.00  0.00    +0.120 A 
ATOM     28  C   UNL     1      -0.353  -0.373   3.611  0.00  0.00    +0.047 A 
ATOM     29  C   UNL     1      -0.319   0.205   2.357  0.00  0.00    +0.028 A 
BRANCH  27  30
ATOM     30  O   UNL     1      -0.063  -2.281   5.001  0.00  0.00    -0.495 OA
ATOM     31  C   UNL     1      -0.429  -1.437   6.095  0.00  0.00    +0.277 C 
ENDBRANCH  27  30
ENDBRANCH  23  24
ENDBRANCH  19  23
ENDBRANCH   1  19
TORSDOF 4
