REMARK  Name = ZINC63648769
REMARK  8 active torsions:
REMARK  status: ('A' for Active; 'I' for Inactive)
REMARK    1  A    between atoms: C_1  and  C_2
REMARK    2  A    between atoms: C_6  and  C_8
REMARK    3  A    between atoms: C_14  and  C_21
REMARK    4  A    between atoms: C_15  and  C_20
REMARK    5  A    between atoms: C_18  and  C_19
REMARK    6  A    between atoms: N_23  and  C_24
REMARK    7  A    between atoms: C_24  and  C_25
REMARK    8  A    between atoms: C_25  and  C_26
REMARK                            x       y       z     vdW  Elec       q    Type
REMARK                         _______ _______ _______ _____ _____    ______ ____
ROOT
ATOM      1  C   UNL     1       0.000  -2.918   2.564  0.00  0.00    +0.109 C 
ATOM      2  C   UNL     1       1.255  -3.805   2.606  0.00  0.00    +0.226 C 
ATOM      3  N   UNL     1       2.136  -3.536   1.468  0.00  0.00    -0.266 NA
ATOM      4  C   UNL     1       2.762  -4.515   0.888  0.00  0.00    +0.121 C 
ATOM      5  C   UNL     1       2.611  -5.904   1.347  0.00  0.00    +0.073 C 
ATOM      6  C   UNL     1       1.505  -6.226   2.133  0.00  0.00    +0.042 C 
ATOM      7  N   UNL     1       0.696  -5.165   2.443  0.00  0.00    -0.203 N 
ATOM      8  N   UNL     1      -0.683  -5.099   2.545  0.00  0.00    -0.187 NA
ATOM      9  C   UNL     1      -1.145  -3.909   2.603  0.00  0.00    +0.045 C 
ATOM     10  C   UNL     1      -2.604  -3.544   2.694  0.00  0.00    +0.063 C 
ATOM     11  C   UNL     1       1.225  -7.624   2.622  0.00  0.00    +0.063 C 
ENDROOT
BRANCH   1  17
ATOM     12  C   UNL     1      -0.187   1.510   0.241  0.00  0.00    +0.044 C 
ATOM     13  C   UNL     1      -0.128   0.005   0.180  0.00  0.00    -0.050 A 
ATOM     14  C   UNL     1      -0.109  -0.636  -1.045  0.00  0.00    +0.003 A 
ATOM     15  C   UNL     1      -0.055  -2.016  -1.101  0.00  0.00    +0.001 A 
ATOM     16  C   UNL     1      -0.020  -2.755   0.067  0.00  0.00    +0.004 A 
ATOM     17  C   UNL     1      -0.038  -2.113   1.291  0.00  0.00    -0.035 A 
ATOM     18  C   UNL     1      -0.087  -0.733   1.347  0.00  0.00    +0.007 A 
ENDBRANCH   1  17
BRANCH   5  19
ATOM     19  C   UNL     1       3.601  -6.927   0.987  0.00  0.00    +0.247 C 
ATOM     20  O   UNL     1       3.523  -8.043   1.464  0.00  0.00    -0.270 OA
ATOM     21  N   UNL     1       4.596  -6.628   0.129  0.00  0.00    -0.311 N 
ATOM     22  H   UNL     1       4.658  -5.738  -0.252  0.00  0.00    +0.149 HD
BRANCH  21  23
ATOM     23  C   UNL     1       5.584  -7.649  -0.231  0.00  0.00    +0.109 C 
BRANCH  23  24
ATOM     24  C   UNL     1       6.596  -7.056  -1.213  0.00  0.00    +0.052 C 
BRANCH  24  25
ATOM     25  C   UNL     1       7.612  -8.105  -1.582  0.00  0.00    -0.040 C 
ATOM     26  C   UNL     1       7.588  -8.915  -2.665  0.00  0.00    -0.001 A 
ATOM     27  C   UNL     1       6.644  -9.056  -3.780  0.00  0.00    +0.010 A 
ATOM     28  C   UNL     1       6.893  -9.978  -4.738  0.00  0.00    +0.001 A 
ATOM     29  C   UNL     1       8.027 -10.800  -4.693  0.00  0.00    +0.002 A 
ATOM     30  C   UNL     1       8.940 -10.729  -3.701  0.00  0.00    +0.026 A 
ATOM     31  C   UNL     1       8.778  -9.795  -2.641  0.00  0.00    +0.043 A 
ATOM     32  N   UNL     1       9.511  -9.539  -1.584  0.00  0.00    -0.380 N 
ATOM     33  C   UNL     1       8.869  -8.462  -0.821  0.00  0.00    +0.144 C 
ATOM     34  H   UNL     1      10.339  -9.983  -1.348  0.00  0.00    +0.160 HD
ENDBRANCH  24  25
ENDBRANCH  23  24
ENDBRANCH  21  23
ENDBRANCH   5  19
TORSDOF 5
