REMARK  Name = ZINC09646051
REMARK  8 active torsions:
REMARK  status: ('A' for Active; 'I' for Inactive)
REMARK    1  A    between atoms: C_1  and  C_2
REMARK    2  A    between atoms: C_2  and  C_4
REMARK    3  A    between atoms: C_2  and  N_9
REMARK    4  A    between atoms: C_10  and  C_12
REMARK    5  A    between atoms: C_12  and  S_13
REMARK    6  A    between atoms: S_13  and  C_14
REMARK    7  A    between atoms: C_17  and  C_25
REMARK    8  A    between atoms: N_18  and  C_19
REMARK                            x       y       z     vdW  Elec       q    Type
REMARK                         _______ _______ _______ _____ _____    ______ ____
ROOT
ATOM      1  C   UNL     1      -5.226   0.879   0.078  0.00  0.00    +0.197 A 
ATOM      2  N   UNL     1      -5.127  -0.421  -0.090  0.00  0.00    -0.122 NA
ATOM      3  N   UNL     1      -6.295  -0.957  -0.093  0.00  0.00    -0.128 NA
ATOM      4  C   UNL     1      -7.214  -0.034   0.073  0.00  0.00    +0.169 A 
ATOM      5  N   UNL     1      -6.558   1.172   0.194  0.00  0.00    -0.270 N 
ENDROOT
BRANCH   4   6
ATOM      6  C   UNL     1      -8.675  -0.249   0.127  0.00  0.00    +0.023 A 
ATOM      7  C   UNL     1      -9.547   0.824  -0.063  0.00  0.00    +0.015 A 
ATOM      8  C   UNL     1     -10.911   0.622  -0.013  0.00  0.00    +0.050 A 
ATOM      9  C   UNL     1     -11.420  -0.646   0.226  0.00  0.00    +0.166 A 
ATOM     10  C   UNL     1     -10.554  -1.722   0.416  0.00  0.00    +0.167 A 
ATOM     11  C   UNL     1      -9.186  -1.527   0.361  0.00  0.00    +0.061 A 
ATOM     12  O   UNL     1     -11.297  -2.847   0.631  0.00  0.00    -0.453 OA
ATOM     13  C   UNL     1     -12.621  -2.528   0.165  0.00  0.00    +0.466 C 
ATOM     14  O   UNL     1     -12.704  -1.099   0.322  0.00  0.00    -0.453 OA
ENDBRANCH   4   6
BRANCH   5  15
ATOM     15  C   UNL     1      -7.134   2.434   0.390  0.00  0.00    +0.051 A 
ATOM     16  C   UNL     1      -7.771   2.729   1.589  0.00  0.00    +0.026 A 
ATOM     17  C   UNL     1      -8.334   3.976   1.781  0.00  0.00    +0.002 A 
ATOM     18  C   UNL     1      -8.274   4.926   0.778  0.00  0.00    +0.000 A 
ATOM     19  C   UNL     1      -7.645   4.633  -0.418  0.00  0.00    +0.002 A 
ATOM     20  C   UNL     1      -7.075   3.390  -0.615  0.00  0.00    +0.026 A 
ENDBRANCH   5  15
BRANCH   1  21
ATOM     21  S   UNL     1      -3.893   2.029   0.150  0.00  0.00    -0.076 S 
BRANCH  21  22
ATOM     22  C   UNL     1      -2.494   0.901  -0.069  0.00  0.00    +0.173 C 
BRANCH  22  24
ATOM     23  N   UNL     1      -0.027   1.051  -0.185  0.00  0.00    -0.305 N 
ATOM     24  C   UNL     1      -1.207   1.686  -0.040  0.00  0.00    +0.224 C 
ATOM     25  O   UNL     1      -1.234   2.889   0.112  0.00  0.00    -0.275 OA
ATOM     26  H   UNL     1      -0.006   0.089  -0.307  0.00  0.00    +0.149 HD
BRANCH  23  28
ATOM     27  C   UNL     1       1.678   2.007   1.284  0.00  0.00    +0.036 C 
ATOM     28  C   UNL     1       1.223   1.814  -0.164  0.00  0.00    +0.136 C 
BRANCH  28  29
ATOM     29  C   UNL     1       2.283   1.063  -0.927  0.00  0.00    +0.125 A 
ATOM     30  C   UNL     1       3.194   1.610  -1.752  0.00  0.00    +0.046 A 
ATOM     31  C   UNL     1       3.984   0.549  -2.251  0.00  0.00    +0.041 A 
ATOM     32  C   UNL     1       3.509  -0.583  -1.700  0.00  0.00    +0.195 A 
ATOM     33  O   UNL     1       2.482  -0.264  -0.895  0.00  0.00    -0.466 OA
ENDBRANCH  28  29
ENDBRANCH  23  28
ENDBRANCH  22  24
ENDBRANCH  21  22
ENDBRANCH   1  21
TORSDOF 7
