REMARK  Name = ZINC04178788
REMARK  11 active torsions:
REMARK  status: ('A' for Active; 'I' for Inactive)
REMARK    1  A    between atoms: C_1  and  C_2
REMARK    2  A    between atoms: C_5  and  C_7
REMARK    3  A    between atoms: C_5  and  O_11
REMARK    4  A    between atoms: C_12  and  C_14
REMARK    5  A    between atoms: C_16  and  C_24
REMARK    6  A    between atoms: C_18  and  C_21
REMARK    7  A    between atoms: C_19  and  O_20
REMARK    8  A    between atoms: C_21  and  C_22
REMARK    9  A    between atoms: C_21  and  C_23
REMARK   10  A    between atoms: C_24  and  C_25
REMARK   11  A    between atoms: C_24  and  C_26
REMARK                            x       y       z     vdW  Elec       q    Type
REMARK                         _______ _______ _______ _____ _____    ______ ____
ROOT
ATOM      1  C   UNL     1       0.008   1.195  -0.018  0.00  0.00    +0.062 C 
ATOM      2  C   UNL     1      -0.705   1.643   1.232  0.00  0.00    +0.039 C 
ATOM      3  N   UNL     1      -1.953   1.860   1.323  0.00  0.00    -0.183 NA
ATOM      4  N   UNL     1      -2.378   2.263   2.587  0.00  0.00    -0.148 N 
ATOM      5  C   UNL     1      -1.208   2.332   3.478  0.00  0.00    +0.257 C 
ATOM      6  C   UNL     1      -0.041   1.908   2.564  0.00  0.00    +0.118 C 
ATOM      7  C   UNL     1      -3.648   2.548   2.935  0.00  0.00    +0.272 C 
ATOM      8  O   UNL     1      -3.916   2.820   4.089  0.00  0.00    -0.268 OA
ENDROOT
BRANCH   7   9
ATOM      9  C   UNL     1      -4.714   2.528   1.915  0.00  0.00    +0.081 A 
ATOM     10  C   UNL     1      -4.436   2.094   0.617  0.00  0.00    +0.020 A 
ATOM     11  C   UNL     1      -5.436   2.078  -0.331  0.00  0.00    -0.044 A 
ATOM     12  C   UNL     1      -6.717   2.491  -0.003  0.00  0.00    +0.011 A 
ATOM     13  C   UNL     1      -7.005   2.924   1.276  0.00  0.00    -0.002 A 
ATOM     14  C   UNL     1      -6.013   2.940   2.245  0.00  0.00    +0.132 A 
BRANCH  13  15
ATOM     15  C   UNL     1      -8.402   3.371   1.623  0.00  0.00    +0.016 C 
ATOM     16  C   UNL     1      -8.793   4.554   0.735  0.00  0.00    +0.012 C 
ATOM     17  C   UNL     1      -9.379   2.216   1.393  0.00  0.00    +0.012 C 
ENDBRANCH  13  15
BRANCH  11  18
ATOM     18  C   UNL     1      -5.135   1.609  -1.732  0.00  0.00    +0.013 C 
ATOM     19  C   UNL     1      -4.054   2.500  -2.346  0.00  0.00    +0.012 C 
ATOM     20  C   UNL     1      -4.640   0.162  -1.690  0.00  0.00    +0.012 C 
ENDBRANCH  11  18
BRANCH  14  21
ATOM     21  O   UNL     1      -6.296   3.359   3.503  0.00  0.00    -0.506 OA
ATOM     22  H   UNL     1      -6.173   4.309   3.639  0.00  0.00    +0.292 HD
ENDBRANCH  14  21
ENDBRANCH   7   9
BRANCH   5  23
ATOM     23  C   UNL     1      -1.358   1.358   4.649  0.00  0.00    +0.438 C 
ATOM     24  F   UNL     1      -0.178   1.345   5.399  0.00  0.00    -0.166 F 
ATOM     25  F   UNL     1      -2.422   1.766   5.461  0.00  0.00    -0.166 F 
ATOM     26  F   UNL     1      -1.613   0.073   4.157  0.00  0.00    -0.166 F 
ENDBRANCH   5  23
BRANCH   5  27
ATOM     27  O   UNL     1      -1.016   3.665   3.956  0.00  0.00    -0.363 OA
ATOM     28  H   UNL     1      -1.722   3.981   4.536  0.00  0.00    +0.212 HD
ENDBRANCH   5  27
TORSDOF 6
