REMARK  Name = ZINC01188270
REMARK  8 active torsions:
REMARK  status: ('A' for Active; 'I' for Inactive)
REMARK    1  A    between atoms: C_1  and  C_2
REMARK    2  A    between atoms: C_3  and  C_30
REMARK    3  A    between atoms: C_6  and  N_7
REMARK    4  A    between atoms: N_7  and  S_8
REMARK    5  A    between atoms: S_8  and  C_11
REMARK    6  A    between atoms: C_14  and  N_17
REMARK    7  A    between atoms: C_18  and  C_20
REMARK    8  A    between atoms: C_21  and  C_22
REMARK                            x       y       z     vdW  Elec       q    Type
REMARK                         _______ _______ _______ _____ _____    ______ ____
ROOT
ATOM      1  C   UNL     1      -6.118  -6.204  -0.239  0.00  0.00    +0.109 A 
ATOM      2  C   UNL     1      -4.941  -6.926  -0.159  0.00  0.00    +0.030 A 
ATOM      3  C   UNL     1      -3.730  -6.267  -0.079  0.00  0.00    +0.025 A 
ATOM      4  C   UNL     1      -3.694  -4.879  -0.078  0.00  0.00    +0.034 A 
ATOM      5  C   UNL     1      -4.879  -4.157  -0.152  0.00  0.00    +0.025 A 
ATOM      6  C   UNL     1      -6.086  -4.821  -0.237  0.00  0.00    +0.030 A 
ENDROOT
BRANCH   4   7
ATOM      7  N   UNL     1      -2.470  -4.209   0.004  0.00  0.00    -0.282 N 
ATOM      8  C   UNL     1      -1.378  -4.726  -0.595  0.00  0.00    +0.241 C 
ATOM      9  O   UNL     1      -1.438  -5.815  -1.135  0.00  0.00    -0.270 OA
ATOM     10  H   UNL     1      -2.405  -3.373   0.492  0.00  0.00    +0.155 HD
BRANCH   8  11
ATOM     11  C   UNL     1      -0.121  -3.977  -0.596  0.00  0.00    +0.068 C 
ATOM     12  C   UNL     1       0.971  -4.494  -1.196  0.00  0.00    +0.014 C 
BRANCH  12  13
ATOM     13  C   UNL     1       2.235  -3.741  -1.196  0.00  0.00    -0.006 A 
ATOM     14  C   UNL     1       2.308  -2.488  -0.577  0.00  0.00    +0.011 A 
ATOM     15  C   UNL     1       3.495  -1.789  -0.582  0.00  0.00    +0.020 A 
ATOM     16  C   UNL     1       4.615  -2.322  -1.199  0.00  0.00    +0.042 A 
ATOM     17  C   UNL     1       4.552  -3.561  -1.815  0.00  0.00    +0.040 A 
ATOM     18  C   UNL     1       3.371  -4.274  -1.818  0.00  0.00    +0.049 A 
ATOM     19 CL   UNL     1       3.295  -5.830  -2.583  0.00  0.00    -0.083 Cl
ATOM     20 CL   UNL     1       6.106  -1.432  -1.200  0.00  0.00    -0.083 Cl
ENDBRANCH  12  13
ENDBRANCH   8  11
ENDBRANCH   4   7
BRANCH   1  21
ATOM     21  S   UNL     1      -7.662  -7.047  -0.342  0.00  0.00    +0.075 S 
ATOM     22  O   UNL     1      -8.575  -6.149  -0.956  0.00  0.00    -0.150 OA
ATOM     23  O   UNL     1      -7.386  -8.336  -0.874  0.00  0.00    -0.150 OA
BRANCH  21  24
ATOM     24  N   UNL     1      -8.197  -7.280   1.208  0.00  0.00    -0.183 N 
ATOM     25  H   UNL     1      -8.280  -8.180   1.562  0.00  0.00    +0.177 HD
BRANCH  24  31
ATOM     26  C   UNL     1      -9.240  -7.428   4.152  0.00  0.00    +0.051 C 
ATOM     27  C   UNL     1      -8.982  -6.223   3.284  0.00  0.00    +0.035 A 
ATOM     28  C   UNL     1      -9.155  -4.864   3.613  0.00  0.00    +0.085 A 
ATOM     29  N   UNL     1      -8.816  -4.180   2.557  0.00  0.00    -0.081 NA
ATOM     30  O   UNL     1      -8.463  -4.898   1.650  0.00  0.00    -0.338 OA
ATOM     31  C   UNL     1      -8.525  -6.194   1.997  0.00  0.00    +0.240 A 
ATOM     32  C   UNL     1      -9.644  -4.310   4.927  0.00  0.00    +0.069 C 
ENDBRANCH  24  31
ENDBRANCH  21  24
ENDBRANCH   1  21
TORSDOF 6
