REMARK  Name = ZINC21223145
REMARK  8 active torsions:
REMARK  status: ('A' for Active; 'I' for Inactive)
REMARK    1  A    between atoms: C_1  and  C_2
REMARK    2  A    between atoms: C_2  and  O_3
REMARK    3  A    between atoms: O_3  and  C_4
REMARK    4  A    between atoms: C_7  and  C_10
REMARK    5  A    between atoms: C_15  and  C_25
REMARK    6  A    between atoms: C_30  and  O_31
REMARK    7  A    between atoms: O_31  and  C_32
REMARK    8  A    between atoms: C_32  and  C_33
REMARK                            x       y       z     vdW  Elec       q    Type
REMARK                         _______ _______ _______ _____ _____    ______ ____
ROOT
ATOM      1  C   UNL     1      -1.935  -6.094  -0.210  0.00  0.00    +0.032 C 
ATOM      2  C   UNL     1      -1.329  -6.755  -1.447  0.00  0.00    +0.059 C 
ATOM      3  C   UNL     1      -1.521  -8.261  -1.373  0.00  0.00    +0.017 C 
ATOM      4  C   UNL     1      -1.507  -8.890  -0.186  0.00  0.00    +0.037 C 
ATOM      5  C   UNL     1      -1.661 -10.377   0.031  0.00  0.00    +0.139 C 
ATOM      6  N   UNL     1      -2.100 -11.110  -1.137  0.00  0.00    -0.331 N 
ATOM      7  C   UNL     1      -1.304 -11.190  -2.279  0.00  0.00    +0.049 A 
ATOM      8  C   UNL     1      -0.729 -12.386  -2.677  0.00  0.00    +0.025 A 
ATOM      9  C   UNL     1       0.141 -12.397  -3.753  0.00  0.00    +0.002 A 
ATOM     10  C   UNL     1       0.436 -11.226  -4.428  0.00  0.00    +0.002 A 
ATOM     11  C   UNL     1      -0.154 -10.033  -4.046  0.00  0.00    +0.025 A 
ATOM     12  C   UNL     1      -1.037 -10.024  -2.980  0.00  0.00    +0.052 A 
ATOM     13  N   UNL     1      -1.697  -8.870  -2.573  0.00  0.00    -0.316 N 
ATOM     14  C   UNL     1      -1.348  -8.152   1.010  0.00  0.00    +0.163 C 
ATOM     15  O   UNL     1      -1.318  -8.750   2.068  0.00  0.00    -0.292 OA
ATOM     16  C   UNL     1      -1.216  -6.658   1.021  0.00  0.00    +0.088 C 
ATOM     17  H   UNL     1      -3.076 -11.616  -1.134  0.00  0.00    +0.147 HD
ATOM     18  H   UNL     1      -2.404  -8.451  -3.304  0.00  0.00    +0.152 HD
ENDROOT
BRANCH   1  22
ATOM     19  C   UNL     1      -1.367  -1.863  -0.405  0.00  0.00    +0.121 A 
ATOM     20  C   UNL     1      -0.270  -2.712  -0.408  0.00  0.00    +0.046 A 
ATOM     21  C   UNL     1      -0.457  -4.079  -0.340  0.00  0.00    +0.007 A 
ATOM     22  C   UNL     1      -1.735  -4.602  -0.279  0.00  0.00    -0.043 A 
ATOM     23  C   UNL     1      -2.830  -3.758  -0.282  0.00  0.00    +0.007 A 
ATOM     24  C   UNL     1      -2.649  -2.390  -0.345  0.00  0.00    +0.046 A 
BRANCH  19  25
ATOM     25  O   UNL     1      -1.187  -0.517  -0.467  0.00  0.00    -0.492 OA
BRANCH  25  27
ATOM     26  C   UNL     1       0.164   1.483  -0.592  0.00  0.00    +0.048 C 
ATOM     27  C   UNL     1       0.161  -0.046  -0.527  0.00  0.00    +0.225 C 
ENDBRANCH  25  27
ENDBRANCH  19  25
ENDBRANCH   1  22
BRANCH   5  28
ATOM     28  C   UNL     1      -0.332 -10.933   0.473  0.00  0.00    +0.019 A 
ATOM     29  C   UNL     1       0.833 -10.244   0.194  0.00  0.00    +0.009 A 
ATOM     30  C   UNL     1       2.052 -10.753   0.600  0.00  0.00    +0.001 A 
ATOM     31  C   UNL     1       2.110 -11.953   1.286  0.00  0.00    +0.004 A 
ATOM     32  C   UNL     1       0.948 -12.645   1.568  0.00  0.00    +0.046 A 
ATOM     33  C   UNL     1      -0.278 -12.133   1.166  0.00  0.00    +0.126 A 
BRANCH  33  34
ATOM     34  O   UNL     1      -1.423 -12.809   1.447  0.00  0.00    -0.487 OA
BRANCH  34  35
ATOM     35  C   UNL     1      -1.291 -14.039   2.163  0.00  0.00    +0.264 C 
BRANCH  35  36
ATOM     36  C   UNL     1      -2.655 -14.642   2.381  0.00  0.00    -0.010 A 
ATOM     37  C   UNL     1      -3.374 -14.329   3.520  0.00  0.00    +0.007 A 
ATOM     38  C   UNL     1      -4.627 -14.879   3.718  0.00  0.00    +0.000 A 
ATOM     39  C   UNL     1      -5.156 -15.748   2.782  0.00  0.00    +0.000 A 
ATOM     40  C   UNL     1      -4.434 -16.064   1.647  0.00  0.00    +0.000 A 
ATOM     41  C   UNL     1      -3.184 -15.511   1.446  0.00  0.00    +0.007 A 
ENDBRANCH  35  36
ENDBRANCH  34  35
ENDBRANCH  33  34
ENDBRANCH   5  28
TORSDOF 7
