REMARK  Name = ZINC16921844
REMARK  2 active torsions:
REMARK  status: ('A' for Active; 'I' for Inactive)
REMARK    1  A    between atoms: C_10  and  N_17
REMARK    2  A    between atoms: C_18  and  C_19
REMARK                            x       y       z     vdW  Elec       q    Type
REMARK                         _______ _______ _______ _____ _____    ______ ____
ROOT
ATOM      1  C   UNL     1       1.173   2.086   0.002  0.00  0.00    +0.001 A 
ATOM      2  C   UNL     1       2.386   1.413  -0.015  0.00  0.00    +0.001 A 
ATOM      3  C   UNL     1       2.426   0.035  -0.022  0.00  0.00    +0.014 A 
ATOM      4  C   UNL     1       1.235  -0.690  -0.013  0.00  0.00    +0.047 A 
ATOM      5  C   UNL     1       0.002  -0.004   0.002  0.00  0.00    -0.004 A 
ATOM      6  C   UNL     1      -0.017   1.387   0.010  0.00  0.00    +0.009 A 
ATOM      7  C   UNL     1      -1.242  -0.795   0.010  0.00  0.00    +0.006 A 
ATOM      8  C   UNL     1      -2.486  -0.163   0.026  0.00  0.00    +0.012 A 
ATOM      9  C   UNL     1      -3.632  -0.905   0.034  0.00  0.00    +0.028 A 
ATOM     10  C   UNL     1      -3.565  -2.304   0.026  0.00  0.00    +0.066 A 
ATOM     11  C   UNL     1      -2.329  -2.947   0.009  0.00  0.00    +0.054 A 
ATOM     12  C   UNL     1      -1.160  -2.198   0.002  0.00  0.00    +0.052 A 
ATOM     13  N   UNL     1       0.069  -2.837  -0.013  0.00  0.00    -0.322 N 
ATOM     14  H   UNL     1       0.117  -3.936  -0.019  0.00  0.00    +0.169 HD
ATOM     15  C   UNL     1       1.231  -2.160  -0.021  0.00  0.00    +0.257 A 
ATOM     16  O   UNL     1       2.285  -2.767  -0.034  0.00  0.00    -0.267 OA
ENDROOT
BRANCH  10  17
ATOM     17  N   UNL     1      -4.717  -3.041   0.033  0.00  0.00    -0.255 NA
ATOM     18  C   UNL     1      -5.689  -2.724   0.843  0.00  0.00    +0.119 C 
BRANCH  18  19
ATOM     19  C   UNL     1      -6.927  -3.516   0.850  0.00  0.00    -0.003 A 
ATOM     20  C   UNL     1      -7.068  -4.607  -0.014  0.00  0.00    +0.013 A 
ATOM     21  C   UNL     1      -8.227  -5.351  -0.001  0.00  0.00    +0.050 A 
ATOM     22  C   UNL     1      -9.264  -5.016   0.860  0.00  0.00    +0.166 A 
ATOM     23  C   UNL     1      -9.133  -3.925   1.721  0.00  0.00    +0.167 A 
ATOM     24  C   UNL     1      -7.972  -3.178   1.718  0.00  0.00    +0.059 A 
ATOM     25  O   UNL     1     -10.279  -3.810   2.454  0.00  0.00    -0.453 OA
ATOM     26  C   UNL     1     -10.946  -5.079   2.326  0.00  0.00    +0.466 C 
ATOM     27  O   UNL     1     -10.490  -5.579   1.056  0.00  0.00    -0.453 OA
ENDBRANCH  18  19
ENDBRANCH  10  17
TORSDOF 2
