REMARK  Name = ZINC41586563
REMARK  10 active torsions:
REMARK  status: ('A' for Active; 'I' for Inactive)
REMARK    1  A    between atoms: C_1  and  C_2
REMARK    2  A    between atoms: C_2  and  O_3
REMARK    3  A    between atoms: O_3  and  C_4
REMARK    4  A    between atoms: C_4  and  C_6
REMARK    5  A    between atoms: N_11  and  C_13
REMARK    6  A    between atoms: C_13  and  C_14
REMARK    7  A    between atoms: C_15  and  O_38
REMARK    8  A    between atoms: C_24  and  C_25
REMARK    9  A    between atoms: C_31  and  O_36
REMARK   10  A    between atoms: O_36  and  C_37
REMARK                            x       y       z     vdW  Elec       q    Type
REMARK                         _______ _______ _______ _____ _____    ______ ____
ROOT
ATOM      1  C   UNL     1       2.968  -6.452  -4.723  0.00  0.00    +0.020 A 
ATOM      2  C   UNL     1       2.343  -6.779  -5.916  0.00  0.00    +0.122 A 
ATOM      3  C   UNL     1       3.078  -7.293  -6.981  0.00  0.00    +0.046 A 
ATOM      4  C   UNL     1       4.426  -7.481  -6.864  0.00  0.00    +0.016 A 
ATOM      5  C   UNL     1       5.070  -7.156  -5.669  0.00  0.00    +0.026 A 
ATOM      6  C   UNL     1       4.337  -6.632  -4.591  0.00  0.00    +0.144 A 
ATOM      7  O   UNL     1       4.964  -6.315  -3.438  0.00  0.00    -0.422 OA
ATOM      8  C   UNL     1       6.287  -6.479  -3.280  0.00  0.00    +0.338 A 
ATOM      9  O   UNL     1       6.799  -6.175  -2.217  0.00  0.00    -0.245 OA
ATOM     10  C   UNL     1       7.097  -6.990  -4.305  0.00  0.00    +0.101 A 
ATOM     11  C   UNL     1       6.523  -7.349  -5.514  0.00  0.00    +0.006 A 
ENDROOT
BRANCH  11  12
ATOM     12  C   UNL     1       7.341  -7.890  -6.615  0.00  0.00    +0.068 A 
ATOM     13  C   UNL     1       8.057  -9.068  -6.469  0.00  0.00    +0.027 A 
ATOM     14  C   UNL     1       8.848  -9.510  -7.562  0.00  0.00    +0.022 A 
ATOM     15  C   UNL     1       9.431 -10.786  -7.550  0.00  0.00    +0.012 A 
ATOM     16  C   UNL     1      10.154 -11.215  -8.625  0.00  0.00    +0.004 A 
ATOM     17  C   UNL     1      10.327 -10.396  -9.732  0.00  0.00    +0.049 A 
ATOM     18  C   UNL     1       9.778  -9.127  -9.761  0.00  0.00    +0.163 A 
ATOM     19  C   UNL     1       9.043  -8.667  -8.671  0.00  0.00    +0.180 A 
ATOM     20  O   UNL     1       8.536  -7.410  -8.666  0.00  0.00    -0.418 OA
ATOM     21  C   UNL     1       7.426  -7.202  -7.917  0.00  0.00    +0.345 A 
ATOM     22  O   UNL     1       6.532  -6.471  -8.302  0.00  0.00    -0.245 OA
BRANCH  18  23
ATOM     23  O   UNL     1       9.957  -8.330 -10.848  0.00  0.00    -0.491 OA
ATOM     24  C   UNL     1      10.723  -8.868 -11.928  0.00  0.00    +0.277 C 
ENDBRANCH  18  23
ENDBRANCH  11  12
BRANCH   2  25
ATOM     25  O   UNL     1       1.004  -6.597  -6.046  0.00  0.00    -0.506 OA
ATOM     26  H   UNL     1       0.756  -5.725  -6.382  0.00  0.00    +0.292 HD
ENDBRANCH   2  25
BRANCH   1  27
ATOM     27  C   UNL     1       2.165  -5.896  -3.576  0.00  0.00    -0.036 C 
BRANCH  27  32
ATOM     28  C   UNL     1       1.468  -2.353  -2.550  0.00  0.00    +0.081 C 
ATOM     29  C   UNL     1       0.740  -1.887  -3.814  0.00  0.00    +0.011 C 
ATOM     30  C   UNL     1       1.403  -2.524  -5.038  0.00  0.00    -0.018 C 
ATOM     31  C   UNL     1       1.385  -4.046  -4.887  0.00  0.00    -0.078 C 
ATOM     32  N   UNL     1       2.119  -4.431  -3.675  0.00  0.00    +0.383 N 
ATOM     33  C   UNL     1       1.448  -3.882  -2.490  0.00  0.00    -0.064 C 
ATOM     34  H   UNL     1       3.059  -4.069  -3.724  0.00  0.00    -0.081 HD
BRANCH  28  35
ATOM     35  C   UNL     1       0.775  -1.794  -1.334  0.00  0.00    +0.308 C 
ATOM     36  O   UNL     1       0.314  -2.540  -0.504  0.00  0.00    -0.251 OA
BRANCH  35  37
ATOM     37  O   UNL     1       0.671  -0.465  -1.174  0.00  0.00    -0.465 OA
BRANCH  37  39
ATOM     38  C   UNL     1      -0.019   1.526   0.010  0.00  0.00    +0.048 C 
ATOM     39  C   UNL     1       0.002  -0.004   0.002  0.00  0.00    +0.229 C 
ENDBRANCH  37  39
ENDBRANCH  35  37
ENDBRANCH  28  35
ENDBRANCH  27  32
ENDBRANCH   1  27
TORSDOF 8
