REMARK  Name = ZINC13519137
REMARK  14 active torsions:
REMARK  status: ('A' for Active; 'I' for Inactive)
REMARK    1  A    between atoms: C_3  and  O_10
REMARK    2  A    between atoms: C_6  and  N_7
REMARK    3  A    between atoms: O_10  and  C_11
REMARK    4  A    between atoms: C_13  and  O_42
REMARK    5  A    between atoms: C_15  and  O_25
REMARK    6  A    between atoms: C_17  and  O_24
REMARK    7  A    between atoms: C_19  and  C_22
REMARK    8  A    between atoms: C_22  and  O_23
REMARK    9  A    between atoms: O_25  and  C_26
REMARK   10  A    between atoms: C_28  and  O_41
REMARK   11  A    between atoms: C_30  and  O_40
REMARK   12  A    between atoms: C_32  and  O_39
REMARK   13  A    between atoms: C_34  and  C_37
REMARK   14  A    between atoms: C_37  and  O_38
REMARK                            x       y       z     vdW  Elec       q    Type
REMARK                         _______ _______ _______ _____ _____    ______ ____
ROOT
ATOM      1  C   UNL     1       0.767   3.244  -2.115  0.00  0.00    +0.339 C 
ATOM      2  C   UNL     1       1.727   2.256  -1.446  0.00  0.00    +0.214 C 
ATOM      3  C   UNL     1       1.280   2.024   0.001  0.00  0.00    +0.187 C 
ATOM      4  C   UNL     1       1.228   3.370   0.730  0.00  0.00    +0.177 C 
ATOM      5  C   UNL     1       0.288   4.314  -0.024  0.00  0.00    +0.179 C 
ATOM      6  O   UNL     1       0.743   4.463  -1.370  0.00  0.00    -0.331 OA
ENDROOT
BRANCH   4   7
ATOM      7  O   UNL     1       2.539   3.938   0.778  0.00  0.00    -0.386 OA
ATOM      8  H   UNL     1       2.580   4.793   1.227  0.00  0.00    +0.210 HD
ENDBRANCH   4   7
BRANCH   2   9
ATOM      9  O   UNL     1       1.709   1.017  -2.156  0.00  0.00    -0.383 OA
ATOM     10  H   UNL     1       1.981   1.090  -3.081  0.00  0.00    +0.210 HD
ENDBRANCH   2   9
BRANCH   1  11
ATOM     11  O   UNL     1       1.210   3.509  -3.448  0.00  0.00    -0.461 OA
BRANCH  11  14
ATOM     12  C   UNL     1      -0.038   5.381  -6.307  0.00  0.00    +0.036 A 
ATOM     13  C   UNL     1       0.778   4.588  -5.524  0.00  0.00    +0.048 A 
ATOM     14  C   UNL     1       0.409   4.290  -4.220  0.00  0.00    +0.124 A 
ATOM     15  C   UNL     1      -0.781   4.786  -3.708  0.00  0.00    +0.048 A 
ATOM     16  C   UNL     1      -1.590   5.583  -4.493  0.00  0.00    +0.036 A 
ATOM     17  C   UNL     1      -1.221   5.879  -5.792  0.00  0.00    +0.126 A 
BRANCH  17  18
ATOM     18  N   UNL     1      -2.093   6.729  -6.633  0.00  0.00    +0.056 N 
ATOM     19  O   UNL     1      -1.768   6.990  -7.778  0.00  0.00    -0.126 OA
ATOM     20  O   UNL     1      -3.135   7.168  -6.181  0.00  0.00    -0.126 OA
ENDBRANCH  17  18
ENDBRANCH  11  14
ENDBRANCH   1  11
BRANCH   5  21
ATOM     21  C   UNL     1       0.277   5.680   0.665  0.00  0.00    +0.190 C 
BRANCH  21  22
ATOM     22  O   UNL     1      -0.686   6.525   0.033  0.00  0.00    -0.392 OA
ATOM     23  H   UNL     1      -0.748   7.409   0.419  0.00  0.00    +0.210 HD
ENDBRANCH  21  22
ENDBRANCH   5  21
BRANCH   3  24
ATOM     24  O   UNL     1      -0.017   1.425   0.010  0.00  0.00    -0.340 OA
BRANCH  24  25
ATOM     25  C   UNL     1       0.002  -0.004   0.002  0.00  0.00    +0.282 C 
ATOM     26  C   UNL     1      -1.415  -0.533  -0.236  0.00  0.00    +0.201 C 
ATOM     27  C   UNL     1      -2.319  -0.086   0.917  0.00  0.00    +0.179 C 
ATOM     28  C   UNL     1      -1.726  -0.586   2.238  0.00  0.00    +0.177 C 
ATOM     29  C   UNL     1      -0.298  -0.056   2.381  0.00  0.00    +0.178 C 
ATOM     30  O   UNL     1       0.481  -0.481   1.261  0.00  0.00    -0.341 OA
BRANCH  28  31
ATOM     31  O   UNL     1      -2.522  -0.116   3.328  0.00  0.00    -0.386 OA
ATOM     32  H   UNL     1      -3.441  -0.414   3.301  0.00  0.00    +0.210 HD
ENDBRANCH  28  31
BRANCH  27  33
ATOM     33  O   UNL     1      -3.626  -0.636   0.740  0.00  0.00    -0.386 OA
ATOM     34  H   UNL     1      -4.061  -0.361  -0.078  0.00  0.00    +0.210 HD
ENDBRANCH  27  33
BRANCH  26  35
ATOM     35  O   UNL     1      -1.388  -1.960  -0.297  0.00  0.00    -0.384 OA
ATOM     36  H   UNL     1      -0.830  -2.313  -1.004  0.00  0.00    +0.210 HD
ENDBRANCH  26  35
BRANCH  29  37
ATOM     37  C   UNL     1       0.322  -0.600   3.670  0.00  0.00    +0.190 C 
BRANCH  37  38
ATOM     38  O   UNL     1       1.612  -0.014   3.862  0.00  0.00    -0.392 OA
ATOM     39  H   UNL     1       2.064  -0.314   4.662  0.00  0.00    +0.210 HD
ENDBRANCH  37  38
ENDBRANCH  29  37
ENDBRANCH  24  25
ENDBRANCH   3  24
TORSDOF 14
