REMARK  Name = ZINC36938723
REMARK  3 active torsions:
REMARK  status: ('A' for Active; 'I' for Inactive)
REMARK    1  A    between atoms: C_3  and  C_9
REMARK    2  A    between atoms: C_11  and  N_22
REMARK    3  A    between atoms: N_12  and  C_14
REMARK                            x       y       z     vdW  Elec       q    Type
REMARK                         _______ _______ _______ _____ _____    ______ ____
ROOT
ATOM      1  C   UNL     1       3.659   2.168  -0.022  0.00  0.00    +0.067 A 
ATOM      2  C   UNL     1       3.915   3.347  -0.746  0.00  0.00    +0.070 A 
ATOM      3  C   UNL     1       5.194   3.725  -0.486  0.00  0.00    +0.113 A 
ATOM      4  N   UNL     1       5.728   2.817   0.372  0.00  0.00    -0.268 N 
ATOM      5  N   UNL     1       4.747   1.857   0.651  0.00  0.00    -0.295 N 
ATOM      6  H   UNL     1       4.852   1.092   1.238  0.00  0.00    +0.187 HD
ENDROOT
BRANCH   1   9
ATOM      7  C   UNL     1      -0.017   1.380   0.010  0.00  0.00    +0.021 A 
ATOM      8  C   UNL     1       1.167   2.089   0.002  0.00  0.00    +0.013 A 
ATOM      9  C   UNL     1       2.384   1.410  -0.013  0.00  0.00    +0.018 A 
ATOM     10  C   UNL     1       2.398   0.015  -0.021  0.00  0.00    +0.051 A 
ATOM     11  C   UNL     1       1.208  -0.685  -0.013  0.00  0.00    +0.040 A 
ATOM     12  C   UNL     1       0.002  -0.004   0.002  0.00  0.00    +0.042 A 
ATOM     13 CL   UNL     1      -1.491  -0.889   0.011  0.00  0.00    -0.083 Cl
ATOM     14 CL   UNL     1       3.909  -0.839  -0.040  0.00  0.00    -0.083 Cl
ENDBRANCH   1   9
BRANCH   4  15
ATOM     15  C   UNL     1       7.088   2.840   0.914  0.00  0.00    +0.129 C 
ATOM     16  C   UNL     1       7.822   1.544   0.533  0.00  0.00    +0.051 C 
ATOM     17  C   UNL     1       9.126   1.413   1.357  0.00  0.00    +0.168 C 
ATOM     18  S   UNL     1       8.724   2.335   2.897  0.00  0.00    -0.029 S 
ATOM     19  O   UNL     1       9.593   3.455   3.005  0.00  0.00    -0.174 OA
ATOM     20  O   UNL     1       8.632   1.415   3.976  0.00  0.00    -0.174 OA
ATOM     21  C   UNL     1       7.034   2.928   2.466  0.00  0.00    +0.192 C 
ENDBRANCH   4  15
BRANCH   3  22
ATOM     22  N   UNL     1       5.842   4.842  -1.006  0.00  0.00    -0.343 N 
ATOM     23  H   UNL     1       5.374   5.435  -1.616  0.00  0.00    +0.144 HD
ATOM     24  H   UNL     1       6.762   5.028  -0.760  0.00  0.00    +0.144 HD
ENDBRANCH   3  22
TORSDOF 3
