REMARK  Name = ZINC39946151
REMARK  6 active torsions:
REMARK  status: ('A' for Active; 'I' for Inactive)
REMARK    1  A    between atoms: C_1  and  C_2
REMARK    2  A    between atoms: C_5  and  C_8
REMARK    3  A    between atoms: C_11  and  S_14
REMARK    4  A    between atoms: N_12  and  N_13
REMARK    5  A    between atoms: S_14  and  C_15
REMARK    6  A    between atoms: C_17  and  C_28
REMARK                            x       y       z     vdW  Elec       q    Type
REMARK                         _______ _______ _______ _____ _____    ______ ____
ROOT
ATOM      1  C   UNL     1       0.355  -9.089   0.410  0.00  0.00    +0.171 C 
ATOM      2  C   UNL     1       0.201 -10.469   1.021  0.00  0.00    -0.009 C 
ATOM      3  C   UNL     1       0.989 -11.492   0.485  0.00  0.00    +0.003 A 
ATOM      4  C   UNL     1       0.907 -12.805   0.993  0.00  0.00    +0.030 A 
ATOM      5  C   UNL     1       1.686 -13.783   0.453  0.00  0.00    +0.042 A 
ATOM      6  C   UNL     1       2.565 -13.512  -0.595  0.00  0.00    +0.022 A 
ATOM      7  C   UNL     1       2.687 -12.265  -1.126  0.00  0.00    +0.025 A 
ATOM      8  C   UNL     1       1.913 -11.206  -0.618  0.00  0.00    +0.041 A 
ATOM      9  N   UNL     1       2.034  -9.982  -1.142  0.00  0.00    -0.284 N 
ATOM     10  C   UNL     1       1.346  -8.939  -0.721  0.00  0.00    +0.235 C 
ATOM     11  O   UNL     1       1.508  -7.853  -1.246  0.00  0.00    -0.274 OA
ATOM     12 CL   UNL     1       1.582 -15.398   1.081  0.00  0.00    -0.084 Cl
ATOM     13  H   UNL     1       2.662  -9.854  -1.870  0.00  0.00    +0.155 HD
ENDROOT
BRANCH   2  14
ATOM     14  C   UNL     1      -0.702 -10.711   2.087  0.00  0.00    -0.020 A 
ATOM     15  C   UNL     1      -0.220 -11.103   3.346  0.00  0.00    +0.008 A 
ATOM     16  C   UNL     1      -1.105 -11.335   4.375  0.00  0.00    +0.001 A 
ATOM     17  C   UNL     1      -2.467 -11.183   4.171  0.00  0.00    +0.000 A 
ATOM     18  C   UNL     1      -2.953 -10.797   2.933  0.00  0.00    +0.001 A 
ATOM     19  C   UNL     1      -2.084 -10.554   1.892  0.00  0.00    +0.008 A 
ENDBRANCH   2  14
BRANCH   1  20
ATOM     20  S   UNL     1       0.843  -7.947   1.733  0.00  0.00    -0.067 S 
BRANCH  20  24
ATOM     21  C   UNL     1       0.795  -4.204   0.613  0.00  0.00    +0.182 A 
ATOM     22  N   UNL     1       0.418  -4.835  -0.474  0.00  0.00    -0.127 NA
ATOM     23  N   UNL     1       0.385  -6.101  -0.258  0.00  0.00    -0.121 NA
ATOM     24  C   UNL     1       0.740  -6.357   0.982  0.00  0.00    +0.210 A 
ATOM     25  N   UNL     1       1.018  -5.160   1.578  0.00  0.00    -0.224 N 
BRANCH  21  30
ATOM     26  C   UNL     1       1.421   1.484   1.225  0.00  0.00    +0.044 C 
ATOM     27  C   UNL     1       1.257  -0.006   1.065  0.00  0.00    -0.050 A 
ATOM     28  C   UNL     1       1.152  -0.555  -0.201  0.00  0.00    +0.004 A 
ATOM     29  C   UNL     1       1.002  -1.918  -0.354  0.00  0.00    +0.012 A 
ATOM     30  C   UNL     1       0.957  -2.743   0.770  0.00  0.00    +0.021 A 
ATOM     31  C   UNL     1       1.063  -2.183   2.044  0.00  0.00    +0.012 A 
ATOM     32  C   UNL     1       1.219  -0.819   2.184  0.00  0.00    +0.004 A 
ENDBRANCH  21  30
BRANCH  25  33
ATOM     33  N   UNL     1       1.429  -4.954   2.864  0.00  0.00    -0.295 N 
ATOM     34  H   UNL     1       0.640  -4.830   3.481  0.00  0.00    +0.163 HD
ATOM     35  H   UNL     1       2.020  -5.709   3.180  0.00  0.00    +0.163 HD
ENDBRANCH  25  33
ENDBRANCH  20  24
ENDBRANCH   1  20
TORSDOF 5
