REMARK  Name = ZINC05643719
REMARK  8 active torsions:
REMARK  status: ('A' for Active; 'I' for Inactive)
REMARK    1  A    between atoms: C_1  and  C_2
REMARK    2  A    between atoms: C_2  and  C_3
REMARK    3  A    between atoms: C_3  and  N_4
REMARK    4  A    between atoms: N_12  and  N_13
REMARK    5  A    between atoms: C_14  and  C_16
REMARK    6  A    between atoms: C_16  and  N_17
REMARK    7  A    between atoms: C_18  and  C_20
REMARK    8  A    between atoms: C_25  and  O_26
REMARK                            x       y       z     vdW  Elec       q    Type
REMARK                         _______ _______ _______ _____ _____    ______ ____
ROOT
ATOM      1  N   UNL     1       1.653  -6.473   0.845  0.00  0.00    -0.205 N 
ATOM      2  C   UNL     1       2.407  -7.544   0.524  0.00  0.00    +0.249 C 
ATOM      3  O   UNL     1       3.446  -7.394  -0.083  0.00  0.00    -0.272 OA
ATOM      4  H   UNL     1       0.822  -6.593   1.330  0.00  0.00    +0.177 HD
ENDROOT
BRANCH   1  13
ATOM      5  N   UNL     1       0.708  -1.981   1.159  0.00  0.00    -0.266 N 
ATOM      6  C   UNL     1      -0.107  -2.765   1.969  0.00  0.00    +0.046 A 
ATOM      7  C   UNL     1      -1.159  -2.434   2.816  0.00  0.00    +0.024 A 
ATOM      8  C   UNL     1      -1.816  -3.421   3.523  0.00  0.00    +0.002 A 
ATOM      9  C   UNL     1      -1.438  -4.747   3.399  0.00  0.00    +0.001 A 
ATOM     10  C   UNL     1      -0.396  -5.095   2.563  0.00  0.00    +0.012 A 
ATOM     11  C   UNL     1       0.272  -4.108   1.847  0.00  0.00    +0.028 A 
ATOM     12  C   UNL     1       1.403  -4.138   0.890  0.00  0.00    +0.153 C 
ATOM     13  N   UNL     1       2.071  -5.187   0.477  0.00  0.00    -0.174 NA
ATOM     14  C   UNL     1       1.608  -2.729   0.497  0.00  0.00    +0.271 C 
ATOM     15  O   UNL     1       2.445  -2.318  -0.284  0.00  0.00    -0.268 OA
BRANCH   5  16
ATOM     16  C   UNL     1       0.596  -0.526   1.038  0.00  0.00    +0.114 C 
BRANCH  16  18
ATOM     17  C   UNL     1      -0.494   1.338  -0.219  0.00  0.00    +0.005 C 
ATOM     18  C   UNL     1      -0.377  -0.182  -0.092  0.00  0.00    +0.016 C 
ENDBRANCH  16  18
ENDBRANCH   5  16
ENDBRANCH   1  13
BRANCH   2  19
ATOM     19  C   UNL     1       1.958  -8.927   0.920  0.00  0.00    +0.202 C 
BRANCH  19  20
ATOM     20  N   UNL     1       2.942  -9.910   0.460  0.00  0.00    -0.303 N 
ATOM     21  C   UNL     1       2.749 -11.221   0.703  0.00  0.00    +0.248 C 
ATOM     22  O   UNL     1       1.758 -11.589   1.305  0.00  0.00    -0.270 OA
ATOM     23  H   UNL     1       3.732  -9.617  -0.020  0.00  0.00    +0.150 HD
BRANCH  21  24
ATOM     24  C   UNL     1       3.739 -12.211   0.239  0.00  0.00    +0.078 A 
ATOM     25  C   UNL     1       4.882 -11.793  -0.447  0.00  0.00    +0.017 A 
ATOM     26  C   UNL     1       5.804 -12.723  -0.877  0.00  0.00    +0.001 A 
ATOM     27  C   UNL     1       5.603 -14.072  -0.632  0.00  0.00    +0.004 A 
ATOM     28  C   UNL     1       4.478 -14.498   0.045  0.00  0.00    +0.046 A 
ATOM     29  C   UNL     1       3.542 -13.576   0.490  0.00  0.00    +0.129 A 
BRANCH  29  30
ATOM     30  O   UNL     1       2.439 -13.993   1.160  0.00  0.00    -0.506 OA
ATOM     31  H   UNL     1       1.684 -14.192   0.590  0.00  0.00    +0.292 HD
ENDBRANCH  29  30
ENDBRANCH  21  24
ENDBRANCH  19  20
ENDBRANCH   2  19
TORSDOF 7
