REMARK  Name = ZINC27754484
REMARK  8 active torsions:
REMARK  status: ('A' for Active; 'I' for Inactive)
REMARK    1  A    between atoms: C_1  and  O_2
REMARK    2  A    between atoms: O_2  and  C_3
REMARK    3  A    between atoms: C_5  and  C_10
REMARK    4  A    between atoms: C_8  and  O_9
REMARK    5  A    between atoms: C_12  and  C_27
REMARK    6  A    between atoms: C_14  and  C_19
REMARK    7  A    between atoms: C_14  and  O_26
REMARK    8  A    between atoms: C_27  and  C_29
REMARK                            x       y       z     vdW  Elec       q    Type
REMARK                         _______ _______ _______ _____ _____    ______ ____
ROOT
ATOM      1  C   UNL     1      -1.580   2.338   1.294  0.00  0.00    +0.120 C 
ATOM      2  C   UNL     1      -1.538   1.988  -0.197  0.00  0.00    +0.144 C 
ATOM      3  C   UNL     1      -2.704   1.044  -0.510  0.00  0.00    +0.172 C 
ATOM      4  N   UNL     1      -3.957   1.671  -0.086  0.00  0.00    -0.267 N 
ATOM      5  C   UNL     1      -3.991   2.540   0.936  0.00  0.00    +0.302 C 
ATOM      6  O   UNL     1      -5.060   3.025   1.254  0.00  0.00    -0.253 OA
ATOM      7  N   UNL     1      -2.893   2.896   1.620  0.00  0.00    -0.292 N 
ATOM      8  H   UNL     1      -4.896   1.433  -0.607  0.00  0.00    +0.153 HD
ATOM      9  H   UNL     1      -2.994   3.622   2.440  0.00  0.00    +0.151 HD
ENDROOT
BRANCH   3  10
ATOM     10  C   UNL     1      -2.752   0.776  -1.992  0.00  0.00    +0.003 A 
ATOM     11  C   UNL     1      -3.502   1.592  -2.818  0.00  0.00    +0.011 A 
ATOM     12  C   UNL     1      -3.542   1.350  -4.178  0.00  0.00    +0.039 A 
ATOM     13  C   UNL     1      -2.839   0.284  -4.712  0.00  0.00    +0.123 A 
ATOM     14  C   UNL     1      -2.092  -0.537  -3.883  0.00  0.00    +0.039 A 
ATOM     15  C   UNL     1      -2.050  -0.290  -2.524  0.00  0.00    +0.011 A 
ATOM     16  F   UNL     1      -2.881   0.043  -6.040  0.00  0.00    -0.205 F 
ENDBRANCH   3  10
BRANCH   1  19
ATOM     17  C   UNL     1       1.613   3.904   2.568  0.00  0.00    +0.162 A 
ATOM     18  C   UNL     1       0.630   2.970   2.284  0.00  0.00    +0.055 A 
ATOM     19  C   UNL     1      -0.511   3.354   1.603  0.00  0.00    -0.023 A 
ATOM     20  C   UNL     1      -0.670   4.667   1.200  0.00  0.00    +0.009 A 
ATOM     21  C   UNL     1       0.305   5.604   1.486  0.00  0.00    +0.049 A 
ATOM     22  C   UNL     1       1.450   5.226   2.168  0.00  0.00    +0.158 A 
BRANCH  17  24
ATOM     23  C   UNL     1       2.835   2.154   3.618  0.00  0.00    +0.277 C 
ATOM     24  O   UNL     1       2.736   3.528   3.238  0.00  0.00    -0.491 OA
ENDBRANCH  17  24
BRANCH  22  25
ATOM     25  O   UNL     1       2.413   6.146   2.446  0.00  0.00    -0.503 OA
ATOM     26  H   UNL     1       2.283   7.191   2.129  0.00  0.00    +0.292 HD
ENDBRANCH  22  25
ENDBRANCH   1  19
BRANCH   3  27
ATOM     27  O   UNL     1      -2.523  -0.187   0.193  0.00  0.00    -0.367 OA
ATOM     28  H   UNL     1      -3.266  -0.993   0.091  0.00  0.00    +0.212 HD
ENDBRANCH   3  27
BRANCH   2  29
ATOM     29  C   UNL     1      -0.234   1.306  -0.521  0.00  0.00    +0.245 C 
ATOM     30  O   UNL     1       0.081   0.297   0.064  0.00  0.00    -0.287 OA
BRANCH  29  31
ATOM     31  C   UNL     1       0.674   1.878  -1.579  0.00  0.00    +0.451 C 
ATOM     32  F   UNL     1       1.857   1.133  -1.631  0.00  0.00    -0.163 F 
ATOM     33  F   UNL     1       0.034   1.825  -2.821  0.00  0.00    -0.163 F 
ATOM     34  F   UNL     1       0.974   3.208  -1.266  0.00  0.00    -0.163 F 
ENDBRANCH  29  31
ENDBRANCH   2  29
TORSDOF 7
