REMARK  Name = ZINC46582415
REMARK  6 active torsions:
REMARK  status: ('A' for Active; 'I' for Inactive)
REMARK    1  A    between atoms: C_6  and  C_11
REMARK    2  A    between atoms: N_13  and  C_14
REMARK    3  A    between atoms: C_14  and  C_15
REMARK    4  A    between atoms: C_15  and  C_16
REMARK    5  A    between atoms: N_18  and  N_19
REMARK    6  A    between atoms: C_20  and  C_22
REMARK                            x       y       z     vdW  Elec       q    Type
REMARK                         _______ _______ _______ _____ _____    ______ ____
ROOT
ATOM      1  C   UNL     1       7.345  -7.011  -0.103  0.00  0.00    +0.231 C 
ATOM      2  O   UNL     1       8.385  -6.386  -0.110  0.00  0.00    -0.274 OA
ATOM      3  N   UNL     1       7.368  -8.358  -0.111  0.00  0.00    -0.234 N 
ATOM      4  H   UNL     1       6.537  -8.858  -0.105  0.00  0.00    +0.173 HD
ENDROOT
BRANCH   3   5
ATOM      5  N   UNL     1       8.593  -9.038  -0.126  0.00  0.00    -0.230 N 
ATOM      6  C   UNL     1       8.616 -10.385  -0.133  0.00  0.00    +0.267 C 
ATOM      7  O   UNL     1       7.573 -11.012  -0.126  0.00  0.00    -0.268 OA
ATOM      8  H   UNL     1       9.425  -8.539  -0.131  0.00  0.00    +0.173 HD
BRANCH   6   9
ATOM      9  C   UNL     1       9.898 -11.096  -0.149  0.00  0.00    +0.076 A 
ATOM     10  C   UNL     1      10.140 -12.456  -0.164  0.00  0.00    +0.024 A 
ATOM     11  C   UNL     1      11.473 -12.860  -0.176  0.00  0.00    -0.036 A 
ATOM     12  C   UNL     1      12.406 -11.872  -0.171  0.00  0.00    -0.006 A 
ATOM     13  S   UNL     1      11.552 -10.433  -0.162  0.00  0.00    -0.088 S 
ATOM     14  C   UNL     1      13.899 -12.019  -0.175  0.00  0.00    +0.043 C 
ATOM     15  C   UNL     1      14.282 -13.326  -0.876  0.00  0.00    +0.005 C 
ATOM     16  C   UNL     1      14.320 -14.443   0.163  0.00  0.00    +0.001 C 
ATOM     17  C   UNL     1      12.950 -14.620   0.812  0.00  0.00    +0.005 C 
ATOM     18  C   UNL     1      11.842 -14.339  -0.198  0.00  0.00    +0.036 C 
ENDBRANCH   6   9
ENDBRANCH   3   5
BRANCH   1  19
ATOM     19  C   UNL     1       6.027  -6.280  -0.087  0.00  0.00    +0.116 C 
BRANCH  19  20
ATOM     20  C   UNL     1       6.281  -4.771  -0.082  0.00  0.00    +0.114 C 
BRANCH  20  23
ATOM     21  C   UNL     1       4.977  -2.713  -0.059  0.00  0.00    +0.244 C 
ATOM     22  O   UNL     1       6.019  -2.087  -0.066  0.00  0.00    -0.270 OA
ATOM     23  N   UNL     1       5.000  -4.060  -0.066  0.00  0.00    -0.311 N 
ATOM     24  H   UNL     1       4.168  -4.560  -0.060  0.00  0.00    +0.149 HD
BRANCH  21  30
ATOM     25  C   UNL     1      -0.016   1.357   0.009  0.00  0.00    +0.001 A 
ATOM     26  C   UNL     1       1.168   2.091   0.002  0.00  0.00    +0.001 A 
ATOM     27  C   UNL     1       2.378   1.468  -0.013  0.00  0.00    +0.008 A 
ATOM     28  C   UNL     1       2.437   0.063  -0.021  0.00  0.00    -0.017 A 
ATOM     29  C   UNL     1       3.667  -0.611  -0.036  0.00  0.00    +0.021 A 
ATOM     30  C   UNL     1       3.685  -1.996  -0.043  0.00  0.00    +0.037 A 
ATOM     31  C   UNL     1       2.482  -2.725  -0.035  0.00  0.00    +0.013 A 
ATOM     32  C   UNL     1       1.283  -2.090  -0.021  0.00  0.00    +0.009 A 
ATOM     33  C   UNL     1       1.231  -0.684  -0.013  0.00  0.00    -0.018 A 
ATOM     34  C   UNL     1       0.002  -0.004   0.002  0.00  0.00    +0.008 A 
ENDBRANCH  21  30
ENDBRANCH  20  23
ENDBRANCH  19  20
ENDBRANCH   1  19
TORSDOF 6
