REMARK  Name = ZINC05246492
REMARK  6 active torsions:
REMARK  status: ('A' for Active; 'I' for Inactive)
REMARK    1  A    between atoms: C_1  and  C_2
REMARK    2  A    between atoms: C_2  and  C_23
REMARK    3  A    between atoms: C_7  and  C_11
REMARK    4  A    between atoms: N_13  and  N_14
REMARK    5  A    between atoms: C_15  and  C_16
REMARK    6  A    between atoms: C_19  and  O_22
REMARK                            x       y       z     vdW  Elec       q    Type
REMARK                         _______ _______ _______ _____ _____    ______ ____
ROOT
ATOM      1  C   UNL     1      -2.821  -0.273   0.421  0.00  0.00    +0.242 C 
ATOM      2  O   UNL     1      -3.471  -0.552   1.407  0.00  0.00    -0.273 OA
ATOM      3  N   UNL     1      -2.236  -1.250  -0.299  0.00  0.00    -0.206 N 
ATOM      4  H   UNL     1      -1.716  -1.027  -1.087  0.00  0.00    +0.177 HD
ENDROOT
BRANCH   1  10
ATOM      5  C   UNL     1      -0.691   3.772   1.288  0.00  0.00    +0.016 C 
ATOM      6  C   UNL     1      -1.370   3.222   0.033  0.00  0.00    -0.010 C 
ATOM      7  C   UNL     1      -2.907   3.481   0.086  0.00  0.00    +0.000 C 
ATOM      8  C   UNL     1      -3.439   3.097  -1.329  0.00  0.00    +0.006 C 
ATOM      9  C   UNL     1      -3.256   1.551  -1.390  0.00  0.00    +0.021 C 
ATOM     10  C   UNL     1      -2.668   1.167   0.002  0.00  0.00    +0.070 C 
ATOM     11  C   UNL     1      -3.368   2.232   0.918  0.00  0.00    +0.025 C 
ATOM     12  C   UNL     1      -1.232   1.707  -0.024  0.00  0.00    -0.056 C 
ATOM     13  C   UNL     1      -0.122   1.013  -0.076  0.00  0.00    +0.009 C 
ATOM     14  C   UNL     1      -0.769   3.858  -1.222  0.00  0.00    +0.016 C 
ENDBRANCH   1  10
BRANCH   3  15
ATOM     15  N   UNL     1      -2.378  -2.588   0.091  0.00  0.00    -0.188 NA
ATOM     16  C   UNL     1      -1.814  -3.529  -0.603  0.00  0.00    +0.138 C 
BRANCH  16  17
ATOM     17  C   UNL     1      -1.964  -4.938  -0.193  0.00  0.00    -0.005 A 
ATOM     18  C   UNL     1      -2.707  -5.261   0.945  0.00  0.00    +0.013 A 
ATOM     19  C   UNL     1      -2.849  -6.579   1.321  0.00  0.00    +0.046 A 
ATOM     20  C   UNL     1      -2.245  -7.585   0.578  0.00  0.00    +0.117 A 
ATOM     21  C   UNL     1      -1.500  -7.267  -0.551  0.00  0.00    +0.046 A 
ATOM     22  C   UNL     1      -1.358  -5.953  -0.938  0.00  0.00    +0.013 A 
BRANCH  20  23
ATOM     23  O   UNL     1      -2.382  -8.882   0.956  0.00  0.00    -0.507 OA
ATOM     24  H   UNL     1      -1.696  -9.190   1.563  0.00  0.00    +0.292 HD
ENDBRANCH  20  23
ENDBRANCH  16  17
ENDBRANCH   3  15
TORSDOF 4
