REMARK  Name = ZINC39683239
REMARK  12 active torsions:
REMARK  status: ('A' for Active; 'I' for Inactive)
REMARK    1  A    between atoms: C_1  and  C_2
REMARK    2  A    between atoms: C_3  and  C_15
REMARK    3  A    between atoms: C_4  and  C_7
REMARK    4  A    between atoms: C_19  and  C_28
REMARK    5  A    between atoms: N_30  and  C_31
REMARK    6  A    between atoms: C_31  and  C_32
REMARK    7  A    between atoms: C_32  and  C_33
REMARK    8  A    between atoms: C_33  and  O_34
REMARK    9  A    between atoms: O_34  and  C_35
REMARK   10  A    between atoms: C_35  and  C_36
REMARK   11  A    between atoms: C_36  and  C_37
REMARK   12  A    between atoms: C_36  and  C_38
REMARK                            x       y       z     vdW  Elec       q    Type
REMARK                         _______ _______ _______ _____ _____    ______ ____
ROOT
ATOM      1  C   UNL     1      -2.245  -0.427   0.524  0.00  0.00    +0.252 C 
ATOM      2  O   UNL     1      -2.978  -0.208  -0.422  0.00  0.00    -0.270 OA
ATOM      3  N   UNL     1      -2.739  -0.409   1.778  0.00  0.00    -0.296 N 
ATOM      4  C   UNL     1      -2.008  -0.642   3.045  0.00  0.00    +0.121 C 
ATOM      5  C   UNL     1      -2.606   0.383   4.035  0.00  0.00    +0.100 C 
ATOM      6  C   UNL     1      -4.003   0.700   3.476  0.00  0.00    -0.004 C 
ATOM      7  C   UNL     1      -4.136  -0.144   2.200  0.00  0.00    +0.115 C 
ATOM      8  C   UNL     1      -4.111   2.183   3.133  0.00  0.00    -0.010 C 
ATOM      9  C   UNL     1      -5.527   2.485   2.633  0.00  0.00    -0.082 C 
ATOM     10  N   UNL     1      -6.500   2.130   3.672  0.00  0.00    +0.379 N 
ATOM     11  C   UNL     1      -6.454   0.686   3.930  0.00  0.00    -0.082 C 
ATOM     12  C   UNL     1      -5.078   0.308   4.485  0.00  0.00    -0.010 C 
ATOM     13  H   UNL     1      -6.281   2.629   4.521  0.00  0.00    -0.086 HD
ATOM     14  H   UNL     1      -7.427   2.386   3.365  0.00  0.00    -0.086 HD
ENDROOT
BRANCH   1  17
ATOM     15  C   UNL     1       0.050   1.692   0.413  0.00  0.00    +0.090 C 
ATOM     16  C   UNL     1       0.195   0.201   0.248  0.00  0.00    +0.147 A 
ATOM     17  C   UNL     1      -0.818  -0.711   0.299  0.00  0.00    +0.106 A 
ATOM     18  C   UNL     1      -0.210  -2.033   0.086  0.00  0.00    +0.130 A 
ATOM     19  N   UNL     1       1.075  -1.840  -0.072  0.00  0.00    -0.077 NA
ATOM     20  O   UNL     1       1.337  -0.454   0.021  0.00  0.00    -0.359 OA
BRANCH  18  21
ATOM     21  C   UNL     1      -0.916  -3.336   0.057  0.00  0.00    +0.058 A 
ATOM     22  C   UNL     1      -2.032  -3.511  -0.764  0.00  0.00    +0.134 A 
ATOM     23  C   UNL     1      -2.686  -4.728  -0.786  0.00  0.00    +0.039 A 
ATOM     24  C   UNL     1      -2.237  -5.771   0.003  0.00  0.00    +0.004 A 
ATOM     25  C   UNL     1      -1.133  -5.604   0.819  0.00  0.00    +0.021 A 
ATOM     26  C   UNL     1      -0.467  -4.395   0.846  0.00  0.00    +0.053 A 
ATOM     27 CL   UNL     1       0.924  -4.190   1.865  0.00  0.00    -0.083 Cl
ATOM     28  F   UNL     1      -2.471  -2.492  -1.535  0.00  0.00    -0.205 F 
ENDBRANCH  18  21
ENDBRANCH   1  17
BRANCH   5  29
ATOM     29  C   UNL     1      -2.713  -0.218   5.412  0.00  0.00    +0.218 C 
ATOM     30  O   UNL     1      -2.900  -1.409   5.541  0.00  0.00    -0.275 OA
ATOM     31  N   UNL     1      -2.602   0.568   6.502  0.00  0.00    -0.315 N 
ATOM     32  H   UNL     1      -2.453   1.521   6.399  0.00  0.00    +0.149 HD
BRANCH  31  33
ATOM     33  C   UNL     1      -2.707  -0.017   7.841  0.00  0.00    +0.106 C 
BRANCH  33  34
ATOM     34  C   UNL     1      -2.547   1.084   8.892  0.00  0.00    +0.047 C 
BRANCH  34  35
ATOM     35  C   UNL     1      -2.656   0.473  10.290  0.00  0.00    +0.161 C 
BRANCH  35  36
ATOM     36  O   UNL     1      -2.506   1.501  11.272  0.00  0.00    -0.379 OA
BRANCH  36  37
ATOM     37  C   UNL     1      -2.593   1.035  12.620  0.00  0.00    +0.162 C 
BRANCH  37  38
ATOM     38  C   UNL     1      -2.420   2.214  13.579  0.00  0.00    +0.009 C 
ATOM     39  C   UNL     1      -2.636   1.737  15.017  0.00  0.00    +0.009 C 
ATOM     40  C   UNL     1      -1.007   2.783  13.438  0.00  0.00    +0.009 C 
ENDBRANCH  37  38
ENDBRANCH  36  37
ENDBRANCH  35  36
ENDBRANCH  34  35
ENDBRANCH  33  34
ENDBRANCH  31  33
ENDBRANCH   5  29
TORSDOF 9
