REMARK  Name = ZINC32964429
REMARK  4 active torsions:
REMARK  status: ('A' for Active; 'I' for Inactive)
REMARK    1  A    between atoms: C_3  and  N_10
REMARK    2  A    between atoms: C_5  and  N_7
REMARK    3  A    between atoms: C_14  and  C_15
REMARK    4  A    between atoms: C_25  and  C_27
REMARK                            x       y       z     vdW  Elec       q    Type
REMARK                         _______ _______ _______ _____ _____    ______ ____
ROOT
ATOM      1  C   UNL     1       3.040   3.813  -1.783  0.00  0.00    +0.042 C 
ATOM      2  C   UNL     1       1.712   3.429  -1.858  0.00  0.00    +0.082 C 
ATOM      3  C   UNL     1       1.172   2.310  -1.039  0.00  0.00    +0.153 C 
ATOM      4  N   UNL     1       1.605   2.025   0.162  0.00  0.00    -0.283 NA
ATOM      5  N   UNL     1       0.148   1.585  -1.685  0.00  0.00    -0.152 N 
ATOM      6  C   UNL     1      -0.554   2.228  -2.682  0.00  0.00    +0.181 C 
ATOM      7  N   UNL     1      -0.324   3.417  -3.179  0.00  0.00    -0.152 NA
ATOM      8  C   UNL     1       0.751   4.114  -2.753  0.00  0.00    +0.273 C 
ATOM      9  O   UNL     1       0.929   5.272  -3.098  0.00  0.00    -0.268 OA
ATOM     10  S   UNL     1      -1.790   1.027  -3.100  0.00  0.00    -0.037 S 
ATOM     11  C   UNL     1      -1.234  -0.272  -2.005  0.00  0.00    +0.106 C 
ATOM     12  N   UNL     1      -0.225   0.289  -1.401  0.00  0.00    -0.169 NA
ATOM     13  H   UNL     1       2.252   2.605   0.595  0.00  0.00    +0.188 HD
ENDROOT
BRANCH  11  14
ATOM     14  C   UNL     1      -1.790  -1.661  -1.826  0.00  0.00    +0.022 C 
ATOM     15  C   UNL     1      -1.599  -2.457  -3.119  0.00  0.00    +0.017 C 
ATOM     16  C   UNL     1      -2.164  -3.867  -2.937  0.00  0.00    -0.010 C 
ATOM     17  C   UNL     1      -3.655  -3.781  -2.607  0.00  0.00    +0.007 C 
ATOM     18  C   UNL     1      -3.846  -2.985  -1.314  0.00  0.00    -0.010 C 
ATOM     19  C   UNL     1      -3.281  -1.574  -1.496  0.00  0.00    +0.017 C 
ATOM     20  C   UNL     1      -3.110  -3.686  -0.170  0.00  0.00    +0.007 C 
ATOM     21  C   UNL     1      -1.619  -3.772  -0.500  0.00  0.00    -0.010 C 
ATOM     22  C   UNL     1      -1.428  -4.568  -1.793  0.00  0.00    +0.007 C 
ATOM     23  C   UNL     1      -1.054  -2.362  -0.682  0.00  0.00    +0.017 C 
ENDBRANCH  11  14
BRANCH   1  28
ATOM     24  N   UNL     1       5.313   3.240  -0.948  0.00  0.00    -0.316 N 
ATOM     25  C   UNL     1       5.906   2.136  -0.425  0.00  0.00    +0.092 A 
ATOM     26  C   UNL     1       4.997   1.129  -0.373  0.00  0.00    +0.020 A 
ATOM     27  C   UNL     1       3.789   1.611  -0.880  0.00  0.00    +0.027 A 
ATOM     28  C   UNL     1       3.996   2.938  -1.233  0.00  0.00    +0.047 A 
BRANCH  24  31
ATOM     29  C   UNL     1       6.540   6.275  -2.626  0.00  0.00    +0.004 A 
ATOM     30  C   UNL     1       5.928   5.053  -2.422  0.00  0.00    +0.026 A 
ATOM     31  C   UNL     1       5.932   4.479  -1.158  0.00  0.00    +0.049 A 
ATOM     32  C   UNL     1       6.551   5.135  -0.102  0.00  0.00    +0.058 A 
ATOM     33  C   UNL     1       7.160   6.356  -0.313  0.00  0.00    +0.128 A 
ATOM     34  C   UNL     1       7.155   6.926  -1.573  0.00  0.00    +0.033 A 
BRANCH  33  35
ATOM     35  N   UNL     1       7.820   7.057   0.812  0.00  0.00    +0.056 N 
ATOM     36  O   UNL     1       7.906   6.520   1.891  0.00  0.00    -0.126 OA
ATOM     37  O   UNL     1       8.272   8.166   0.651  0.00  0.00    -0.126 OA
ENDBRANCH  33  35
ENDBRANCH  24  31
ENDBRANCH   1  28
TORSDOF 4
