REMARK  Name = ZINC64391967
REMARK  5 active torsions:
REMARK  status: ('A' for Active; 'I' for Inactive)
REMARK    1  A    between atoms: C_1  and  C_2
REMARK    2  A    between atoms: C_2  and  C_3
REMARK    3  A    between atoms: C_6  and  C_9
REMARK    4  A    between atoms: C_12  and  C_16
REMARK    5  A    between atoms: C_21  and  C_22
REMARK                            x       y       z     vdW  Elec       q    Type
REMARK                         _______ _______ _______ _____ _____    ______ ____
ROOT
ATOM      1  C   UNL     1      -5.419  -2.005   0.043  0.00  0.00    +0.180 C 
ATOM      2  N   UNL     1      -5.662  -2.876  -1.131  0.00  0.00    -0.268 NA
ATOM      3  C   UNL     1      -6.502  -3.992  -0.653  0.00  0.00    +0.225 C 
ATOM      4  O   UNL     1      -6.752  -3.767   0.747  0.00  0.00    -0.278 OA
ATOM      5  N   UNL     1      -5.634  -2.910   1.204  0.00  0.00    -0.178 NA
ATOM      6  H   UNL     1      -6.124  -2.367  -1.870  0.00  0.00    +0.126 HD
ATOM      7  H   UNL     1      -4.809  -3.461   1.390  0.00  0.00    +0.156 HD
ENDROOT
BRANCH   1  11
ATOM      8  C   UNL     1      -1.412  -0.526   0.013  0.00  0.00    -0.048 A 
ATOM      9  C   UNL     1      -2.051  -0.766   1.215  0.00  0.00    +0.004 A 
ATOM     10  C   UNL     1      -3.348  -1.244   1.225  0.00  0.00    +0.007 A 
ATOM     11  C   UNL     1      -4.006  -1.482   0.032  0.00  0.00    -0.014 A 
ATOM     12  C   UNL     1      -3.367  -1.241  -1.170  0.00  0.00    +0.007 A 
ATOM     13  C   UNL     1      -2.072  -0.758  -1.179  0.00  0.00    +0.004 A 
BRANCH   8  15
ATOM     14  C   UNL     1      -0.019   1.526   0.010  0.00  0.00    +0.009 C 
ATOM     15  C   UNL     1       0.002  -0.004   0.002  0.00  0.00    +0.032 C 
ENDBRANCH   8  15
ENDBRANCH   1  11
BRANCH   3  16
ATOM     16  C   UNL     1      -7.823  -4.018  -1.424  0.00  0.00    +0.128 C 
ATOM     17  C   UNL     1      -8.566  -2.708  -1.253  0.00  0.00    +0.121 C 
ATOM     18  N   UNL     1      -9.686  -3.002  -0.676  0.00  0.00    -0.161 NA
ATOM     19  N   UNL     1      -9.812  -4.364  -0.424  0.00  0.00    -0.153 NA
ATOM     20  C   UNL     1      -8.769  -5.042  -0.829  0.00  0.00    +0.083 C 
BRANCH  20  21
ATOM     21  C   UNL     1      -8.556  -6.495  -0.730  0.00  0.00    -0.001 A 
ATOM     22  C   UNL     1      -7.373  -7.066  -1.209  0.00  0.00    +0.010 A 
ATOM     23  C   UNL     1      -7.181  -8.428  -1.113  0.00  0.00    +0.001 A 
ATOM     24  C   UNL     1      -8.155  -9.229  -0.542  0.00  0.00    +0.000 A 
ATOM     25  C   UNL     1      -9.328  -8.671  -0.066  0.00  0.00    +0.001 A 
ATOM     26  C   UNL     1      -9.533  -7.310  -0.149  0.00  0.00    +0.010 A 
ENDBRANCH  20  21
ENDBRANCH   3  16
TORSDOF 4
