REMARK  Name = ZINC12097578
REMARK  8 active torsions:
REMARK  status: ('A' for Active; 'I' for Inactive)
REMARK    1  A    between atoms: C_1  and  C_2
REMARK    2  A    between atoms: C_2  and  C_29
REMARK    3  A    between atoms: N_5  and  C_9
REMARK    4  A    between atoms: C_9  and  C_10
REMARK    5  A    between atoms: N_12  and  C_13
REMARK    6  A    between atoms: C_16  and  C_19
REMARK    7  A    between atoms: C_32  and  O_35
REMARK    8  A    between atoms: O_35  and  C_36
REMARK                            x       y       z     vdW  Elec       q    Type
REMARK                         _______ _______ _______ _____ _____    ______ ____
ROOT
ATOM      1  C   UNL     1       3.472   3.329  -0.506  0.00  0.00    +0.235 C 
ATOM      2  O   UNL     1       3.418   2.240  -1.037  0.00  0.00    -0.274 OA
ATOM      3  N   UNL     1       2.356   3.889   0.001  0.00  0.00    -0.284 N 
ATOM      4  H   UNL     1       2.383   4.791   0.356  0.00  0.00    +0.155 HD
ENDROOT
BRANCH   3   5
ATOM      5  C   UNL     1       1.156   3.168   0.013  0.00  0.00    +0.033 A 
ATOM      6  C   UNL     1       1.174   1.790   0.184  0.00  0.00    +0.023 A 
ATOM      7  C   UNL     1      -0.012   1.082   0.197  0.00  0.00    +0.006 A 
ATOM      8  C   UNL     1      -1.216   1.743   0.033  0.00  0.00    -0.041 A 
ATOM      9  C   UNL     1      -1.237   3.116  -0.133  0.00  0.00    +0.006 A 
ATOM     10  C   UNL     1      -0.055   3.830  -0.146  0.00  0.00    +0.023 A 
BRANCH   8  11
ATOM     11  C   UNL     1      -2.507   0.967   0.041  0.00  0.00    -0.003 C 
ATOM     12  C   UNL     1      -2.660   0.245   1.382  0.00  0.00    +0.015 C 
ATOM     13  C   UNL     1      -3.971  -0.543   1.390  0.00  0.00    -0.010 C 
ATOM     14  C   UNL     1      -5.145   0.418   1.191  0.00  0.00    +0.007 C 
ATOM     15  C   UNL     1      -4.992   1.139  -0.149  0.00  0.00    -0.010 C 
ATOM     16  C   UNL     1      -3.681   1.927  -0.158  0.00  0.00    +0.015 C 
ATOM     17  C   UNL     1      -4.977   0.112  -1.283  0.00  0.00    +0.007 C 
ATOM     18  C   UNL     1      -3.803  -0.849  -1.084  0.00  0.00    -0.010 C 
ATOM     19  C   UNL     1      -3.955  -1.571   0.256  0.00  0.00    +0.007 C 
ATOM     20  C   UNL     1      -2.491  -0.061  -1.092  0.00  0.00    +0.015 C 
ENDBRANCH   8  11
ENDBRANCH   3   5
BRANCH   1  21
ATOM     21  C   UNL     1       4.789   4.057  -0.412  0.00  0.00    +0.214 C 
BRANCH  21  26
ATOM     22  C   UNL     1       8.585   3.007  -2.971  0.00  0.00    +0.047 C 
ATOM     23  C   UNL     1       7.303   2.309  -2.514  0.00  0.00    +0.135 C 
ATOM     24  C   UNL     1       6.184   3.315  -2.331  0.00  0.00    +0.251 C 
ATOM     25  O   UNL     1       5.698   4.033  -3.179  0.00  0.00    -0.272 OA
ATOM     26  N   UNL     1       5.840   3.246  -1.030  0.00  0.00    -0.215 N 
ATOM     27  C   UNL     1       6.582   2.348  -0.371  0.00  0.00    +0.310 C 
ATOM     28  O   UNL     1       6.461   2.111   0.815  0.00  0.00    -0.252 OA
ATOM     29  N   UNL     1       7.476   1.736  -1.169  0.00  0.00    -0.281 N 
ATOM     30  H   UNL     1       8.112   1.052  -0.908  0.00  0.00    +0.152 HD
BRANCH  23  31
ATOM     31  C   UNL     1       6.899   1.241  -3.498  0.00  0.00    -0.015 A 
ATOM     32  C   UNL     1       6.010   1.538  -4.514  0.00  0.00    +0.010 A 
ATOM     33  C   UNL     1       5.644   0.563  -5.420  0.00  0.00    +0.046 A 
ATOM     34  C   UNL     1       6.159  -0.720  -5.303  0.00  0.00    +0.120 A 
ATOM     35  C   UNL     1       7.046  -1.018  -4.279  0.00  0.00    +0.046 A 
ATOM     36  C   UNL     1       7.415  -0.037  -3.379  0.00  0.00    +0.010 A 
BRANCH  34  37
ATOM     37  O   UNL     1       5.795  -1.684  -6.190  0.00  0.00    -0.495 OA
ATOM     38  C   UNL     1       4.877  -1.306  -7.218  0.00  0.00    +0.277 C 
ENDBRANCH  34  37
ENDBRANCH  23  31
ENDBRANCH  21  26
ENDBRANCH   1  21
TORSDOF 6
