REMARK  Name = ZINC12279409
REMARK  14 active torsions:
REMARK  status: ('A' for Active; 'I' for Inactive)
REMARK    1  A    between atoms: C_1  and  C_2
REMARK    2  A    between atoms: C_2  and  C_4
REMARK    3  A    between atoms: C_2  and  N_67
REMARK    4  A    between atoms: C_4  and  C_5
REMARK    5  A    between atoms: C_5  and  C_6
REMARK    6  A    between atoms: C_5  and  C_7
REMARK    7  A    between atoms: C_5  and  O_8
REMARK    8  A    between atoms: C_14  and  S_20
REMARK    9  A    between atoms: C_15  and  C_16
REMARK   10  A    between atoms: C_16  and  O_18
REMARK   11  A    between atoms: O_18  and  C_19
REMARK   12  A    between atoms: S_20  and  N_23
REMARK   13  A    between atoms: N_23  and  C_24
REMARK   14  A    between atoms: C_24  and  C_25
REMARK                            x       y       z     vdW  Elec       q    Type
REMARK                         _______ _______ _______ _____ _____    ______ ____
ROOT
ATOM      1  C   UNL     1       1.881   2.962  -4.137  0.00  0.00    -0.073 C 
ATOM      2  C   UNL     1       1.017   1.995  -3.321  0.00  0.00    +0.018 C 
ATOM      3  C   UNL     1       1.305   2.233  -1.844  0.00  0.00    -0.025 A 
ATOM      4  C   UNL     1       2.422   2.899  -1.468  0.00  0.00    -0.021 A 
ATOM      5  S   UNL     1       2.343   2.943   0.298  0.00  0.00    -0.074 S 
ATOM      6  C   UNL     1       0.850   2.094   0.530  0.00  0.00    +0.157 A 
ATOM      7  C   UNL     1       0.454   1.793  -0.757  0.00  0.00    +0.096 A 
ATOM      8  C   UNL     1       3.471   3.459  -2.377  0.00  0.00    -0.035 C 
ATOM      9  N   UNL     1       3.291   2.838  -3.712  0.00  0.00    +0.385 N 
ATOM     10  H   UNL     1       3.536   1.843  -3.654  0.00  0.00    -0.081 HD
ENDROOT
BRANCH   6  11
ATOM     11  S   UNL     1       0.035   1.707   2.043  0.00  0.00    +0.065 S 
ATOM     12  O   UNL     1      -0.723   2.854   2.401  0.00  0.00    -0.153 OA
ATOM     13  O   UNL     1      -0.556   0.426   1.871  0.00  0.00    -0.153 OA
BRANCH  11  14
ATOM     14  N   UNL     1       1.208   1.535   3.200  0.00  0.00    -0.189 NA
ATOM     15  H   UNL     1       1.353   0.672   3.619  0.00  0.00    +0.148 HD
BRANCH  14  16
ATOM     16  C   UNL     1       2.026   2.686   3.591  0.00  0.00    +0.109 C 
BRANCH  16  17
ATOM     17  C   UNL     1       2.752   2.374   4.901  0.00  0.00    +0.005 C 
ATOM     18  C   UNL     1       1.727   2.207   6.025  0.00  0.00    +0.005 C 
ATOM     19  C   UNL     1       2.453   1.895   7.335  0.00  0.00    +0.000 C 
ATOM     20  C   UNL     1       3.402   3.045   7.678  0.00  0.00    +0.000 C 
ATOM     21  C   UNL     1       4.427   3.213   6.554  0.00  0.00    +0.000 C 
ATOM     22  C   UNL     1       3.701   3.524   5.244  0.00  0.00    +0.005 C 
ENDBRANCH  16  17
ENDBRANCH  14  16
ENDBRANCH  11  14
ENDBRANCH   6  11
BRANCH   9  24
ATOM     23  C   UNL     1       3.974   5.011  -4.672  0.00  0.00    -0.013 C 
ATOM     24  C   UNL     1       4.176   3.494  -4.699  0.00  0.00    -0.069 C 
BRANCH  24  25
ATOM     25  C   UNL     1       5.630   3.167  -4.354  0.00  0.00    +0.019 C 
BRANCH  25  26
ATOM     26  C   UNL     1       5.873   1.668  -4.538  0.00  0.00    +0.059 C 
ATOM     27  C   UNL     1       5.465   1.256  -5.954  0.00  0.00    +0.041 C 
ATOM     28  C   UNL     1       7.357   1.362  -4.326  0.00  0.00    +0.041 C 
BRANCH  26  29
ATOM     29  O   UNL     1       5.095   0.939  -3.587  0.00  0.00    -0.389 OA
ATOM     30  H   UNL     1       4.143   1.085  -3.663  0.00  0.00    +0.210 HD
ENDBRANCH  26  29
ENDBRANCH  25  26
ENDBRANCH  24  25
ENDBRANCH   9  24
BRANCH   7  31
ATOM     31  C   UNL     1      -0.792   1.057  -1.016  0.00  0.00    +0.342 C 
ATOM     32  O   UNL     1      -0.779  -0.157  -1.078  0.00  0.00    -0.245 OA
BRANCH  31  33
ATOM     33  O   UNL     1      -1.948   1.729  -1.191  0.00  0.00    -0.464 OA
ATOM     34  C   UNL     1      -3.137   0.937  -1.450  0.00  0.00    +0.280 C 
ENDBRANCH  31  33
ENDBRANCH   7  31
TORSDOF 10
