REMARK  Name = ZINC39653040
REMARK  9 active torsions:
REMARK  status: ('A' for Active; 'I' for Inactive)
REMARK    1  A    between atoms: C_1  and  O_2
REMARK    2  A    between atoms: O_2  and  C_3
REMARK    3  A    between atoms: C_5  and  C_11
REMARK    4  A    between atoms: C_7  and  O_9
REMARK    5  A    between atoms: O_9  and  C_10
REMARK    6  A    between atoms: C_11  and  C_12
REMARK    7  A    between atoms: C_12  and  N_13
REMARK    8  A    between atoms: C_14  and  C_16
REMARK    9  A    between atoms: C_27  and  C_29
REMARK                            x       y       z     vdW  Elec       q    Type
REMARK                         _______ _______ _______ _____ _____    ______ ____
ROOT
ATOM      1  C   UNL     1       4.216  -7.854   1.464  0.00  0.00    +0.100 C 
ATOM      2  C   UNL     1       4.219  -8.597   2.819  0.00  0.00    +0.121 C 
ATOM      3  N   UNL     1       5.091  -9.774   2.598  0.00  0.00    -0.296 N 
ATOM      4  C   UNL     1       6.199  -9.261   1.758  0.00  0.00    +0.115 C 
ATOM      5  C   UNL     1       5.517  -8.291   0.771  0.00  0.00    -0.004 C 
ATOM      6  C   UNL     1       6.412  -7.083   0.516  0.00  0.00    -0.010 C 
ATOM      7  C   UNL     1       7.673  -7.534  -0.226  0.00  0.00    -0.082 C 
ATOM      8  N   UNL     1       7.296  -8.165  -1.496  0.00  0.00    +0.379 N 
ATOM      9  C   UNL     1       6.513  -9.380  -1.239  0.00  0.00    -0.082 C 
ATOM     10  C   UNL     1       5.203  -9.006  -0.540  0.00  0.00    -0.010 C 
ATOM     11  C   UNL     1       4.916 -11.029   3.058  0.00  0.00    +0.247 C 
ATOM     12  O   UNL     1       3.887 -11.329   3.631  0.00  0.00    -0.270 OA
ATOM     13  H   UNL     1       6.744  -7.520  -2.040  0.00  0.00    -0.086 HD
ATOM     14  H   UNL     1       8.130  -8.407  -2.011  0.00  0.00    -0.086 HD
ENDROOT
BRANCH  11  15
ATOM     15  C   UNL     1       5.976 -12.041   2.865  0.00  0.00    +0.037 A 
ATOM     16  C   UNL     1       7.290 -11.641   2.617  0.00  0.00    +0.014 A 
ATOM     17  C   UNL     1       8.275 -12.589   2.438  0.00  0.00    +0.021 A 
ATOM     18  C   UNL     1       7.962 -13.937   2.504  0.00  0.00    +0.041 A 
ATOM     19  C   UNL     1       6.660 -14.340   2.750  0.00  0.00    +0.021 A 
ATOM     20  C   UNL     1       5.668 -13.401   2.936  0.00  0.00    +0.014 A 
ATOM     21 CL   UNL     1       9.207 -15.126   2.277  0.00  0.00    -0.084 Cl
ENDBRANCH  11  15
BRANCH   1  23
ATOM     22  N   UNL     1       3.628  -5.550   0.782  0.00  0.00    -0.315 N 
ATOM     23  C   UNL     1       4.214  -6.363   1.683  0.00  0.00    +0.218 C 
ATOM     24  O   UNL     1       4.740  -5.894   2.671  0.00  0.00    -0.275 OA
ATOM     25  H   UNL     1       3.207  -5.925  -0.007  0.00  0.00    +0.149 HD
BRANCH  22  26
ATOM     26  C   UNL     1       3.626  -4.101   0.995  0.00  0.00    +0.109 C 
BRANCH  26  27
ATOM     27  C   UNL     1       2.902  -3.416  -0.165  0.00  0.00    +0.054 C 
BRANCH  27  30
ATOM     28  C   UNL     1       3.935   0.220  -0.239  0.00  0.00    +0.124 A 
ATOM     29  C   UNL     1       3.934  -1.153  -0.440  0.00  0.00    +0.049 A 
ATOM     30  C   UNL     1       2.900  -1.925   0.054  0.00  0.00    -0.039 A 
ATOM     31  C   UNL     1       1.863  -1.331   0.748  0.00  0.00    +0.049 A 
ATOM     32  C   UNL     1       1.858   0.042   0.951  0.00  0.00    +0.124 A 
ATOM     33  C   UNL     1       2.898   0.817   0.462  0.00  0.00    +0.091 A 
BRANCH  28  35
ATOM     34  C   UNL     1       4.891   2.384  -0.477  0.00  0.00    +0.277 C 
ATOM     35  O   UNL     1       4.953   0.978  -0.726  0.00  0.00    -0.495 OA
ENDBRANCH  28  35
BRANCH  32  36
ATOM     36  O   UNL     1       0.838   0.625   1.633  0.00  0.00    -0.495 OA
ATOM     37  C   UNL     1       0.899   2.043   1.805  0.00  0.00    +0.277 C 
ENDBRANCH  32  36
ENDBRANCH  27  30
ENDBRANCH  26  27
ENDBRANCH  22  26
ENDBRANCH   1  23
TORSDOF 7
