REMARK  Name = ZINC20899112
REMARK  3 active torsions:
REMARK  status: ('A' for Active; 'I' for Inactive)
REMARK    1  A    between atoms: C_2  and  C_3
REMARK    2  A    between atoms: C_3  and  N_4
REMARK    3  A    between atoms: C_23  and  C_26
REMARK                            x       y       z     vdW  Elec       q    Type
REMARK                         _______ _______ _______ _____ _____    ______ ____
ROOT
ATOM      1  N   UNL     1       1.912   0.921   1.172  0.00  0.00    -0.218 N 
ATOM      2  C   UNL     1       0.772   0.202   1.234  0.00  0.00    +0.261 C 
ATOM      3  O   UNL     1       0.390  -0.267   2.291  0.00  0.00    -0.269 OA
ATOM      4  C   UNL     1       0.002  -0.004   0.002  0.00  0.00    +0.116 C 
ATOM      5  C   UNL     1       0.492   0.558  -1.179  0.00  0.00    +0.258 C 
ATOM      6  N   UNL     1       1.657   1.271  -1.140  0.00  0.00    -0.235 N 
ATOM      7  H   UNL     1       2.057   1.720  -2.061  0.00  0.00    +0.159 HD
ATOM      8  C   UNL     1       2.334   1.439   0.006  0.00  0.00    +0.316 C 
ATOM      9  O   UNL     1       3.366   2.081  -0.010  0.00  0.00    -0.252 OA
ATOM     10  O   UNL     1      -0.171   0.396  -2.340  0.00  0.00    -0.270 OA
ATOM     11  C   UNL     1      -1.242  -0.775   0.010  0.00  0.00    +0.027 C 
ATOM     12  N   UNL     1      -1.111  -2.009  -0.101  0.00  0.00    -0.316 N 
ATOM     13  C   UNL     1      -1.774  -3.152  -0.278  0.00  0.00    +0.045 A 
ATOM     14  C   UNL     1      -0.956  -4.285  -0.492  0.00  0.00    +0.024 A 
ATOM     15  C   UNL     1      -1.493  -5.525  -0.731  0.00  0.00    +0.002 A 
ATOM     16  C   UNL     1      -2.867  -5.686  -0.765  0.00  0.00    +0.001 A 
ATOM     17  C   UNL     1      -3.683  -4.599  -0.551  0.00  0.00    +0.016 A 
ATOM     18  C   UNL     1      -3.159  -3.326  -0.301  0.00  0.00    +0.030 A 
ATOM     19  S   UNL     1      -4.313  -2.039  -0.033  0.00  0.00    -0.115 S 
ATOM     20  C   UNL     1      -3.618  -0.526  -0.685  0.00  0.00    +0.087 C 
ATOM     21  C   UNL     1      -2.491   0.022   0.144  0.00  0.00    +0.071 C 
ATOM     22  H   UNL     1      -0.110  -2.463  -0.050  0.00  0.00    +0.152 HD
ENDROOT
BRANCH  20  23
ATOM     23  C   UNL     1      -4.708   0.511  -0.763  0.00  0.00    -0.030 A 
ATOM     24  C   UNL     1      -5.320   0.958   0.393  0.00  0.00    +0.008 A 
ATOM     25  C   UNL     1      -6.317   1.913   0.327  0.00  0.00    +0.050 A 
ATOM     26  C   UNL     1      -6.713   2.417  -0.901  0.00  0.00    +0.166 A 
ATOM     27  C   UNL     1      -6.100   1.964  -2.067  0.00  0.00    +0.167 A 
ATOM     28  C   UNL     1      -5.098   1.010  -1.992  0.00  0.00    +0.054 A 
ATOM     29  O   UNL     1      -6.661   2.606  -3.133  0.00  0.00    -0.453 OA
ATOM     30  C   UNL     1      -7.336   3.752  -2.580  0.00  0.00    +0.466 C 
ATOM     31  O   UNL     1      -7.658   3.344  -1.237  0.00  0.00    -0.453 OA
ENDBRANCH  20  23
BRANCH   1  32
ATOM     32  C   UNL     1       2.697   1.140   2.389  0.00  0.00    +0.145 C 
BRANCH  32  34
ATOM     33  C   UNL     1       4.975   0.308   2.675  0.00  0.00    +0.005 C 
ATOM     34  C   UNL     1       3.702   0.028   2.546  0.00  0.00    -0.015 C 
ENDBRANCH  32  34
ENDBRANCH   1  32
TORSDOF 3
