REMARK  Name = ZINC35892540
REMARK  5 active torsions:
REMARK  status: ('A' for Active; 'I' for Inactive)
REMARK    1  A    between atoms: C_1  and  C_2
REMARK    2  A    between atoms: C_2  and  C_3
REMARK    3  A    between atoms: C_3  and  C_4
REMARK    4  A    between atoms: C_24  and  C_26
REMARK    5  A    between atoms: C_29  and  N_33
REMARK                            x       y       z     vdW  Elec       q    Type
REMARK                         _______ _______ _______ _____ _____    ______ ____
ROOT
ATOM      1  C   UNL     1       0.857  -1.970  -1.441  0.00  0.00    +0.132 A 
ATOM      2  N   UNL     1       1.860  -2.614  -0.869  0.00  0.00    -0.217 NA
ATOM      3  C   UNL     1       1.836  -3.922  -0.671  0.00  0.00    +0.133 A 
ATOM      4  C   UNL     1       0.695  -4.663  -1.087  0.00  0.00    +0.051 A 
ATOM      5  C   UNL     1       0.451  -6.105  -0.971  0.00  0.00    -0.025 A 
ATOM      6  C   UNL     1      -0.722  -6.561  -1.453  0.00  0.00    -0.004 A 
ATOM      7  S   UNL     1      -1.563  -5.125  -2.069  0.00  0.00    -0.073 S 
ATOM      8  C   UNL     1      -0.331  -3.909  -1.687  0.00  0.00    +0.114 A 
ATOM      9  N   UNL     1      -0.228  -2.603  -1.842  0.00  0.00    -0.225 NA
ATOM     10  C   UNL     1      -1.217  -7.974  -1.480  0.00  0.00    +0.043 C 
ATOM     11  C   UNL     1      -1.040  -8.600  -0.091  0.00  0.00    +0.005 C 
ATOM     12  C   UNL     1       0.341  -9.243  -0.025  0.00  0.00    +0.001 C 
ATOM     13  C   UNL     1       1.330  -8.443  -0.870  0.00  0.00    +0.005 C 
ATOM     14  C   UNL     1       1.479  -7.028  -0.323  0.00  0.00    +0.037 C 
ATOM     15  N   UNL     1       2.906  -4.560  -0.070  0.00  0.00    -0.312 N 
ATOM     16  C   UNL     1       4.071  -4.976  -0.863  0.00  0.00    +0.125 C 
ATOM     17  C   UNL     1       5.332  -4.362  -0.241  0.00  0.00    +0.127 C 
ATOM     18  N   UNL     1       5.324  -4.636   1.203  0.00  0.00    -0.295 N 
ATOM     19  C   UNL     1       4.159  -4.220   1.996  0.00  0.00    +0.127 C 
ATOM     20  C   UNL     1       2.900  -4.828   1.375  0.00  0.00    +0.125 C 
ATOM     21  C   UNL     1       6.366  -5.257   1.789  0.00  0.00    +0.248 C 
ATOM     22  O   UNL     1       7.358  -5.525   1.139  0.00  0.00    -0.270 OA
ENDROOT
BRANCH  21  23
ATOM     23  C   UNL     1       6.303  -5.613   3.222  0.00  0.00    +0.055 A 
ATOM     24  C   UNL     1       6.019  -4.634   4.176  0.00  0.00    +0.017 A 
ATOM     25  C   UNL     1       5.961  -4.973   5.511  0.00  0.00    +0.033 A 
ATOM     26  C   UNL     1       6.185  -6.280   5.908  0.00  0.00    +0.128 A 
ATOM     27  C   UNL     1       6.468  -7.255   4.970  0.00  0.00    +0.053 A 
ATOM     28  C   UNL     1       6.523  -6.932   3.628  0.00  0.00    +0.055 A 
ATOM     29 CL   UNL     1       6.871  -8.158   2.450  0.00  0.00    -0.083 Cl
BRANCH  26  30
ATOM     30  N   UNL     1       6.122  -6.635   7.343  0.00  0.00    +0.056 N 
ATOM     31  O   UNL     1       5.876  -5.785   8.166  0.00  0.00    -0.126 OA
ATOM     32  O   UNL     1       6.317  -7.776   7.693  0.00  0.00    -0.126 OA
ENDBRANCH  26  30
ENDBRANCH  21  23
BRANCH   1  33
ATOM     33  C   UNL     1       0.954  -0.478  -1.633  0.00  0.00    +0.076 C 
BRANCH  33  35
ATOM     34  C   UNL     1       0.485   1.747  -0.598  0.00  0.00    +0.004 C 
ATOM     35  C   UNL     1       0.388   0.232  -0.402  0.00  0.00    +0.004 C 
ENDBRANCH  33  35
ENDBRANCH   1  33
TORSDOF 4
