REMARK  Name = ZINC22529243
REMARK  9 active torsions:
REMARK  status: ('A' for Active; 'I' for Inactive)
REMARK    1  A    between atoms: C_1  and  C_2
REMARK    2  A    between atoms: C_2  and  C_4
REMARK    3  A    between atoms: C_2  and  O_16
REMARK    4  A    between atoms: N_6  and  C_7
REMARK    5  A    between atoms: C_10  and  C_13
REMARK    6  A    between atoms: O_16  and  C_17
REMARK    7  A    between atoms: C_17  and  C_19
REMARK    8  A    between atoms: C_19  and  C_20
REMARK    9  A    between atoms: C_20  and  N_21
REMARK                            x       y       z     vdW  Elec       q    Type
REMARK                         _______ _______ _______ _____ _____    ______ ____
ROOT
ATOM      1  O   UNL     1       6.645   1.209  -0.154  0.00  0.00    -0.452 OA
ENDROOT
BRANCH   1   3
ATOM      2  C   UNL     1       8.829   1.597   0.852  0.00  0.00    +0.062 C 
ATOM      3  C   UNL     1       7.609   0.675   0.792  0.00  0.00    +0.259 C 
BRANCH   3   4
ATOM      4  C   UNL     1       8.040  -0.699   0.349  0.00  0.00    +0.258 C 
ATOM      5  O   UNL     1       7.650  -1.145  -0.709  0.00  0.00    -0.271 OA
ATOM      6  N   UNL     1       8.858  -1.433   1.129  0.00  0.00    -0.282 N 
ATOM      7  H   UNL     1       9.281  -0.997   2.046  0.00  0.00    +0.155 HD
BRANCH   6   8
ATOM      8  C   UNL     1       9.168  -2.745   0.774  0.00  0.00    +0.034 A 
ATOM      9  C   UNL     1       8.221  -3.532   0.126  0.00  0.00    +0.024 A 
ATOM     10  C   UNL     1       8.526  -4.826  -0.230  0.00  0.00    +0.015 A 
ATOM     11  C   UNL     1       9.785  -5.353   0.068  0.00  0.00    +0.037 A 
ATOM     12  C   UNL     1      10.733  -4.562   0.723  0.00  0.00    +0.015 A 
ATOM     13  C   UNL     1      10.423  -3.267   1.073  0.00  0.00    +0.024 A 
BRANCH  11  14
ATOM     14  C   UNL     1      10.114  -6.742  -0.308  0.00  0.00    +0.242 C 
ATOM     15  O   UNL     1      11.210  -7.199  -0.048  0.00  0.00    -0.270 OA
ATOM     16  N   UNL     1       9.199  -7.503  -0.940  0.00  0.00    -0.325 N 
ATOM     17  H   UNL     1       9.444  -8.538  -1.220  0.00  0.00    +0.145 HD
ATOM     18  H   UNL     1       8.207  -7.090  -1.175  0.00  0.00    +0.145 HD
ENDBRANCH  11  14
ENDBRANCH   6   8
ENDBRANCH   3   4
ENDBRANCH   1   3
BRANCH   1  19
ATOM     19  C   UNL     1       5.724   2.058   0.328  0.00  0.00    +0.309 C 
ATOM     20  O   UNL     1       5.724   2.346   1.502  0.00  0.00    -0.251 OA
BRANCH  19  21
ATOM     21  C   UNL     1       4.691   2.652  -0.594  0.00  0.00    +0.140 C 
BRANCH  21  22
ATOM     22  C   UNL     1       3.770   3.579   0.202  0.00  0.00    +0.122 C 
BRANCH  22  23
ATOM     23  N   UNL     1       2.765   4.157  -0.695  0.00  0.00    -0.298 N 
ATOM     24  C   UNL     1       1.553   3.484  -0.880  0.00  0.00    +0.048 A 
ATOM     25  C   UNL     1       1.523   2.100  -0.938  0.00  0.00    +0.024 A 
ATOM     26  C   UNL     1       0.320   1.441  -1.124  0.00  0.00    +0.002 A 
ATOM     27  C   UNL     1      -0.856   2.155  -1.258  0.00  0.00    +0.001 A 
ATOM     28  C   UNL     1      -0.838   3.539  -1.196  0.00  0.00    +0.017 A 
ATOM     29  C   UNL     1       0.360   4.201  -1.010  0.00  0.00    +0.034 A 
ATOM     30  S   UNL     1       0.416   5.964  -0.932  0.00  0.00    -0.086 S 
ATOM     31  C   UNL     1       2.040   6.317  -1.528  0.00  0.00    +0.034 A 
ATOM     32  C   UNL     1       3.046   5.365  -1.341  0.00  0.00    +0.048 A 
ATOM     33  C   UNL     1       4.326   5.630  -1.804  0.00  0.00    +0.024 A 
ATOM     34  C   UNL     1       4.596   6.827  -2.444  0.00  0.00    +0.002 A 
ATOM     35  C   UNL     1       3.597   7.765  -2.626  0.00  0.00    +0.001 A 
ATOM     36  C   UNL     1       2.315   7.511  -2.167  0.00  0.00    +0.017 A 
ENDBRANCH  22  23
ENDBRANCH  21  22
ENDBRANCH  19  21
ENDBRANCH   1  19
TORSDOF 8
