REMARK  Name = ZINC24738391
REMARK  4 active torsions:
REMARK  status: ('A' for Active; 'I' for Inactive)
REMARK    1  A    between atoms: C_2  and  C_9
REMARK    2  A    between atoms: C_9  and  C_11
REMARK    3  A    between atoms: C_9  and  N_21
REMARK    4  A    between atoms: C_16  and  O_17
REMARK                            x       y       z     vdW  Elec       q    Type
REMARK                         _______ _______ _______ _____ _____    ______ ____
ROOT
ATOM      1  C   UNL     1      -1.451   3.568   2.449  0.00  0.00    +0.121 C 
ENDROOT
BRANCH   1   2
ATOM      2  C   UNL     1      -0.761   2.950   3.637  0.00  0.00    +0.019 A 
ATOM      3  C   UNL     1       0.063   1.853   3.464  0.00  0.00    +0.058 A 
ATOM      4  C   UNL     1       0.703   1.286   4.553  0.00  0.00    +0.167 A 
ATOM      5  C   UNL     1       0.507   1.815   5.827  0.00  0.00    +0.170 A 
ATOM      6  C   UNL     1      -0.323   2.910   5.999  0.00  0.00    +0.095 A 
ATOM      7  C   UNL     1      -0.957   3.478   4.904  0.00  0.00    +0.126 A 
ATOM      8  O   UNL     1       1.235   1.083   6.720  0.00  0.00    -0.452 OA
ATOM      9  C   UNL     1       2.196   0.358   5.931  0.00  0.00    +0.466 C 
ATOM     10  O   UNL     1       1.554   0.222   4.649  0.00  0.00    -0.453 OA
BRANCH   7  11
ATOM     11  O   UNL     1      -1.771   4.554   5.073  0.00  0.00    -0.506 OA
ATOM     12  H   UNL     1      -1.927   4.973   6.078  0.00  0.00    +0.292 HD
ENDBRANCH   7  11
ENDBRANCH   1   2
BRANCH   1  14
ATOM     13  C   UNL     1      -3.944   3.706   2.627  0.00  0.00    +0.044 A 
ATOM     14  C   UNL     1      -2.824   2.966   2.296  0.00  0.00    -0.020 A 
ATOM     15  C   UNL     1      -2.963   1.675   1.821  0.00  0.00    +0.044 A 
ATOM     16  C   UNL     1      -4.224   1.119   1.685  0.00  0.00    +0.126 A 
ATOM     17  C   UNL     1      -5.346   1.860   2.016  0.00  0.00    +0.076 A 
ATOM     18  C   UNL     1      -5.206   3.154   2.486  0.00  0.00    +0.126 A 
ATOM     19  F   UNL     1      -6.300   3.878   2.809  0.00  0.00    -0.205 F 
ATOM     20  F   UNL     1      -4.360  -0.144   1.226  0.00  0.00    -0.205 F 
ENDBRANCH   1  14
BRANCH   1  21
ATOM     21  N   UNL     1      -0.665   3.308   1.236  0.00  0.00    -0.287 NA
ATOM     22  C   UNL     1      -1.394   3.737   0.033  0.00  0.00    +0.113 C 
ATOM     23  C   UNL     1      -0.566   3.395  -1.208  0.00  0.00    +0.175 C 
ATOM     24  O   UNL     1       0.720   4.012  -1.103  0.00  0.00    -0.377 OA
ATOM     25  C   UNL     1       1.457   3.615   0.056  0.00  0.00    +0.175 C 
ATOM     26  C   UNL     1       0.650   3.960   1.310  0.00  0.00    +0.113 C 
ENDBRANCH   1  21
TORSDOF 4
