REMARK  Name = ZINC37289726
REMARK  6 active torsions:
REMARK  status: ('A' for Active; 'I' for Inactive)
REMARK    1  A    between atoms: C_3  and  O_11
REMARK    2  A    between atoms: C_4  and  C_8
REMARK    3  A    between atoms: C_6  and  N_7
REMARK    4  A    between atoms: O_11  and  C_12
REMARK    5  A    between atoms: C_12  and  C_13
REMARK    6  A    between atoms: N_15  and  C_16
REMARK                            x       y       z     vdW  Elec       q    Type
REMARK                         _______ _______ _______ _____ _____    ______ ____
ROOT
ATOM      1  C   UNL     1      -0.017   1.387   0.010  0.00  0.00    +0.026 A 
ATOM      2  C   UNL     1       1.165   2.101   0.002  0.00  0.00    +0.048 A 
ATOM      3  C   UNL     1       2.381   1.435  -0.013  0.00  0.00    +0.135 A 
ATOM      4  C   UNL     1       2.409   0.033  -0.021  0.00  0.00    +0.106 A 
ATOM      5  C   UNL     1       1.208  -0.683  -0.013  0.00  0.00    +0.041 A 
ATOM      6  C   UNL     1       0.002  -0.004   0.002  0.00  0.00    +0.026 A 
ENDROOT
BRANCH   6   7
ATOM      7  N   UNL     1      -1.202  -0.719   0.010  0.00  0.00    -0.358 N 
ATOM      8  H   UNL     1      -2.047  -0.244   0.020  0.00  0.00    +0.142 HD
ATOM      9  H   UNL     1      -1.190  -1.688   0.004  0.00  0.00    +0.142 HD
ENDBRANCH   6   7
BRANCH   4  10
ATOM     10  C   UNL     1       3.696  -0.681  -0.038  0.00  0.00    +0.390 C 
ATOM     11  O   UNL     1       3.716  -1.905  -0.045  0.00  0.00    -0.240 OA
ATOM     12  O   UNL     1       4.745  -0.052  -0.046  0.00  0.00    -0.240 OA
ENDBRANCH   4  10
BRANCH   3  13
ATOM     13  O   UNL     1       3.541   2.139  -0.022  0.00  0.00    -0.482 OA
BRANCH  13  14
ATOM     14  C   UNL     1       3.436   3.564  -0.013  0.00  0.00    +0.324 C 
BRANCH  14  15
ATOM     15  C   UNL     1       4.816   4.170  -0.024  0.00  0.00    +0.251 C 
ATOM     16  O   UNL     1       5.793   3.452  -0.038  0.00  0.00    -0.272 OA
ATOM     17  N   UNL     1       4.964   5.510  -0.019  0.00  0.00    -0.310 N 
ATOM     18  H   UNL     1       4.182   6.084  -0.008  0.00  0.00    +0.149 HD
BRANCH  17  19
ATOM     19  C   UNL     1       6.305   6.098  -0.030  0.00  0.00    +0.073 C 
ATOM     20  C   UNL     1       6.837   6.181   1.403  0.00  0.00    +0.022 C 
ATOM     21  C   UNL     1       8.238   6.796   1.391  0.00  0.00    +0.002 C 
ATOM     22  C   UNL     1       8.173   8.201   0.789  0.00  0.00    +0.000 C 
ATOM     23  C   UNL     1       7.641   8.119  -0.643  0.00  0.00    +0.002 C 
ATOM     24  C   UNL     1       6.240   7.503  -0.632  0.00  0.00    +0.022 C 
ENDBRANCH  17  19
ENDBRANCH  14  15
ENDBRANCH  13  14
ENDBRANCH   3  13
TORSDOF 6
