REMARK  Name = ZINC65648333
REMARK  6 active torsions:
REMARK  status: ('A' for Active; 'I' for Inactive)
REMARK    1  A    between atoms: C_1  and  C_2
REMARK    2  A    between atoms: C_4  and  C_29
REMARK    3  A    between atoms: C_6  and  O_8
REMARK    4  A    between atoms: O_8  and  C_9
REMARK    5  A    between atoms: C_9  and  C_11
REMARK    6  A    between atoms: C_15  and  N_17
REMARK                            x       y       z     vdW  Elec       q    Type
REMARK                         _______ _______ _______ _____ _____    ______ ____
ROOT
ATOM      1  C   UNL     1      -0.203  -2.877   4.895  0.00  0.00    +0.061 A 
ATOM      2  C   UNL     1       0.317  -4.172   4.830  0.00  0.00    +0.015 A 
ATOM      3  C   UNL     1       0.922  -4.729   5.938  0.00  0.00    +0.003 A 
ATOM      4  C   UNL     1       1.016  -4.009   7.115  0.00  0.00    +0.025 A 
ATOM      5  C   UNL     1       0.502  -2.721   7.190  0.00  0.00    +0.057 A 
ATOM      6  C   UNL     1      -0.103  -2.150   6.081  0.00  0.00    +0.040 A 
ENDROOT
BRANCH   5   7
ATOM      7  N   UNL     1       0.600  -1.997   8.384  0.00  0.00    -0.188 N 
ATOM      8  C   UNL     1       0.225  -2.566   9.549  0.00  0.00    +0.240 C 
ATOM      9  O   UNL     1      -0.244  -3.684   9.558  0.00  0.00    -0.273 OA
ATOM     10  C   UNL     1       0.395  -1.806  10.836  0.00  0.00    +0.093 C 
ATOM     11  C   UNL     1       0.551  -2.775  12.010  0.00  0.00    +0.040 C 
ATOM     12  C   UNL     1       0.971  -2.017  13.237  0.00  0.00    -0.030 C 
ATOM     13  C   UNL     1       1.473  -0.823  13.218  0.00  0.00    -0.030 C 
ATOM     14  C   UNL     1       1.701  -0.025  11.965  0.00  0.00    +0.040 C 
ATOM     15  C   UNL     1       1.671  -0.955  10.751  0.00  0.00    +0.092 C 
ATOM     16  C   UNL     1       1.639  -0.152   9.478  0.00  0.00    +0.234 C 
ATOM     17  O   UNL     1       2.109   0.966   9.451  0.00  0.00    -0.274 OA
ATOM     18  N   UNL     1       1.091  -0.685   8.369  0.00  0.00    -0.227 N 
ATOM     19  H   UNL     1       1.035  -0.156   7.557  0.00  0.00    +0.173 HD
ENDBRANCH   5   7
BRANCH   1  20
ATOM     20  C   UNL     1      -0.851  -2.279   3.711  0.00  0.00    +0.344 C 
ATOM     21  O   UNL     1      -1.299  -1.151   3.768  0.00  0.00    -0.245 OA
BRANCH  20  22
ATOM     22  O   UNL     1      -0.947  -2.983   2.566  0.00  0.00    -0.422 OA
BRANCH  22  28
ATOM     23  C   UNL     1      -4.608  -2.380  -0.605  0.00  0.00    +0.044 C 
ATOM     24  C   UNL     1      -3.229  -2.035  -0.104  0.00  0.00    -0.047 A 
ATOM     25  C   UNL     1      -2.474  -1.080  -0.760  0.00  0.00    +0.007 A 
ATOM     26  C   UNL     1      -1.209  -0.761  -0.303  0.00  0.00    -0.047 A 
ATOM     27  C   UNL     1      -0.695  -1.397   0.811  0.00  0.00    +0.049 A 
ATOM     28  C   UNL     1      -1.450  -2.356   1.471  0.00  0.00    +0.132 A 
ATOM     29  C   UNL     1      -2.722  -2.670   1.013  0.00  0.00    +0.049 A 
ATOM     30  C   UNL     1      -0.390   0.280  -1.020  0.00  0.00    +0.044 C 
ENDBRANCH  22  28
ENDBRANCH  20  22
ENDBRANCH   1  20
TORSDOF 4
