REMARK  Name = ZINC13687603
REMARK  10 active torsions:
REMARK  status: ('A' for Active; 'I' for Inactive)
REMARK    1  A    between atoms: C_1  and  C_2
REMARK    2  A    between atoms: C_2  and  C_3
REMARK    3  A    between atoms: C_2  and  C_4
REMARK    4  A    between atoms: C_2  and  N_70
REMARK    5  A    between atoms: N_6  and  C_7
REMARK    6  A    between atoms: C_7  and  C_9
REMARK    7  A    between atoms: C_7  and  C_18
REMARK    8  A    between atoms: C_9  and  C_10
REMARK    9  A    between atoms: C_10  and  C_11
REMARK   10  A    between atoms: C_11  and  C_12
REMARK                            x       y       z     vdW  Elec       q    Type
REMARK                         _______ _______ _______ _____ _____    ______ ____
ROOT
ATOM      1  C   UNL     1      -2.449   1.117   0.020  0.00  0.00    +0.159 C 
ENDROOT
BRANCH   1   2
ATOM      2  C   UNL     1      -2.523   0.256  -1.215  0.00  0.00    +0.236 C 
ATOM      3  O   UNL     1      -1.511  -0.022  -1.822  0.00  0.00    -0.274 OA
ATOM      4  N   UNL     1      -3.715  -0.204  -1.645  0.00  0.00    -0.300 N 
ATOM      5  C   UNL     1      -4.949   0.119  -0.917  0.00  0.00    +0.109 C 
ATOM      6  C   UNL     1      -5.952   0.734  -1.905  0.00  0.00    +0.032 C 
ATOM      7  C   UNL     1      -6.151  -0.225  -3.083  0.00  0.00    +0.020 C 
ATOM      8  C   UNL     1      -4.817  -0.422  -3.811  0.00  0.00    +0.032 C 
ATOM      9  C   UNL     1      -3.802  -1.044  -2.847  0.00  0.00    +0.109 C 
ATOM     10  C   UNL     1      -6.617  -1.593  -2.532  0.00  0.00    +0.183 C 
ATOM     11  S   UNL     1      -7.712  -2.121  -3.914  0.00  0.00    -0.002 S 
ATOM     12  O   UNL     1      -8.949  -2.618  -3.424  0.00  0.00    -0.169 OA
ATOM     13  O   UNL     1      -6.976  -2.814  -4.912  0.00  0.00    -0.169 OA
ATOM     14  C   UNL     1      -8.070  -0.518  -4.600  0.00  0.00    +0.092 A 
ATOM     15  C   UNL     1      -7.158   0.363  -4.042  0.00  0.00    -0.015 A 
ATOM     16  C   UNL     1      -7.258   1.707  -4.418  0.00  0.00    +0.006 A 
ATOM     17  C   UNL     1      -8.216   2.126  -5.313  0.00  0.00    +0.000 A 
ATOM     18  C   UNL     1      -9.107   1.225  -5.864  0.00  0.00    +0.002 A 
ATOM     19  C   UNL     1      -9.025  -0.107  -5.499  0.00  0.00    +0.027 A 
ENDBRANCH   1   2
BRANCH   1  22
ATOM     20  C   UNL     1      -0.014   1.209   0.009  0.00  0.00    +0.202 C 
ATOM     21  O   UNL     1       0.002  -0.004   0.002  0.00  0.00    -0.277 OA
ATOM     22  N   UNL     1      -1.191   1.867   0.018  0.00  0.00    -0.305 N 
ATOM     23  H   UNL     1      -1.204   2.837   0.023  0.00  0.00    +0.149 HD
BRANCH  20  25
ATOM     24  C   UNL     1       1.668   2.341   1.436  0.00  0.00    -0.001 C 
ATOM     25  C   UNL     1       1.280   1.980   0.001  0.00  0.00    +0.001 C 
ATOM     26  C   UNL     1       2.382   1.121  -0.624  0.00  0.00    -0.001 C 
BRANCH  25  29
ATOM     27  H   UNL     1       0.348   3.764  -0.431  0.00  0.00    -0.089 HD
ATOM     28  H   UNL     1       1.968   3.744  -0.806  0.00  0.00    -0.089 HD
ATOM     29  N   UNL     1       1.107   3.199  -0.808  0.00  0.00    +0.387 N 
ATOM     30  H   UNL     1       0.881   2.934  -1.774  0.00  0.00    -0.089 HD
ENDBRANCH  25  29
ENDBRANCH  20  25
ENDBRANCH   1  22
BRANCH   1  31
ATOM     31  C   UNL     1      -2.512   0.230   1.264  0.00  0.00    +0.032 C 
BRANCH  31  32
ATOM     32  C   UNL     1      -2.563   1.109   2.516  0.00  0.00    +0.007 C 
BRANCH  32  33
ATOM     33  C   UNL     1      -2.626   0.221   3.760  0.00  0.00    +0.035 C 
BRANCH  33  34
ATOM     34  C   UNL     1      -2.676   1.087   4.993  0.00  0.00    -0.047 A 
ATOM     35  C   UNL     1      -1.503   1.471   5.616  0.00  0.00    +0.003 A 
ATOM     36  C   UNL     1      -1.549   2.270   6.743  0.00  0.00    +0.000 A 
ATOM     37  C   UNL     1      -2.768   2.676   7.254  0.00  0.00    +0.000 A 
ATOM     38  C   UNL     1      -3.941   2.287   6.634  0.00  0.00    +0.000 A 
ATOM     39  C   UNL     1      -3.895   1.493   5.503  0.00  0.00    +0.003 A 
ENDBRANCH  33  34
ENDBRANCH  32  33
ENDBRANCH  31  32
ENDBRANCH   1  31
TORSDOF 8
