REMARK  Name = ZINC45841281
REMARK  6 active torsions:
REMARK  status: ('A' for Active; 'I' for Inactive)
REMARK    1  A    between atoms: C_4  and  N_7
REMARK    2  A    between atoms: C_9  and  C_12
REMARK    3  A    between atoms: C_12  and  N_13
REMARK    4  A    between atoms: C_14  and  C_16
REMARK    5  A    between atoms: C_16  and  N_17
REMARK    6  A    between atoms: C_20  and  N_23
REMARK                            x       y       z     vdW  Elec       q    Type
REMARK                         _______ _______ _______ _____ _____    ______ ____
ROOT
ATOM      1  N   UNL     1       7.344  -7.007  -3.176  0.00  0.00    +0.386 N 
ATOM      2  C   UNL     1       6.425  -7.987  -2.584  0.00  0.00    -0.076 C 
ATOM      3  C   UNL     1       7.103  -9.357  -2.526  0.00  0.00    +0.006 C 
ATOM      4  C   UNL     1       7.476  -9.797  -3.945  0.00  0.00    +0.089 C 
ATOM      5  C   UNL     1       8.375  -8.732  -4.579  0.00  0.00    +0.006 C 
ATOM      6  C   UNL     1       7.650  -7.384  -4.561  0.00  0.00    -0.076 C 
ATOM      7  H   UNL     1       8.198  -6.983  -2.639  0.00  0.00    -0.081 HD
ENDROOT
BRANCH   4   8
ATOM      8  N   UNL     1       8.194 -11.073  -3.889  0.00  0.00    -0.289 N 
ATOM      9  C   UNL     1       7.795 -12.260  -4.500  0.00  0.00    +0.070 A 
ATOM     10  C   UNL     1       6.705 -12.607  -5.284  0.00  0.00    +0.028 A 
ATOM     11  C   UNL     1       6.581 -13.899  -5.756  0.00  0.00    +0.002 A 
ATOM     12  C   UNL     1       7.540 -14.849  -5.450  0.00  0.00    +0.002 A 
ATOM     13  C   UNL     1       8.630 -14.512  -4.670  0.00  0.00    +0.028 A 
ATOM     14  C   UNL     1       8.763 -13.218  -4.192  0.00  0.00    +0.067 A 
ATOM     15  N   UNL     1       9.720 -12.583  -3.404  0.00  0.00    -0.306 N 
ATOM     16  H   UNL     1      10.516 -12.997  -3.035  0.00  0.00    +0.170 HD
ATOM     17  C   UNL     1       9.354 -11.297  -3.244  0.00  0.00    +0.328 A 
ATOM     18  O   UNL     1       9.976 -10.465  -2.611  0.00  0.00    -0.247 OA
ENDBRANCH   4   8
BRANCH   1  19
ATOM     19  C   UNL     1       6.718  -5.678  -3.159  0.00  0.00    +0.019 C 
BRANCH  19  21
ATOM     20  N   UNL     1       5.954  -4.041  -1.470  0.00  0.00    -0.313 N 
ATOM     21  C   UNL     1       6.516  -5.237  -1.732  0.00  0.00    +0.197 C 
ATOM     22  O   UNL     1       6.859  -5.958  -0.820  0.00  0.00    -0.278 OA
ATOM     23  H   UNL     1       5.679  -3.463  -2.200  0.00  0.00    +0.149 HD
BRANCH  20  24
ATOM     24  C   UNL     1       5.757  -3.612  -0.083  0.00  0.00    +0.142 C 
BRANCH  24  27
ATOM     25  N   UNL     1       3.624  -0.652  -0.037  0.00  0.00    -0.240 N 
ATOM     26  C   UNL     1       3.786  -1.994  -0.052  0.00  0.00    +0.119 A 
ATOM     27  C   UNL     1       5.115  -2.248  -0.065  0.00  0.00    +0.007 A 
ATOM     28  C   UNL     1       5.788  -1.022  -0.059  0.00  0.00    +0.140 A 
ATOM     29  N   UNL     1       4.895  -0.065  -0.048  0.00  0.00    -0.174 NA
BRANCH  25  33
ATOM     30  C   UNL     1      -0.017   1.379   0.010  0.00  0.00    +0.000 A 
ATOM     31  C   UNL     1       1.170   2.089   0.002  0.00  0.00    +0.002 A 
ATOM     32  C   UNL     1       2.377   1.419  -0.013  0.00  0.00    +0.028 A 
ATOM     33  C   UNL     1       2.399   0.031  -0.021  0.00  0.00    +0.065 A 
ATOM     34  C   UNL     1       1.207  -0.680  -0.013  0.00  0.00    +0.028 A 
ATOM     35  C   UNL     1       0.002  -0.004   0.002  0.00  0.00    +0.002 A 
ENDBRANCH  25  33
ENDBRANCH  24  27
ENDBRANCH  20  24
ENDBRANCH  19  21
ENDBRANCH   1  19
TORSDOF 6
