REMARK  Name = ZINC63234420
REMARK  8 active torsions:
REMARK  status: ('A' for Active; 'I' for Inactive)
REMARK    1  A    between atoms: C_7  and  C_10
REMARK    2  A    between atoms: C_10  and  C_12
REMARK    3  A    between atoms: C_10  and  C_28
REMARK    4  A    between atoms: C_12  and  N_13
REMARK    5  A    between atoms: C_14  and  C_16
REMARK    6  A    between atoms: C_17  and  C_18
REMARK    7  A    between atoms: C_21  and  O_24
REMARK    8  A    between atoms: O_24  and  C_25
REMARK                            x       y       z     vdW  Elec       q    Type
REMARK                         _______ _______ _______ _____ _____    ______ ____
ROOT
ATOM      1  C   UNL     1       0.691  -3.186  -0.024  0.00  0.00    +0.066 C 
ENDROOT
BRANCH   1   8
ATOM      2  C   UNL     1      -0.016   1.348   0.009  0.00  0.00    +0.001 A 
ATOM      3  C   UNL     1       1.166   2.101   0.002  0.00  0.00    +0.002 A 
ATOM      4  C   UNL     1       2.391   1.535  -0.013  0.00  0.00    +0.026 A 
ATOM      5  C   UNL     1       2.529   0.120  -0.022  0.00  0.00    +0.043 A 
ATOM      6  N   UNL     1       3.587  -0.654  -0.037  0.00  0.00    -0.380 N 
ATOM      7  C   UNL     1       3.143  -2.053  -0.041  0.00  0.00    +0.145 C 
ATOM      8  C   UNL     1       1.631  -2.008  -0.025  0.00  0.00    -0.033 C 
ATOM      9  C   UNL     1       1.295  -0.698  -0.014  0.00  0.00    -0.000 A 
ATOM     10  C   UNL     1       0.002  -0.004   0.002  0.00  0.00    +0.010 A 
ATOM     11  H   UNL     1       4.509  -0.353  -0.045  0.00  0.00    +0.160 HD
ENDBRANCH   1   8
BRANCH   1  12
ATOM     12  C   UNL     1       0.920  -4.014  -1.262  0.00  0.00    -0.020 A 
ATOM     13  C   UNL     1       2.158  -4.583  -1.493  0.00  0.00    +0.006 A 
ATOM     14  C   UNL     1       2.369  -5.342  -2.629  0.00  0.00    +0.000 A 
ATOM     15  C   UNL     1       1.341  -5.534  -3.534  0.00  0.00    +0.001 A 
ATOM     16  C   UNL     1       0.103  -4.965  -3.303  0.00  0.00    +0.020 A 
ATOM     17  C   UNL     1      -0.110  -4.210  -2.164  0.00  0.00    +0.045 A 
ATOM     18 CL   UNL     1      -1.668  -3.501  -1.871  0.00  0.00    -0.083 Cl
ENDBRANCH   1  12
BRANCH   1  19
ATOM     19  C   UNL     1       0.947  -4.042   1.218  0.00  0.00    +0.117 C 
BRANCH  19  20
ATOM     20  N   UNL     1      -0.044  -5.118   1.282  0.00  0.00    -0.311 N 
ATOM     21  C   UNL     1      -0.013  -6.003   2.298  0.00  0.00    +0.237 C 
ATOM     22  O   UNL     1       0.839  -5.908   3.162  0.00  0.00    -0.271 OA
ATOM     23  H   UNL     1      -0.723  -5.194   0.593  0.00  0.00    +0.149 HD
BRANCH  21  24
ATOM     24  C   UNL     1      -1.004  -7.078   2.362  0.00  0.00    +0.068 C 
ATOM     25  C   UNL     1      -0.973  -7.964   3.380  0.00  0.00    +0.013 C 
BRANCH  25  26
ATOM     26  C   UNL     1      -1.968  -9.044   3.445  0.00  0.00    -0.025 A 
ATOM     27  C   UNL     1      -2.945  -9.159   2.449  0.00  0.00    +0.011 A 
ATOM     28  C   UNL     1      -3.875 -10.172   2.514  0.00  0.00    +0.046 A 
ATOM     29  C   UNL     1      -3.844 -11.080   3.567  0.00  0.00    +0.127 A 
ATOM     30  C   UNL     1      -2.876 -10.970   4.558  0.00  0.00    +0.046 A 
ATOM     31  C   UNL     1      -1.938  -9.964   4.499  0.00  0.00    +0.011 A 
BRANCH  29  32
ATOM     32  O   UNL     1      -4.763 -12.077   3.626  0.00  0.00    -0.434 OA
BRANCH  32  33
ATOM     33  C   UNL     1      -4.675 -12.976   4.734  0.00  0.00    +0.541 C 
ATOM     34  F   UNL     1      -3.429 -13.613   4.720  0.00  0.00    -0.166 F 
ATOM     35  F   UNL     1      -4.819 -12.260   5.928  0.00  0.00    -0.166 F 
ENDBRANCH  32  33
ENDBRANCH  29  32
ENDBRANCH  25  26
ENDBRANCH  21  24
ENDBRANCH  19  20
ENDBRANCH   1  19
TORSDOF 8
