REMARK  Name = ZINC14275085
REMARK  9 active torsions:
REMARK  status: ('A' for Active; 'I' for Inactive)
REMARK    1  A    between atoms: C_1  and  C_2
REMARK    2  A    between atoms: C_2  and  C_3
REMARK    3  A    between atoms: C_10  and  C_12
REMARK    4  A    between atoms: C_15  and  N_19
REMARK    5  A    between atoms: C_17  and  O_18
REMARK    6  A    between atoms: N_19  and  C_20
REMARK    7  A    between atoms: C_20  and  N_22
REMARK    8  A    between atoms: C_23  and  C_25
REMARK    9  A    between atoms: C_26  and  C_27
REMARK                            x       y       z     vdW  Elec       q    Type
REMARK                         _______ _______ _______ _____ _____    ______ ____
ROOT
ATOM      1  C   UNL     1      -6.104   2.738  -0.118  0.00  0.00    +0.078 A 
ATOM      2  C   UNL     1      -4.947   3.521  -0.146  0.00  0.00    +0.018 A 
ATOM      3  C   UNL     1      -3.709   2.921  -0.100  0.00  0.00    +0.024 A 
ATOM      4  C   UNL     1      -3.604   1.535  -0.027  0.00  0.00    +0.036 A 
ATOM      5  C   UNL     1      -4.748   0.748  -0.005  0.00  0.00    +0.069 A 
ATOM      6  C   UNL     1      -5.997   1.342  -0.044  0.00  0.00    +0.131 A 
ENDROOT
BRANCH   1  14
ATOM      7  C   UNL     1     -11.138   5.940  -0.343  0.00  0.00    -0.045 A 
ATOM      8  C   UNL     1     -11.746   4.694  -0.285  0.00  0.00    +0.007 A 
ATOM      9  C   UNL     1     -10.985   3.546  -0.216  0.00  0.00    +0.049 A 
ATOM     10  C   UNL     1      -9.601   3.634  -0.205  0.00  0.00    +0.156 A 
ATOM     11  C   UNL     1      -8.981   4.892  -0.264  0.00  0.00    +0.110 A 
ATOM     12  C   UNL     1      -9.765   6.046  -0.333  0.00  0.00    +0.035 A 
ATOM     13  N   UNL     1      -7.642   4.669  -0.236  0.00  0.00    -0.209 NA
ATOM     14  C   UNL     1      -7.432   3.377  -0.167  0.00  0.00    +0.232 A 
ATOM     15  O   UNL     1      -8.607   2.719  -0.151  0.00  0.00    -0.435 OA
BRANCH   7  17
ATOM     16  C   UNL     1     -12.255   7.529  -1.884  0.00  0.00    +0.009 C 
ATOM     17  C   UNL     1     -11.985   7.184  -0.418  0.00  0.00    +0.032 C 
ENDBRANCH   7  17
ENDBRANCH   1  14
BRANCH   6  18
ATOM     18  O   UNL     1      -7.117   0.574  -0.017  0.00  0.00    -0.506 OA
ATOM     19  H   UNL     1      -7.431   0.306  -0.891  0.00  0.00    +0.292 HD
ENDBRANCH   6  18
BRANCH   4  20
ATOM     20  N   UNL     1      -2.345   0.934   0.018  0.00  0.00    -0.296 N 
ATOM     21  H   UNL     1      -1.632   1.259  -0.553  0.00  0.00    +0.154 HD
BRANCH  20  22
ATOM     22  C   UNL     1      -2.121  -0.098   0.856  0.00  0.00    +0.141 C 
ATOM     23  S   UNL     1      -3.334  -0.580   1.963  0.00  0.00    -0.018 S 
BRANCH  22  24
ATOM     24  N   UNL     1      -0.942  -0.750   0.821  0.00  0.00    -0.264 N 
ATOM     25  C   UNL     1      -0.716  -1.779   1.662  0.00  0.00    +0.242 C 
ATOM     26  O   UNL     1      -1.578  -2.122   2.449  0.00  0.00    -0.270 OA
ATOM     27  H   UNL     1      -0.255  -0.477   0.193  0.00  0.00    +0.157 HD
BRANCH  25  28
ATOM     28  C   UNL     1       0.565  -2.483   1.628  0.00  0.00    +0.068 C 
ATOM     29  C   UNL     1       0.792  -3.513   2.470  0.00  0.00    +0.014 C 
BRANCH  29  30
ATOM     30  C   UNL     1       2.080  -4.221   2.436  0.00  0.00    -0.006 A 
ATOM     31  C   UNL     1       3.072  -3.833   1.528  0.00  0.00    +0.011 A 
ATOM     32  C   UNL     1       4.279  -4.497   1.506  0.00  0.00    +0.020 A 
ATOM     33  C   UNL     1       4.509  -5.555   2.372  0.00  0.00    +0.042 A 
ATOM     34  C   UNL     1       3.531  -5.948   3.270  0.00  0.00    +0.040 A 
ATOM     35  C   UNL     1       2.319  -5.289   3.308  0.00  0.00    +0.049 A 
ATOM     36 CL   UNL     1       1.094  -5.785   4.434  0.00  0.00    -0.083 Cl
ATOM     37 CL   UNL     1       6.030  -6.389   2.331  0.00  0.00    -0.083 Cl
ENDBRANCH  29  30
ENDBRANCH  25  28
ENDBRANCH  22  24
ENDBRANCH  20  22
ENDBRANCH   4  20
TORSDOF 8
