REMARK  Name = ZINC39695877
REMARK  8 active torsions:
REMARK  status: ('A' for Active; 'I' for Inactive)
REMARK    1  A    between atoms: C_1  and  C_2
REMARK    2  A    between atoms: C_2  and  C_3
REMARK    3  A    between atoms: C_6  and  C_9
REMARK    4  A    between atoms: C_9  and  C_11
REMARK    5  A    between atoms: C_9  and  N_12
REMARK    6  A    between atoms: C_13  and  C_15
REMARK    7  A    between atoms: C_26  and  C_28
REMARK    8  A    between atoms: C_31  and  C_34
REMARK                            x       y       z     vdW  Elec       q    Type
REMARK                         _______ _______ _______ _____ _____    ______ ____
ROOT
ATOM      1  C   UNL     1       6.449   0.019  -6.036  0.00  0.00    +0.100 C 
ATOM      2  C   UNL     1       7.291  -0.954  -5.180  0.00  0.00    +0.121 C 
ATOM      3  N   UNL     1       7.898  -1.885  -6.161  0.00  0.00    -0.296 N 
ATOM      4  C   UNL     1       8.260  -1.024  -7.311  0.00  0.00    +0.115 C 
ATOM      5  C   UNL     1       7.091  -0.026  -7.433  0.00  0.00    -0.004 C 
ATOM      6  C   UNL     1       7.612   1.354  -7.820  0.00  0.00    -0.010 C 
ATOM      7  C   UNL     1       8.192   1.297  -9.236  0.00  0.00    -0.082 C 
ATOM      8  N   UNL     1       7.152   0.862 -10.176  0.00  0.00    +0.379 N 
ATOM      9  C   UNL     1       6.723  -0.503  -9.852  0.00  0.00    -0.082 C 
ATOM     10  C   UNL     1       6.080  -0.522  -8.462  0.00  0.00    -0.010 C 
ATOM     11  C   UNL     1       8.079  -3.215  -6.034  0.00  0.00    +0.247 C 
ATOM     12  O   UNL     1       7.614  -3.804  -5.078  0.00  0.00    -0.270 OA
ATOM     13  H   UNL     1       6.361   1.486 -10.113  0.00  0.00    -0.086 HD
ATOM     14  H   UNL     1       7.519   0.884 -11.116  0.00  0.00    -0.086 HD
ENDROOT
BRANCH  11  15
ATOM     15  C   UNL     1       8.845  -3.957  -7.059  0.00  0.00    +0.037 A 
ATOM     16  C   UNL     1       9.732  -3.280  -7.898  0.00  0.00    +0.013 A 
ATOM     17  C   UNL     1      10.444  -3.978  -8.851  0.00  0.00    +0.004 A 
ATOM     18  C   UNL     1      10.280  -5.346  -8.977  0.00  0.00    -0.050 A 
ATOM     19  C   UNL     1       9.402  -6.023  -8.148  0.00  0.00    +0.004 A 
ATOM     20  C   UNL     1       8.689  -5.338  -7.187  0.00  0.00    +0.013 A 
ATOM     21  C   UNL     1      11.060  -6.103 -10.021  0.00  0.00    +0.044 C 
ENDBRANCH  11  15
BRANCH   1  23
ATOM     22  N   UNL     1       4.033   0.440  -6.361  0.00  0.00    -0.308 N 
ATOM     23  C   UNL     1       5.016  -0.444  -6.101  0.00  0.00    +0.219 C 
ATOM     24  O   UNL     1       4.748  -1.613  -5.919  0.00  0.00    -0.275 OA
ATOM     25  H   UNL     1       4.248   1.375  -6.507  0.00  0.00    +0.149 HD
BRANCH  22  26
ATOM     26  C   UNL     1       2.641  -0.010  -6.425  0.00  0.00    +0.100 C 
ATOM     27  C   UNL     1       2.047  -0.032  -5.015  0.00  0.00    +0.033 C 
BRANCH  26  31
ATOM     28  C   UNL     1       0.387   2.667  -8.875  0.00  0.00    -0.048 A 
ATOM     29  C   UNL     1       0.165   1.305  -8.954  0.00  0.00    +0.004 A 
ATOM     30  C   UNL     1       0.894   0.438  -8.161  0.00  0.00    +0.006 A 
ATOM     31  C   UNL     1       1.846   0.934  -7.290  0.00  0.00    -0.027 A 
ATOM     32  C   UNL     1       2.069   2.296  -7.212  0.00  0.00    +0.006 A 
ATOM     33  C   UNL     1       1.343   3.162  -8.008  0.00  0.00    +0.004 A 
BRANCH  28  35
ATOM     34  C   UNL     1       0.320   3.822 -11.068  0.00  0.00    +0.009 C 
ATOM     35  C   UNL     1      -0.408   3.611  -9.739  0.00  0.00    +0.032 C 
ENDBRANCH  28  35
ENDBRANCH  26  31
ENDBRANCH  22  26
ENDBRANCH   1  23
TORSDOF 5
