REMARK  Name = ZINC39228051
REMARK  5 active torsions:
REMARK  status: ('A' for Active; 'I' for Inactive)
REMARK    1  A    between atoms: C_5  and  C_7
REMARK    2  A    between atoms: C_7  and  C_8
REMARK    3  A    between atoms: C_8  and  N_9
REMARK    4  A    between atoms: C_10  and  C_12
REMARK    5  A    between atoms: C_14  and  O_39
REMARK                            x       y       z     vdW  Elec       q    Type
REMARK                         _______ _______ _______ _____ _____    ______ ____
ROOT
ATOM      1  C   UNL     1       1.536  -6.353   2.551  0.00  0.00    +0.107 C 
ATOM      2  C   UNL     1       2.719  -6.845   1.712  0.00  0.00    +0.127 C 
ATOM      3  C   UNL     1       2.750  -8.374   1.708  0.00  0.00    +0.032 C 
ATOM      4  C   UNL     1       2.884  -8.892   3.142  0.00  0.00    +0.004 C 
ATOM      5  C   UNL     1       1.693  -8.402   3.966  0.00  0.00    -0.024 C 
ATOM      6  C   UNL     1       1.686  -6.871   3.982  0.00  0.00    +0.004 C 
ATOM      7  C   UNL     1       0.523  -6.379   4.846  0.00  0.00    -0.005 C 
ATOM      8  C   UNL     1       0.669  -6.974   6.248  0.00  0.00    -0.020 C 
ATOM      9  C   UNL     1      -0.464  -6.509   7.128  0.00  0.00    +0.006 A 
ATOM     10  H   UNL     1      -0.712  -4.491   6.679  0.00  0.00    +0.166 HD
ATOM     11  C   UNL     1      -1.105  -7.333   7.990  0.00  0.00    -0.022 A 
ATOM     12  C   UNL     1      -2.120  -6.549   8.655  0.00  0.00    +0.003 A 
ATOM     13  C   UNL     1      -3.074  -6.858   9.630  0.00  0.00    +0.010 A 
ATOM     14  C   UNL     1      -3.896  -5.838  10.041  0.00  0.00    +0.001 A 
ATOM     15  C   UNL     1      -3.796  -4.558   9.521  0.00  0.00    +0.002 A 
ATOM     16  C   UNL     1      -2.862  -4.223   8.556  0.00  0.00    +0.026 A 
ATOM     17  C   UNL     1      -2.014  -5.239   8.120  0.00  0.00    +0.047 A 
ATOM     18  N   UNL     1      -1.003  -5.254   7.201  0.00  0.00    -0.359 N 
ATOM     19  C   UNL     1      -0.754  -8.790   8.159  0.00  0.00    +0.019 C 
ATOM     20  C   UNL     1       0.616  -9.029   7.507  0.00  0.00    -0.073 C 
ATOM     21  N   UNL     1       0.630  -8.441   6.164  0.00  0.00    +0.386 N 
ATOM     22  C   UNL     1       1.793  -8.919   5.402  0.00  0.00    -0.074 C 
ATOM     23  H   UNL     1      -0.209  -8.718   5.679  0.00  0.00    -0.081 HD
ENDROOT
BRANCH   1  25
ATOM     24  N   UNL     1       1.394  -4.168   1.402  0.00  0.00    -0.315 N 
ATOM     25  C   UNL     1       1.516  -4.847   2.560  0.00  0.00    +0.219 C 
ATOM     26  O   UNL     1       1.610  -4.245   3.609  0.00  0.00    -0.275 OA
ATOM     27  H   UNL     1       1.319  -4.649   0.563  0.00  0.00    +0.149 HD
BRANCH  24  28
ATOM     28  C   UNL     1       1.375  -2.703   1.411  0.00  0.00    +0.109 C 
BRANCH  28  29
ATOM     29  C   UNL     1       1.228  -2.186  -0.022  0.00  0.00    +0.056 C 
BRANCH  29  34
ATOM     30  C   UNL     1      -0.017   1.378   0.010  0.00  0.00    +0.000 A 
ATOM     31  C   UNL     1       1.171   2.087   0.002  0.00  0.00    +0.003 A 
ATOM     32  C   UNL     1       2.377   1.414  -0.013  0.00  0.00    +0.038 A 
ATOM     33  C   UNL     1       2.397   0.029  -0.021  0.00  0.00    +0.127 A 
ATOM     34  C   UNL     1       1.208  -0.679  -0.013  0.00  0.00    -0.011 A 
ATOM     35  C   UNL     1       0.002  -0.004   0.002  0.00  0.00    +0.006 A 
ATOM     36  F   UNL     1       3.577  -0.630  -0.036  0.00  0.00    -0.205 F 
ENDBRANCH  29  34
ENDBRANCH  28  29
ENDBRANCH  24  28
ENDBRANCH   1  25
BRANCH   2  37
ATOM     37  O   UNL     1       3.937  -6.347   2.270  0.00  0.00    -0.391 OA
ATOM     38  H   UNL     1       4.730  -6.619   1.788  0.00  0.00    +0.210 HD
ENDBRANCH   2  37
TORSDOF 5
