REMARK  Name = ZINC34999145
REMARK  10 active torsions:
REMARK  status: ('A' for Active; 'I' for Inactive)
REMARK    1  A    between atoms: C_1  and  C_2
REMARK    2  A    between atoms: C_2  and  C_3
REMARK    3  A    between atoms: C_3  and  C_5
REMARK    4  A    between atoms: C_3  and  C_6
REMARK    5  A    between atoms: C_6  and  C_8
REMARK    6  A    between atoms: C_6  and  N_25
REMARK    7  A    between atoms: C_14  and  C_17
REMARK    8  A    between atoms: C_18  and  C_20
REMARK    9  A    between atoms: N_25  and  S_26
REMARK   10  A    between atoms: S_26  and  C_29
REMARK                            x       y       z     vdW  Elec       q    Type
REMARK                         _______ _______ _______ _____ _____    ______ ____
ROOT
ATOM      1  C   UNL     1      -2.714   0.385   1.968  0.00  0.00    +0.165 C 
ENDROOT
BRANCH   1   2
ATOM      2  C   UNL     1      -3.525   1.560   2.450  0.00  0.00    +0.235 C 
ATOM      3  O   UNL     1      -4.649   1.389   2.873  0.00  0.00    -0.274 OA
ATOM      4  N   UNL     1      -3.001   2.802   2.410  0.00  0.00    -0.297 N 
ATOM      5  C   UNL     1      -1.680   3.038   1.811  0.00  0.00    +0.127 C 
ATOM      6  C   UNL     1      -0.792   3.742   2.845  0.00  0.00    +0.127 C 
ATOM      7  N   UNL     1      -1.533   4.884   3.399  0.00  0.00    -0.289 N 
ATOM      8  C   UNL     1      -2.854   4.648   3.998  0.00  0.00    +0.091 C 
ATOM      9  C   UNL     1      -3.744   3.945   2.960  0.00  0.00    +0.130 C 
ATOM     10  C   UNL     1      -2.705   3.765   5.239  0.00  0.00    +0.029 C 
ATOM     11  C   UNL     1      -1.010   6.125   3.360  0.00  0.00    +0.282 C 
ATOM     12  O   UNL     1      -1.577   7.043   3.923  0.00  0.00    -0.267 OA
BRANCH  11  13
ATOM     13  C   UNL     1       0.243   6.370   2.638  0.00  0.00    +0.189 A 
ATOM     14  C   UNL     1       0.956   7.535   2.640  0.00  0.00    +0.054 A 
ATOM     15  C   UNL     1       2.077   7.324   1.822  0.00  0.00    +0.042 A 
ATOM     16  C   UNL     1       2.001   6.055   1.363  0.00  0.00    +0.196 A 
ATOM     17  O   UNL     1       0.897   5.482   1.861  0.00  0.00    -0.458 OA
ENDBRANCH  11  13
ENDBRANCH   1   2
BRANCH   1  18
ATOM     18  C   UNL     1      -2.481   0.509   0.461  0.00  0.00    +0.013 C 
ATOM     19  C   UNL     1      -3.820   0.414  -0.272  0.00  0.00    +0.009 C 
BRANCH  18  21
ATOM     20  C   UNL     1      -0.186  -0.462   0.643  0.00  0.00    +0.004 C 
ATOM     21  C   UNL     1      -1.562  -0.621  -0.008  0.00  0.00    +0.002 C 
ENDBRANCH  18  21
ENDBRANCH   1  18
BRANCH   1  22
ATOM     22  N   UNL     1      -3.438  -0.857   2.249  0.00  0.00    -0.178 NA
ATOM     23  H   UNL     1      -4.135  -1.159   1.646  0.00  0.00    +0.149 HD
BRANCH  22  24
ATOM     24  S   UNL     1      -3.068  -1.744   3.598  0.00  0.00    +0.061 S 
ATOM     25  O   UNL     1      -3.909  -2.889   3.573  0.00  0.00    -0.153 OA
ATOM     26  O   UNL     1      -1.651  -1.840   3.644  0.00  0.00    -0.153 OA
BRANCH  24  27
ATOM     27  C   UNL     1      -3.554  -0.792   4.998  0.00  0.00    +0.125 A 
ATOM     28  C   UNL     1      -4.693  -1.133   5.704  0.00  0.00    +0.050 A 
ATOM     29  C   UNL     1      -5.074  -0.386   6.804  0.00  0.00    +0.043 A 
ATOM     30  C   UNL     1      -4.317   0.704   7.197  0.00  0.00    +0.021 A 
ATOM     31  C   UNL     1      -3.179   1.044   6.491  0.00  0.00    +0.023 A 
ATOM     32  C   UNL     1      -2.794   0.293   5.394  0.00  0.00    +0.067 A 
ATOM     33 CL   UNL     1      -1.360   0.717   4.512  0.00  0.00    -0.082 Cl
ATOM     34 CL   UNL     1      -6.505  -0.814   7.690  0.00  0.00    -0.083 Cl
ENDBRANCH  24  27
ENDBRANCH  22  24
ENDBRANCH   1  22
TORSDOF 7
