REMARK  Name = ZINC05351823
REMARK  6 active torsions:
REMARK  status: ('A' for Active; 'I' for Inactive)
REMARK    1  A    between atoms: C_1  and  C_2
REMARK    2  A    between atoms: C_2  and  C_3
REMARK    3  A    between atoms: C_3  and  C_4
REMARK    4  A    between atoms: C_4  and  N_5
REMARK    5  A    between atoms: C_10  and  C_26
REMARK    6  A    between atoms: C_26  and  C_27
REMARK                            x       y       z     vdW  Elec       q    Type
REMARK                         _______ _______ _______ _____ _____    ______ ____
ROOT
ATOM      1  N   UNL     1       1.505   2.481  -0.464  0.00  0.00    -0.242 N 
ATOM      2  C   UNL     1       0.564   2.312  -1.399  0.00  0.00    +0.224 C 
ATOM      3  O   UNL     1       0.650   2.674  -2.553  0.00  0.00    -0.275 OA
ATOM      4  C   UNL     1      -0.624   1.600  -0.794  0.00  0.00    +0.073 C 
ATOM      5  C   UNL     1      -1.825   2.568  -0.735  0.00  0.00    -0.049 C 
ATOM      6  C   UNL     1      -1.172   2.259   1.504  0.00  0.00    +0.050 C 
ATOM      7  C   UNL     1      -0.202   1.395   0.688  0.00  0.00    +0.088 C 
ATOM      8  C   UNL     1       1.183   2.001   0.742  0.00  0.00    +0.225 C 
ATOM      9  O   UNL     1       1.891   2.044   1.725  0.00  0.00    -0.275 OA
ATOM     10  C   UNL     1      -0.491   2.878   2.692  0.00  0.00    -0.028 A 
ATOM     11  C   UNL     1       0.586   3.725   2.832  0.00  0.00    +0.004 A 
ATOM     12  C   UNL     1       0.988   4.131   4.092  0.00  0.00    +0.000 A 
ATOM     13  C   UNL     1       0.306   3.685   5.209  0.00  0.00    +0.002 A 
ATOM     14  C   UNL     1      -0.774   2.838   5.073  0.00  0.00    +0.023 A 
ATOM     15  C   UNL     1      -1.185   2.423   3.808  0.00  0.00    +0.036 A 
ATOM     16  N   UNL     1      -2.231   1.584   3.418  0.00  0.00    -0.286 N 
ATOM     17  C   UNL     1      -2.291   1.436   2.080  0.00  0.00    +0.211 C 
ATOM     18  O   UNL     1      -3.092   0.768   1.461  0.00  0.00    -0.277 OA
ATOM     19  H   UNL     1      -2.842   1.156   4.038  0.00  0.00    +0.155 HD
ATOM     20  N   UNL     1      -1.659   3.261   0.546  0.00  0.00    +0.394 N 
ATOM     21  H   UNL     1      -2.559   3.644   0.860  0.00  0.00    -0.083 HD
ATOM     22  H   UNL     1      -0.977   4.022   0.451  0.00  0.00    -0.083 HD
ENDROOT
BRANCH   1  23
ATOM     23  C   UNL     1       2.785   3.139  -0.739  0.00  0.00    +0.116 C 
BRANCH  23  24
ATOM     24  C   UNL     1       3.810   2.094  -1.186  0.00  0.00    +0.019 C 
BRANCH  24  26
ATOM     25  C   UNL     1       6.171   1.737  -1.920  0.00  0.00    +0.004 C 
ATOM     26  C   UNL     1       5.147   2.781  -1.473  0.00  0.00    -0.002 C 
ENDBRANCH  24  26
ENDBRANCH  23  24
ENDBRANCH   1  23
BRANCH   5  27
ATOM     27  C   UNL     1      -3.139   1.785  -0.745  0.00  0.00    +0.080 C 
BRANCH  27  28
ATOM     28  C   UNL     1      -3.583   1.568  -2.169  0.00  0.00    +0.209 C 
ATOM     29  O   UNL     1      -2.914   1.996  -3.085  0.00  0.00    -0.276 OA
ATOM     30  N   UNL     1      -4.724   0.897  -2.424  0.00  0.00    -0.329 N 
ATOM     31  H   UNL     1      -5.260   0.555  -1.692  0.00  0.00    +0.145 HD
ATOM     32  H   UNL     1      -5.010   0.757  -3.341  0.00  0.00    +0.145 HD
ENDBRANCH  27  28
ENDBRANCH   5  27
TORSDOF 5
