REMARK  Name = ZINC06812420
REMARK  15 active torsions:
REMARK  status: ('A' for Active; 'I' for Inactive)
REMARK    1  A    between atoms: C_1  and  C_2
REMARK    2  A    between atoms: C_5  and  N_8
REMARK    3  A    between atoms: C_9  and  C_11
REMARK    4  A    between atoms: C_11  and  C_12
REMARK    5  A    between atoms: N_18  and  N_19
REMARK    6  A    between atoms: C_20  and  C_21
REMARK    7  A    between atoms: C_23  and  C_32
REMARK    8  A    between atoms: C_24  and  O_31
REMARK    9  A    between atoms: C_25  and  C_27
REMARK   10  A    between atoms: C_27  and  C_28
REMARK   11  A    between atoms: C_27  and  C_29
REMARK   12  A    between atoms: C_27  and  C_30
REMARK   13  A    between atoms: C_32  and  C_33
REMARK   14  A    between atoms: C_32  and  C_34
REMARK   15  A    between atoms: C_32  and  C_35
REMARK                            x       y       z     vdW  Elec       q    Type
REMARK                         _______ _______ _______ _____ _____    ______ ____
ROOT
ATOM      1  C   UNL     1       0.424  -6.867   2.557  0.00  0.00    +0.149 C 
ATOM      2  C   UNL     1       0.590  -8.378   2.586  0.00  0.00    +0.233 C 
ATOM      3  O   UNL     1       1.545  -8.931   2.083  0.00  0.00    -0.274 OA
ATOM      4  N   UNL     1      -0.372  -9.051   3.194  0.00  0.00    -0.263 N 
ATOM      5  C   UNL     1      -1.461  -8.429   3.768  0.00  0.00    +0.183 C 
ATOM      6  N   UNL     1      -2.475  -8.984   4.396  0.00  0.00    -0.127 NA
ATOM      7  S   UNL     1      -1.170  -6.692   3.459  0.00  0.00    -0.075 S 
ATOM      8  H   UNL     1      -0.309 -10.018   3.238  0.00  0.00    +0.157 HD
ENDROOT
BRANCH   6   9
ATOM      9  N   UNL     1      -2.528 -10.266   4.531  0.00  0.00    -0.155 NA
ATOM     10  C   UNL     1      -3.534 -10.817   5.154  0.00  0.00    +0.143 C 
BRANCH  10  11
ATOM     11  C   UNL     1      -3.593 -12.279   5.308  0.00  0.00    -0.004 A 
ATOM     12  C   UNL     1      -2.570 -13.081   4.793  0.00  0.00    +0.017 A 
ATOM     13  C   UNL     1      -2.630 -14.449   4.940  0.00  0.00    +0.000 A 
ATOM     14  C   UNL     1      -3.705 -15.033   5.599  0.00  0.00    +0.124 A 
ATOM     15  C   UNL     1      -4.724 -14.241   6.112  0.00  0.00    +0.000 A 
ATOM     16  C   UNL     1      -4.671 -12.871   5.976  0.00  0.00    +0.017 A 
BRANCH  15  17
ATOM     17  C   UNL     1      -5.887 -14.881   6.825  0.00  0.00    -0.009 C 
ATOM     18  C   UNL     1      -6.861 -13.796   7.289  0.00  0.00    +0.015 C 
ATOM     19  C   UNL     1      -6.606 -15.838   5.872  0.00  0.00    +0.015 C 
ATOM     20  C   UNL     1      -5.375 -15.659   8.039  0.00  0.00    +0.015 C 
ENDBRANCH  15  17
BRANCH  13  21
ATOM     21  C   UNL     1      -1.528 -15.315   4.385  0.00  0.00    -0.009 C 
ATOM     22  C   UNL     1      -0.475 -14.431   3.713  0.00  0.00    +0.015 C 
ATOM     23  C   UNL     1      -0.879 -16.106   5.522  0.00  0.00    +0.015 C 
ATOM     24  C   UNL     1      -2.111 -16.285   3.356  0.00  0.00    +0.015 C 
ENDBRANCH  13  21
BRANCH  14  25
ATOM     25  O   UNL     1      -3.759 -16.383   5.741  0.00  0.00    -0.506 OA
ATOM     26  H   UNL     1      -3.340 -16.710   6.549  0.00  0.00    +0.292 HD
ENDBRANCH  14  25
ENDBRANCH  10  11
ENDBRANCH   6   9
BRANCH   1  27
ATOM     27  C   UNL     1       0.309  -6.349   1.121  0.00  0.00    +0.120 C 
BRANCH  27  29
ATOM     28  N   UNL     1       0.059  -4.170  -0.021  0.00  0.00    -0.285 N 
ATOM     29  C   UNL     1       0.175  -4.848   1.138  0.00  0.00    +0.219 C 
ATOM     30  O   UNL     1       0.173  -4.251   2.193  0.00  0.00    -0.275 OA
ATOM     31  H   UNL     1      -0.017  -4.651  -0.860  0.00  0.00    +0.155 HD
BRANCH  28  36
ATOM     32  C   UNL     1       0.008   1.503   0.007  0.00  0.00    +0.044 C 
ATOM     33  C   UNL     1       0.022  -0.004  -0.001  0.00  0.00    -0.050 A 
ATOM     34  C   UNL     1       0.777  -0.692   0.931  0.00  0.00    +0.005 A 
ATOM     35  C   UNL     1       0.791  -2.073   0.927  0.00  0.00    +0.023 A 
ATOM     36  C   UNL     1       0.046  -2.771  -0.014  0.00  0.00    +0.033 A 
ATOM     37  C   UNL     1      -0.712  -2.077  -0.948  0.00  0.00    +0.023 A 
ATOM     38  C   UNL     1      -0.726  -0.696  -0.936  0.00  0.00    +0.005 A 
ENDBRANCH  28  36
ENDBRANCH  27  29
ENDBRANCH   1  27
TORSDOF 8
