REMARK  Name = ZINC51364304
REMARK  9 active torsions:
REMARK  status: ('A' for Active; 'I' for Inactive)
REMARK    1  A    between atoms: C_1  and  C_2
REMARK    2  A    between atoms: C_2  and  N_3
REMARK    3  A    between atoms: N_6  and  C_9
REMARK    4  A    between atoms: C_18  and  C_24
REMARK    5  A    between atoms: N_20  and  C_21
REMARK    6  A    between atoms: C_24  and  O_26
REMARK    7  A    between atoms: O_26  and  C_27
REMARK    8  A    between atoms: C_27  and  C_28
REMARK    9  A    between atoms: N_30  and  C_31
REMARK                            x       y       z     vdW  Elec       q    Type
REMARK                         _______ _______ _______ _____ _____    ______ ____
ROOT
ATOM      1  C   UNL     1      -4.533  -2.381  -2.080  0.00  0.00    +0.067 A 
ATOM      2  C   UNL     1      -3.907  -3.143  -3.053  0.00  0.00    +0.052 A 
ATOM      3  C   UNL     1      -4.611  -4.153  -3.698  0.00  0.00    +0.055 A 
ATOM      4  C   UNL     1      -5.954  -4.385  -3.349  0.00  0.00    +0.049 A 
ATOM      5  C   UNL     1      -6.572  -3.607  -2.367  0.00  0.00    +0.054 A 
ATOM      6  C   UNL     1      -5.865  -2.622  -1.737  0.00  0.00    +0.145 A 
ATOM      7  F   UNL     1      -6.460  -1.874  -0.782  0.00  0.00    -0.204 F 
ATOM      8  C   UNL     1      -6.687  -5.458  -4.041  0.00  0.00    +0.203 A 
ATOM      9  O   UNL     1      -7.852  -5.702  -3.780  0.00  0.00    -0.286 OA
ATOM     10  C   UNL     1      -5.954  -6.224  -5.063  0.00  0.00    +0.122 A 
ATOM     11  C   UNL     1      -4.636  -5.905  -5.319  0.00  0.00    +0.105 A 
ATOM     12  N   UNL     1      -4.002  -4.920  -4.669  0.00  0.00    -0.343 N 
ENDROOT
BRANCH   1  16
ATOM     13  N   UNL     1      -1.721   0.333  -0.740  0.00  0.00    +0.382 N 
ATOM     14  C   UNL     1      -2.365   0.481  -2.051  0.00  0.00    -0.060 C 
ATOM     15  C   UNL     1      -3.818   0.004  -1.963  0.00  0.00    +0.086 C 
ATOM     16  N   UNL     1      -3.826  -1.369  -1.434  0.00  0.00    -0.331 N 
ATOM     17  C   UNL     1      -3.066  -1.643  -0.205  0.00  0.00    +0.086 C 
ATOM     18  C   UNL     1      -1.648  -1.087  -0.376  0.00  0.00    -0.060 C 
ATOM     19  H   UNL     1      -2.259   0.830  -0.046  0.00  0.00    -0.082 HD
BRANCH  13  21
ATOM     20  C   UNL     1      -0.443   2.399  -1.052  0.00  0.00    -0.017 C 
ATOM     21  C   UNL     1      -0.364   0.892  -0.797  0.00  0.00    -0.082 C 
ENDBRANCH  13  21
ENDBRANCH   1  16
BRANCH  12  22
ATOM     22  C   UNL     1      -2.602  -4.647  -5.004  0.00  0.00    +0.087 C 
ATOM     23  C   UNL     1      -2.047  -5.270  -6.286  0.00  0.00    +0.027 C 
ATOM     24  C   UNL     1      -1.615  -5.814  -4.923  0.00  0.00    +0.027 C 
ENDBRANCH  12  22
BRANCH  10  25
ATOM     25  C   UNL     1      -6.615  -7.311  -5.798  0.00  0.00    +0.345 C 
ATOM     26  O   UNL     1      -6.000  -7.938  -6.639  0.00  0.00    -0.245 OA
BRANCH  25  27
ATOM     27  O   UNL     1      -7.903  -7.615  -5.539  0.00  0.00    -0.452 OA
BRANCH  27  28
ATOM     28  C   UNL     1      -8.481  -8.683  -6.290  0.00  0.00    +0.328 C 
BRANCH  28  29
ATOM     29  C   UNL     1      -9.915  -8.876  -5.867  0.00  0.00    +0.251 C 
ATOM     30  O   UNL     1     -10.394  -8.169  -5.007  0.00  0.00    -0.272 OA
ATOM     31  N   UNL     1     -10.665  -9.836  -6.445  0.00  0.00    -0.310 N 
ATOM     32  H   UNL     1     -10.282 -10.402  -7.133  0.00  0.00    +0.149 HD
BRANCH  31  33
ATOM     33  C   UNL     1     -12.058 -10.023  -6.034  0.00  0.00    +0.073 C 
ATOM     34  C   UNL     1     -12.109 -10.931  -4.803  0.00  0.00    +0.022 C 
ATOM     35  C   UNL     1     -13.564 -11.127  -4.373  0.00  0.00    +0.002 C 
ATOM     36  C   UNL     1     -14.351 -11.773  -5.516  0.00  0.00    +0.000 C 
ATOM     37  C   UNL     1     -14.300 -10.865  -6.747  0.00  0.00    +0.002 C 
ATOM     38  C   UNL     1     -12.845 -10.669  -7.176  0.00  0.00    +0.022 C 
ENDBRANCH  31  33
ENDBRANCH  28  29
ENDBRANCH  27  28
ENDBRANCH  25  27
ENDBRANCH  10  25
TORSDOF 8
