REMARK  Name = ZINC01513141
REMARK  4 active torsions:
REMARK  status: ('A' for Active; 'I' for Inactive)
REMARK    1  A    between atoms: C_7  and  C_11
REMARK    2  A    between atoms: C_16  and  C_18
REMARK    3  A    between atoms: C_19  and  C_20
REMARK    4  A    between atoms: C_23  and  N_26
REMARK                            x       y       z     vdW  Elec       q    Type
REMARK                         _______ _______ _______ _____ _____    ______ ____
ROOT
ATOM      1  C   UNL     1       9.650  -0.695  -0.092  0.00  0.00    +0.045 C 
ATOM      2  C   UNL     1       8.204  -0.927  -0.079  0.00  0.00    +0.152 C 
ATOM      3  C   UNL     1       7.507  -2.244  -0.079  0.00  0.00    +0.364 C 
ATOM      4  O   UNL     1       8.015  -3.346  -0.089  0.00  0.00    -0.243 OA
ATOM      5  O   UNL     1       6.187  -1.950  -0.065  0.00  0.00    -0.403 OA
ATOM      6  C   UNL     1       6.058  -0.609  -0.057  0.00  0.00    +0.225 C 
ATOM      7  N   UNL     1       7.254  -0.011  -0.070  0.00  0.00    -0.206 NA
ENDROOT
BRANCH   1  14
ATOM      8  C   UNL     1      13.960   1.023  -0.126  0.00  0.00    +0.001 A 
ATOM      9  C   UNL     1      13.952   2.408  -0.118  0.00  0.00    +0.002 A 
ATOM     10  C   UNL     1      12.758   3.105  -0.102  0.00  0.00    +0.026 A 
ATOM     11  C   UNL     1      11.552   2.417  -0.094  0.00  0.00    +0.047 A 
ATOM     12  C   UNL     1      11.563   1.014  -0.102  0.00  0.00    +0.007 A 
ATOM     13  C   UNL     1      12.770   0.322  -0.117  0.00  0.00    +0.010 A 
ATOM     14  C   UNL     1      10.145   0.600  -0.090  0.00  0.00    +0.002 A 
ATOM     15  C   UNL     1       9.396   1.803  -0.082  0.00  0.00    +0.091 A 
ATOM     16  N   UNL     1      10.231   2.838  -0.079  0.00  0.00    -0.360 N 
ATOM     17  H   UNL     1       9.951   3.768  -0.071  0.00  0.00    +0.165 HD
ENDBRANCH   1  14
BRANCH   6  18
ATOM     18  C   UNL     1       4.837   0.068  -0.043  0.00  0.00    +0.068 C 
ATOM     19  C   UNL     1       3.648  -0.647  -0.035  0.00  0.00    +0.013 C 
BRANCH  19  20
ATOM     20  C   UNL     1       2.409   0.039  -0.020  0.00  0.00    -0.025 A 
ATOM     21  C   UNL     1       1.200  -0.681  -0.013  0.00  0.00    +0.010 A 
ATOM     22  C   UNL     1       0.002  -0.004   0.002  0.00  0.00    +0.033 A 
ATOM     23  C   UNL     1      -0.017   1.382   0.010  0.00  0.00    +0.126 A 
ATOM     24  C   UNL     1       1.169   2.102   0.002  0.00  0.00    +0.033 A 
ATOM     25  C   UNL     1       2.378   1.445  -0.013  0.00  0.00    +0.010 A 
BRANCH  23  26
ATOM     26  N   UNL     1      -1.312   2.100   0.020  0.00  0.00    +0.056 N 
ATOM     27  O   UNL     1      -2.440   1.421   0.021  0.00  0.00    -0.126 OA
ATOM     28  O   UNL     1      -1.335   3.416   0.027  0.00  0.00    -0.126 OA
ENDBRANCH  23  26
ENDBRANCH  19  20
ENDBRANCH   6  18
TORSDOF 4
