REMARK  Name = ZINC12859613
REMARK  10 active torsions:
REMARK  status: ('A' for Active; 'I' for Inactive)
REMARK    1  A    between atoms: C_1  and  C_2
REMARK    2  A    between atoms: C_2  and  C_3
REMARK    3  A    between atoms: C_3  and  C_26
REMARK    4  A    between atoms: N_6  and  N_10
REMARK    5  A    between atoms: N_13  and  C_14
REMARK    6  A    between atoms: C_14  and  C_15
REMARK    7  A    between atoms: C_14  and  C_16
REMARK    8  A    between atoms: C_14  and  C_17
REMARK    9  A    between atoms: C_21  and  C_23
REMARK   10  A    between atoms: C_23  and  C_25
REMARK                            x       y       z     vdW  Elec       q    Type
REMARK                         _______ _______ _______ _____ _____    ______ ____
ROOT
ATOM      1  N   UNL     1       1.142   1.903  -0.062  0.00  0.00    -0.207 N 
ATOM      2  C   UNL     1      -0.016   1.214  -0.062  0.00  0.00    +0.317 C 
ATOM      3  O   UNL     1      -0.001   0.001  -0.145  0.00  0.00    -0.251 OA
ATOM      4  N   UNL     1      -1.190   1.869   0.025  0.00  0.00    -0.289 N 
ATOM      5  H   UNL     1       1.987   1.432  -0.129  0.00  0.00    +0.175 HD
ATOM      6  H   UNL     1      -1.202   2.837   0.092  0.00  0.00    +0.151 HD
ENDROOT
BRANCH   1  10
ATOM      7  C   UNL     1       1.239   5.534  -0.433  0.00  0.00    +0.111 C 
ATOM      8  C   UNL     1       1.366   4.133  -0.999  0.00  0.00    +0.263 C 
ATOM      9  O   UNL     1       1.627   3.826  -2.142  0.00  0.00    -0.271 OA
ATOM     10  N   UNL     1       1.125   3.301   0.034  0.00  0.00    -0.136 N 
ATOM     11  C   UNL     1       0.874   3.974   1.162  0.00  0.00    +0.326 C 
ATOM     12  O   UNL     1       0.633   3.440   2.227  0.00  0.00    -0.251 OA
ATOM     13  N   UNL     1       0.919   5.307   0.987  0.00  0.00    -0.284 N 
ATOM     14  C   UNL     1       0.108   6.298  -1.124  0.00  0.00    +0.041 C 
ATOM     15  H   UNL     1       0.770   5.986   1.663  0.00  0.00    +0.151 HD
BRANCH   7  17
ATOM     16  C   UNL     1       2.481   7.605   0.208  0.00  0.00    +0.006 C 
ATOM     17  C   UNL     1       2.561   6.291  -0.572  0.00  0.00    +0.032 C 
ENDBRANCH   7  17
ENDBRANCH   1  10
BRANCH   4  18
ATOM     18  C   UNL     1      -2.449   1.120   0.020  0.00  0.00    +0.056 C 
ATOM     19  C   UNL     1      -2.578   0.348  -1.295  0.00  0.00    +0.036 C 
ATOM     20  C   UNL     1      -2.463   0.137   1.192  0.00  0.00    +0.036 C 
BRANCH  18  21
ATOM     21  C   UNL     1      -3.604   2.078   0.154  0.00  0.00    -0.024 A 
ATOM     22  C   UNL     1      -4.855   1.724  -0.321  0.00  0.00    +0.006 A 
ATOM     23  C   UNL     1      -5.920   2.597  -0.201  0.00  0.00    +0.001 A 
ATOM     24  C   UNL     1      -5.743   3.829   0.395  0.00  0.00    +0.008 A 
ATOM     25  C   UNL     1      -4.485   4.193   0.876  0.00  0.00    -0.022 A 
ATOM     26  C   UNL     1      -3.415   3.305   0.757  0.00  0.00    +0.014 A 
BRANCH  25  27
ATOM     27  C   UNL     1      -4.287   5.511   1.516  0.00  0.00    -0.050 C 
ATOM     28  C   UNL     1      -3.965   5.582   2.800  0.00  0.00    +0.012 C 
ATOM     29  C   UNL     1      -4.453   6.772   0.710  0.00  0.00    +0.044 C 
ENDBRANCH  25  27
ENDBRANCH  18  21
ENDBRANCH   4  18
TORSDOF 5
