REMARK  Name = ZINC06077080
REMARK  6 active torsions:
REMARK  status: ('A' for Active; 'I' for Inactive)
REMARK    1  A    between atoms: C_1  and  C_2
REMARK    2  A    between atoms: C_2  and  C_32
REMARK    3  A    between atoms: N_16  and  C_19
REMARK    4  A    between atoms: C_20  and  C_30
REMARK    5  A    between atoms: C_21  and  N_29
REMARK    6  A    between atoms: N_22  and  C_23
REMARK                            x       y       z     vdW  Elec       q    Type
REMARK                         _______ _______ _______ _____ _____    ______ ____
ROOT
ATOM      1  C   UNL     1       2.191   1.791   3.164  0.00  0.00    +0.011 C 
ATOM      2  C   UNL     1       2.794   1.019   1.989  0.00  0.00    -0.023 C 
ATOM      3  C   UNL     1       2.771   1.894   0.733  0.00  0.00    +0.058 C 
ATOM      4  C   UNL     1       1.345   2.245   0.387  0.00  0.00    +0.026 C 
ATOM      5  C   UNL     1       0.332   1.398   0.673  0.00  0.00    +0.037 C 
ATOM      6  C   UNL     1       0.573   0.169   1.311  0.00  0.00    +0.163 C 
ATOM      7  O   UNL     1      -0.358  -0.577   1.539  0.00  0.00    -0.292 OA
ATOM      8  C   UNL     1       1.962  -0.239   1.718  0.00  0.00    +0.086 C 
ATOM      9  C   UNL     1      -1.088   1.746   0.310  0.00  0.00    +0.141 C 
ATOM     10  C   UNL     1      -1.542   0.941  -0.869  0.00  0.00    -0.001 A 
ATOM     11  C   UNL     1      -1.089   0.895  -2.170  0.00  0.00    +0.007 A 
ATOM     12  C   UNL     1      -1.742   0.024  -3.035  0.00  0.00    +0.000 A 
ATOM     13  C   UNL     1      -2.796  -0.757  -2.607  0.00  0.00    +0.002 A 
ATOM     14  C   UNL     1      -3.257  -0.716  -1.300  0.00  0.00    +0.024 A 
ATOM     15  C   UNL     1      -2.610   0.154  -0.422  0.00  0.00    +0.041 A 
ATOM     16  N   UNL     1      -2.858   0.397   0.917  0.00  0.00    -0.273 N 
ATOM     17  C   UNL     1      -2.016   1.317   1.429  0.00  0.00    +0.240 C 
ATOM     18  O   UNL     1      -2.004   1.725   2.571  0.00  0.00    -0.274 OA
ATOM     19  C   UNL     1      -3.911  -0.269   1.688  0.00  0.00    +0.138 C 
ATOM     20  C   UNL     1      -1.245   3.216   0.052  0.00  0.00    +0.089 C 
ATOM     21  C   UNL     1      -0.163   3.998  -0.205  0.00  0.00    +0.108 C 
ATOM     22  N   UNL     1       1.098   3.447  -0.222  0.00  0.00    -0.259 N 
ATOM     23  C   UNL     1       4.235   0.623   2.314  0.00  0.00    +0.011 C 
ENDROOT
BRANCH  22  24
ATOM     24  C   UNL     1       2.140   4.122  -0.869  0.00  0.00    +0.058 A 
ATOM     25  C   UNL     1       2.893   5.077  -0.189  0.00  0.00    +0.027 A 
ATOM     26  C   UNL     1       3.913   5.718  -0.871  0.00  0.00    +0.021 A 
ATOM     27  C   UNL     1       4.149   5.393  -2.194  0.00  0.00    +0.111 A 
ATOM     28  N   UNL     1       3.419   4.484  -2.809  0.00  0.00    -0.261 NA
ATOM     29  C   UNL     1       2.442   3.846  -2.195  0.00  0.00    +0.134 A 
ENDBRANCH  22  24
BRANCH  21  30
ATOM     30  N   UNL     1      -0.330   5.340  -0.449  0.00  0.00    -0.345 N 
ATOM     31  H   UNL     1       0.446   5.916  -0.540  0.00  0.00    +0.144 HD
ATOM     32  H   UNL     1      -1.222   5.711  -0.530  0.00  0.00    +0.144 HD
ENDBRANCH  21  30
BRANCH  20  33
ATOM     33  C   UNL     1      -2.551   3.802   0.073  0.00  0.00    +0.100 C 
ATOM     34  N   UNL     1      -3.587   4.267   0.090  0.00  0.00    -0.191 NA
ENDBRANCH  20  33
TORSDOF 3
