REMARK  Name = ZINC37006385
REMARK  3 active torsions:
REMARK  status: ('A' for Active; 'I' for Inactive)
REMARK    1  A    between atoms: C_2  and  C_3
REMARK    2  A    between atoms: N_5  and  C_6
REMARK    3  A    between atoms: C_9  and  C_12
REMARK                            x       y       z     vdW  Elec       q    Type
REMARK                         _______ _______ _______ _____ _____    ______ ____
ROOT
ATOM      1  C   UNL     1      -2.412  -2.865   0.100  0.00  0.00    +0.034 A 
ATOM      2  C   UNL     1      -3.651  -2.236   0.103  0.00  0.00    +0.024 A 
ATOM      3  C   UNL     1      -4.805  -2.984   0.200  0.00  0.00    +0.012 A 
ATOM      4  C   UNL     1      -4.728  -4.373   0.293  0.00  0.00    +0.002 A 
ATOM      5  C   UNL     1      -3.484  -5.002   0.289  0.00  0.00    +0.012 A 
ATOM      6  C   UNL     1      -2.333  -4.250   0.187  0.00  0.00    +0.024 A 
ENDROOT
BRANCH   4   7
ATOM      7  C   UNL     1      -5.968  -5.180   0.398  0.00  0.00    +0.096 A 
ATOM      8  C   UNL     1      -6.035  -6.583   0.503  0.00  0.00    +0.101 A 
ATOM      9  C   UNL     1      -7.345  -6.931   0.576  0.00  0.00    +0.267 A 
ATOM     10  O   UNL     1      -7.832  -8.194   0.687  0.00  0.00    -0.266 OA
ATOM     11  N   UNL     1      -8.080  -5.792   0.519  0.00  0.00    -0.243 N 
ATOM     12  H   UNL     1      -9.048  -5.737   0.550  0.00  0.00    +0.192 HD
ATOM     13  N   UNL     1      -7.197  -4.710   0.413  0.00  0.00    -0.171 NA
ENDBRANCH   4   7
BRANCH   1  16
ATOM     14  C   UNL     1      -1.175  -0.895   0.594  0.00  0.00    +0.241 C 
ATOM     15  O   UNL     1      -2.157  -0.429   1.140  0.00  0.00    -0.271 OA
ATOM     16  N   UNL     1      -1.243  -2.104   0.003  0.00  0.00    -0.282 N 
ATOM     17  H   UNL     1      -0.481  -2.447  -0.490  0.00  0.00    +0.155 HD
BRANCH  14  19
ATOM     18  C   UNL     1       0.153   1.055   1.162  0.00  0.00    +0.013 C 
ATOM     19  C   UNL     1       0.086  -0.139   0.578  0.00  0.00    +0.060 C 
ENDBRANCH  14  19
ENDBRANCH   1  16
TORSDOF 3
