REMARK  Name = ZINC06320992
REMARK  10 active torsions:
REMARK  status: ('A' for Active; 'I' for Inactive)
REMARK    1  A    between atoms: C_1  and  C_2
REMARK    2  A    between atoms: C_6  and  C_15
REMARK    3  A    between atoms: C_13  and  C_14
REMARK    4  A    between atoms: C_15  and  C_17
REMARK    5  A    between atoms: C_15  and  N_71
REMARK    6  A    between atoms: N_21  and  C_22
REMARK    7  A    between atoms: C_27  and  C_28
REMARK    8  A    between atoms: C_27  and  N_71
REMARK    9  A    between atoms: C_33  and  C_34
REMARK   10  A    between atoms: C_33  and  N_71
REMARK                            x       y       z     vdW  Elec       q    Type
REMARK                         _______ _______ _______ _____ _____    ______ ____
ROOT
ATOM      1  C   UNL     1       1.319   1.792  -0.137  0.00  0.00    +0.039 C 
ENDROOT
BRANCH   1   7
ATOM      2  C   UNL     1      -3.131   0.921   5.783  0.00  0.00    +0.044 C 
ATOM      3  C   UNL     1      -2.166   1.749   4.976  0.00  0.00    -0.047 A 
ATOM      4  C   UNL     1      -1.640   1.242   3.821  0.00  0.00    +0.013 A 
ATOM      5  C   UNL     1      -0.744   2.010   3.071  0.00  0.00    -0.001 A 
ATOM      6  C   UNL     1      -0.162   1.498   1.829  0.00  0.00    +0.017 A 
ATOM      7  C   UNL     1       0.702   2.288   1.145  0.00  0.00    +0.011 A 
ATOM      8  C   UNL     1       1.029   3.572   1.631  0.00  0.00    +0.251 A 
ATOM      9  O   UNL     1       1.811   4.264   1.003  0.00  0.00    -0.268 OA
ATOM     10  N   UNL     1       0.495   4.054   2.768  0.00  0.00    -0.322 N 
ATOM     11  H   UNL     1       0.739   4.942   3.071  0.00  0.00    +0.169 HD
ATOM     12  C   UNL     1      -0.389   3.300   3.510  0.00  0.00    +0.049 A 
ATOM     13  C   UNL     1      -0.936   3.795   4.689  0.00  0.00    +0.030 A 
ATOM     14  C   UNL     1      -1.818   3.020   5.412  0.00  0.00    -0.046 A 
ATOM     15  C   UNL     1      -2.411   3.558   6.688  0.00  0.00    +0.044 C 
ENDBRANCH   1   7
BRANCH   1  16
ATOM     16  C   UNL     1       0.926   2.704  -1.270  0.00  0.00    +0.143 A 
ATOM     17  N   UNL     1       1.317   3.943  -1.449  0.00  0.00    -0.115 NA
ATOM     18  N   UNL     1       0.766   4.382  -2.528  0.00  0.00    -0.023 NA
ATOM     19  N   UNL     1       0.034   3.456  -3.042  0.00  0.00    -0.044 NA
ATOM     20  N   UNL     1       0.111   2.404  -2.299  0.00  0.00    -0.227 N 
BRANCH  20  21
ATOM     21  C   UNL     1      -0.565   1.125  -2.528  0.00  0.00    +0.111 C 
ATOM     22  C   UNL     1      -0.176   0.563  -3.911  0.00  0.00    +0.027 C 
ATOM     23  C   UNL     1      -1.478  -0.093  -4.435  0.00  0.00    +0.002 C 
ATOM     24  C   UNL     1      -2.574   0.886  -3.946  0.00  0.00    +0.002 C 
ATOM     25  C   UNL     1      -2.090   1.331  -2.550  0.00  0.00    +0.027 C 
ENDBRANCH  20  21
ENDBRANCH   1  16
BRANCH   1  26
ATOM     26  N   UNL     1       2.790   1.805  -0.000  0.00  0.00    +0.396 N 
ATOM     27  H   UNL     1       3.104   2.774   0.132  0.00  0.00    -0.080 HD
BRANCH  26  28
ATOM     28  C   UNL     1       3.196   1.006   1.175  0.00  0.00    -0.002 C 
BRANCH  28  29
ATOM     29  C   UNL     1       3.132   1.883   2.399  0.00  0.00    +0.089 A 
ATOM     30  C   UNL     1       2.396   1.646   3.499  0.00  0.00    +0.042 A 
ATOM     31  C   UNL     1       2.637   2.716   4.391  0.00  0.00    +0.041 A 
ATOM     32  C   UNL     1       3.499   3.547   3.780  0.00  0.00    +0.195 A 
ATOM     33  O   UNL     1       3.796   3.038   2.573  0.00  0.00    -0.470 OA
ENDBRANCH  28  29
ENDBRANCH  26  28
BRANCH  26  34
ATOM     34  C   UNL     1       3.417   1.260  -1.223  0.00  0.00    -0.045 C 
BRANCH  34  35
ATOM     35  C   UNL     1       3.475   2.366  -2.277  0.00  0.00    +0.102 C 
ATOM     36  C   UNL     1       4.229   1.873  -3.533  0.00  0.00    +0.032 C 
ATOM     37  C   UNL     1       5.025   3.111  -4.003  0.00  0.00    +0.030 C 
ATOM     38  C   UNL     1       4.659   4.206  -2.976  0.00  0.00    +0.160 C 
ATOM     39  O   UNL     1       4.255   3.482  -1.793  0.00  0.00    -0.378 OA
ENDBRANCH  34  35
ENDBRANCH  26  34
ENDBRANCH   1  26
TORSDOF 8
