REMARK  Name = ZINC10000485
REMARK  10 active torsions:
REMARK  status: ('A' for Active; 'I' for Inactive)
REMARK    1  A    between atoms: C_1  and  C_2
REMARK    2  A    between atoms: C_2  and  C_3
REMARK    3  A    between atoms: C_2  and  C_4
REMARK    4  A    between atoms: C_4  and  C_6
REMARK    5  A    between atoms: C_4  and  N_21
REMARK    6  A    between atoms: N_8  and  N_9
REMARK    7  A    between atoms: N_9  and  C_10
REMARK    8  A    between atoms: C_15  and  O_18
REMARK    9  A    between atoms: O_18  and  C_19
REMARK   10  A    between atoms: C_22  and  C_24
REMARK                            x       y       z     vdW  Elec       q    Type
REMARK                         _______ _______ _______ _____ _____    ______ ____
ROOT
ATOM      1  C   UNL     1       0.152  -0.095  -2.471  0.00  0.00    +0.250 C 
ATOM      2  O   UNL     1      -0.385  -0.875  -3.229  0.00  0.00    -0.272 OA
ATOM      3  N   UNL     1       0.201   1.216  -2.779  0.00  0.00    -0.235 N 
ATOM      4  H   UNL     1       0.565   1.850  -2.141  0.00  0.00    +0.173 HD
ENDROOT
BRANCH   3   5
ATOM      5  N   UNL     1      -0.274   1.664  -4.018  0.00  0.00    -0.271 N 
ATOM      6  H   UNL     1      -0.638   1.030  -4.656  0.00  0.00    +0.169 HD
BRANCH   5   7
ATOM      7  C   UNL     1      -0.225   2.970  -4.324  0.00  0.00    +0.099 C 
ATOM      8  C   UNL     1      -0.698   3.416  -5.560  0.00  0.00    +0.041 C 
ATOM      9  C   UNL     1      -1.238   2.505  -6.498  0.00  0.00    +0.028 C 
ATOM     10  C   UNL     1      -1.694   2.957  -7.695  0.00  0.00    +0.022 C 
ATOM     11  C   UNL     1      -1.646   4.308  -8.031  0.00  0.00    +0.065 C 
ATOM     12  C   UNL     1      -1.138   5.239  -7.173  0.00  0.00    +0.168 C 
ATOM     13  C   UNL     1      -0.652   4.840  -5.910  0.00  0.00    +0.229 C 
ATOM     14  O   UNL     1      -0.199   5.662  -5.127  0.00  0.00    -0.283 OA
ATOM     15 BR   UNL     1      -2.412   1.722  -8.935  0.00  0.00    -0.050 Br
BRANCH  12  16
ATOM     16  O   UNL     1      -1.104   6.550  -7.532  0.00  0.00    -0.491 OA
ATOM     17  C   UNL     1      -1.618   6.883  -8.824  0.00  0.00    +0.277 C 
ENDBRANCH  12  16
ENDBRANCH   5   7
ENDBRANCH   3   5
BRANCH   1  18
ATOM     18  C   UNL     1       0.765  -0.592  -1.187  0.00  0.00    +0.163 C 
BRANCH  18  19
ATOM     19  N   UNL     1       1.134  -2.002  -1.336  0.00  0.00    -0.300 N 
ATOM     20  C   UNL     1       2.112  -2.526  -0.571  0.00  0.00    +0.246 C 
ATOM     21  O   UNL     1       2.688  -1.829   0.241  0.00  0.00    -0.270 OA
ATOM     22  H   UNL     1       0.674  -2.558  -1.984  0.00  0.00    +0.150 HD
BRANCH  20  23
ATOM     23  C   UNL     1       2.484  -3.948  -0.721  0.00  0.00    +0.055 A 
ATOM     24  C   UNL     1       1.828  -4.750  -1.657  0.00  0.00    +0.016 A 
ATOM     25  C   UNL     1       2.179  -6.076  -1.792  0.00  0.00    +0.021 A 
ATOM     26  C   UNL     1       3.181  -6.615  -1.001  0.00  0.00    +0.042 A 
ATOM     27  C   UNL     1       3.836  -5.827  -0.070  0.00  0.00    +0.040 A 
ATOM     28  C   UNL     1       3.498  -4.495   0.070  0.00  0.00    +0.054 A 
ATOM     29 CL   UNL     1       4.324  -3.505   1.232  0.00  0.00    -0.083 Cl
ATOM     30 CL   UNL     1       3.617  -8.286  -1.178  0.00  0.00    -0.083 Cl
ENDBRANCH  20  23
ENDBRANCH  18  19
BRANCH  18  32
ATOM     31  C   UNL     1      -1.437  -1.375  -0.303  0.00  0.00    +0.009 C 
ATOM     32  C   UNL     1      -0.248  -0.446  -0.050  0.00  0.00    +0.012 C 
ATOM     33  C   UNL     1       0.418  -0.820   1.276  0.00  0.00    +0.009 C 
ENDBRANCH  18  32
ENDBRANCH   1  18
TORSDOF 7
