REMARK  Name = ZINC13978561
REMARK  12 active torsions:
REMARK  status: ('A' for Active; 'I' for Inactive)
REMARK    1  A    between atoms: C_1  and  C_2
REMARK    2  A    between atoms: C_2  and  C_3
REMARK    3  A    between atoms: C_6  and  O_10
REMARK    4  A    between atoms: O_10  and  C_11
REMARK    5  A    between atoms: C_11  and  C_12
REMARK    6  A    between atoms: N_14  and  C_15
REMARK    7  A    between atoms: C_15  and  N_17
REMARK    8  A    between atoms: N_17  and  N_18
REMARK    9  A    between atoms: N_18  and  C_19
REMARK   10  A    between atoms: C_19  and  N_21
REMARK   11  A    between atoms: N_21  and  C_22
REMARK   12  A    between atoms: C_25  and  C_28
REMARK                            x       y       z     vdW  Elec       q    Type
REMARK                         _______ _______ _______ _____ _____    ______ ____
ROOT
ATOM      1  C   UNL     1       5.073  -2.701  -0.105  0.00  0.00    +0.153 C 
ATOM      2  S   UNL     1       6.316  -1.619   0.359  0.00  0.00    -0.017 S 
ENDROOT
BRANCH   1   5
ATOM      3  C   UNL     1       3.644  -0.896  -0.488  0.00  0.00    +0.256 C 
ATOM      4  O   UNL     1       4.524  -0.130  -0.160  0.00  0.00    -0.272 OA
ATOM      5  N   UNL     1       3.869  -2.225  -0.479  0.00  0.00    -0.264 N 
ATOM      6  H   UNL     1       3.165  -2.838  -0.742  0.00  0.00    +0.157 HD
BRANCH   3   7
ATOM      7  C   UNL     1       2.298  -0.363  -0.906  0.00  0.00    +0.325 C 
BRANCH   7   8
ATOM      8  O   UNL     1       2.307   1.064  -0.833  0.00  0.00    -0.482 OA
BRANCH   8  12
ATOM      9  C   UNL     1      -1.172   3.016  -1.886  0.00  0.00    -0.046 A 
ATOM     10  C   UNL     1      -1.112   1.636  -1.940  0.00  0.00    +0.007 A 
ATOM     11  C   UNL     1       0.050   0.980  -1.582  0.00  0.00    +0.047 A 
ATOM     12  C   UNL     1       1.161   1.707  -1.179  0.00  0.00    +0.135 A 
ATOM     13  C   UNL     1       1.099   3.093  -1.132  0.00  0.00    +0.060 A 
ATOM     14  C   UNL     1      -0.068   3.744  -1.485  0.00  0.00    +0.022 A 
ATOM     15 BR   UNL     1       2.611   4.089  -0.584  0.00  0.00    -0.047 Br
BRANCH   9  17
ATOM     16  C   UNL     1      -2.421   4.037  -3.770  0.00  0.00    +0.009 C 
ATOM     17  C   UNL     1      -2.443   3.728  -2.272  0.00  0.00    +0.032 C 
ENDBRANCH   9  17
ENDBRANCH   8  12
ENDBRANCH   7   8
ENDBRANCH   3   7
ENDBRANCH   1   5
BRANCH   1  18
ATOM     18  N   UNL     1       5.299  -4.030  -0.096  0.00  0.00    -0.246 N 
ATOM     19  H   UNL     1       6.165  -4.373   0.173  0.00  0.00    +0.172 HD
BRANCH  18  20
ATOM     20  N   UNL     1       4.282  -4.916  -0.475  0.00  0.00    -0.246 N 
ATOM     21  H   UNL     1       3.415  -4.573  -0.745  0.00  0.00    +0.172 HD
BRANCH  20  22
ATOM     22  C   UNL     1       4.507  -6.245  -0.467  0.00  0.00    +0.151 C 
ATOM     23  S   UNL     1       3.264  -7.327  -0.930  0.00  0.00    -0.017 S 
BRANCH  22  24
ATOM     24  N   UNL     1       5.711  -6.721  -0.093  0.00  0.00    -0.296 N 
ATOM     25  H   UNL     1       6.434  -6.107   0.110  0.00  0.00    +0.154 HD
BRANCH  24  26
ATOM     26  C   UNL     1       5.918  -8.101   0.003  0.00  0.00    +0.033 A 
ATOM     27  C   UNL     1       6.573  -8.632   1.107  0.00  0.00    +0.023 A 
ATOM     28  C   UNL     1       6.771  -9.996   1.201  0.00  0.00    +0.005 A 
ATOM     29  C   UNL     1       6.327 -10.831   0.192  0.00  0.00    -0.050 A 
ATOM     30  C   UNL     1       5.679 -10.306  -0.910  0.00  0.00    +0.005 A 
ATOM     31  C   UNL     1       5.473  -8.944  -1.008  0.00  0.00    +0.023 A 
ATOM     32  C   UNL     1       6.550 -12.318   0.295  0.00  0.00    +0.044 C 
ENDBRANCH  24  26
ENDBRANCH  22  24
ENDBRANCH  20  22
ENDBRANCH  18  20
ENDBRANCH   1  18
TORSDOF 10
