REMARK  Name = ZINC11855766
REMARK  4 active torsions:
REMARK  status: ('A' for Active; 'I' for Inactive)
REMARK    1  A    between atoms: C_3  and  C_6
REMARK    2  A    between atoms: C_8  and  N_21
REMARK    3  A    between atoms: C_22  and  C_24
REMARK    4  A    between atoms: C_29  and  N_30
REMARK                            x       y       z     vdW  Elec       q    Type
REMARK                         _______ _______ _______ _____ _____    ______ ____
ROOT
ATOM      1  C   UNL     1      -2.777   3.222  -0.479  0.00  0.00    +0.102 A 
ATOM      2  C   UNL     1      -1.395   2.964  -0.362  0.00  0.00    +0.074 A 
ATOM      3  C   UNL     1      -1.221   1.618  -0.393  0.00  0.00    +0.132 A 
ATOM      4  N   UNL     1      -2.454   1.043  -0.516  0.00  0.00    -0.185 N 
ATOM      5  N   UNL     1      -3.406   2.068  -0.567  0.00  0.00    -0.162 NA
ATOM      6  C   UNL     1      -2.715  -0.312  -0.578  0.00  0.00    +0.234 A 
ATOM      7  N   UNL     1      -4.000  -0.739  -0.696  0.00  0.00    -0.173 NA
ATOM      8  C   UNL     1      -4.261  -2.062  -0.761  0.00  0.00    +0.278 A 
ATOM      9  O   UNL     1      -5.407  -2.464  -0.872  0.00  0.00    -0.265 OA
ATOM     10  C   UNL     1      -3.186  -2.969  -0.695  0.00  0.00    +0.038 A 
ATOM     11  C   UNL     1      -1.918  -2.484  -0.572  0.00  0.00    +0.027 A 
ATOM     12  N   UNL     1      -1.717  -1.165  -0.517  0.00  0.00    -0.327 N 
ATOM     13  C   UNL     1      -0.930  -3.629  -0.522  0.00  0.00    +0.054 C 
ATOM     14  C   UNL     1      -1.776  -4.878  -0.192  0.00  0.00    +0.011 C 
ATOM     15  C   UNL     1      -3.165  -4.480  -0.737  0.00  0.00    +0.043 C 
ATOM     16  H   UNL     1      -0.685  -0.797  -0.418  0.00  0.00    +0.169 HD
ENDROOT
BRANCH   1  19
ATOM     17  C   UNL     1      -5.096   6.213  -0.589  0.00  0.00    +0.008 A 
ATOM     18  C   UNL     1      -4.737   4.883  -0.599  0.00  0.00    +0.018 A 
ATOM     19  C   UNL     1      -3.411   4.558  -0.494  0.00  0.00    +0.039 A 
ATOM     20  S   UNL     1      -2.647   6.167  -0.372  0.00  0.00    -0.095 S 
ATOM     21  C   UNL     1      -4.128   7.158  -0.476  0.00  0.00    +0.046 A 
ENDBRANCH   1  19
BRANCH   3  22
ATOM     22  N   UNL     1      -0.005   0.945  -0.308  0.00  0.00    -0.266 N 
ATOM     23  C   UNL     1       1.144   1.641  -0.194  0.00  0.00    +0.252 C 
ATOM     24  O   UNL     1       1.118   2.856  -0.160  0.00  0.00    -0.270 OA
ATOM     25  H   UNL     1       0.018  -0.154  -0.334  0.00  0.00    +0.157 HD
BRANCH  23  26
ATOM     26  C   UNL     1       2.435   0.927  -0.110  0.00  0.00    +0.069 A 
ATOM     27  C   UNL     1       2.461  -0.465  -0.012  0.00  0.00    +0.035 A 
ATOM     28  C   UNL     1       3.671  -1.126   0.065  0.00  0.00    +0.042 A 
ATOM     29  C   UNL     1       4.856  -0.410   0.045  0.00  0.00    +0.022 A 
ATOM     30  C   UNL     1       4.836   0.970  -0.052  0.00  0.00    +0.035 A 
ATOM     31  C   UNL     1       3.634   1.641  -0.135  0.00  0.00    +0.138 A 
ATOM     32 CL   UNL     1       3.706  -2.857   0.187  0.00  0.00    -0.084 Cl
BRANCH  31  33
ATOM     33  N   UNL     1       3.615   3.118  -0.244  0.00  0.00    +0.057 N 
ATOM     34  O   UNL     1       2.960   3.655  -1.119  0.00  0.00    -0.126 OA
ATOM     35  O   UNL     1       4.256   3.795   0.540  0.00  0.00    -0.126 OA
ENDBRANCH  31  33
ENDBRANCH  23  26
ENDBRANCH   3  22
TORSDOF 4
