REMARK  Name = ZINC62038643
REMARK  8 active torsions:
REMARK  status: ('A' for Active; 'I' for Inactive)
REMARK    1  A    between atoms: C_1  and  C_2
REMARK    2  A    between atoms: C_3  and  C_27
REMARK    3  A    between atoms: C_8  and  S_12
REMARK    4  A    between atoms: S_12  and  C_13
REMARK    5  A    between atoms: C_13  and  C_15
REMARK    6  A    between atoms: C_13  and  C_16
REMARK    7  A    between atoms: N_18  and  C_19
REMARK    8  A    between atoms: C_24  and  O_25
REMARK                            x       y       z     vdW  Elec       q    Type
REMARK                         _______ _______ _______ _____ _____    ______ ____
ROOT
ATOM      1  C   UNL     1       0.015   1.502   0.100  0.00  0.00    +0.052 C 
ATOM      2  C   UNL     1       0.031  -0.005   0.080  0.00  0.00    -0.003 A 
ATOM      3  C   UNL     1      -1.022  -0.858   0.073  0.00  0.00    +0.007 A 
ATOM      4  C   UNL     1      -0.762  -2.293   0.052  0.00  0.00    +0.080 A 
ATOM      5  C   UNL     1      -1.718  -3.424   0.041  0.00  0.00    +0.283 A 
ATOM      6  O   UNL     1      -2.921  -3.213   0.048  0.00  0.00    -0.265 OA
ATOM      7  N   UNL     1      -1.252  -4.676   0.021  0.00  0.00    -0.185 NA
ATOM      8  C   UNL     1       0.035  -4.948   0.012  0.00  0.00    +0.171 A 
ATOM      9  N   UNL     1       0.971  -3.957   0.022  0.00  0.00    -0.328 N 
ATOM     10  C   UNL     1       0.587  -2.651   0.041  0.00  0.00    +0.093 A 
ATOM     11  S   UNL     1       1.440  -1.097   0.051  0.00  0.00    -0.075 S 
ATOM     12  H   UNL     1       1.914  -4.183   0.015  0.00  0.00    +0.168 HD
ENDROOT
BRANCH   3  13
ATOM     13  C   UNL     1      -2.412  -0.342   0.086  0.00  0.00    -0.016 A 
ATOM     14  C   UNL     1      -3.238  -0.586   1.183  0.00  0.00    +0.008 A 
ATOM     15  C   UNL     1      -4.531  -0.103   1.190  0.00  0.00    +0.001 A 
ATOM     16  C   UNL     1      -5.007   0.621   0.112  0.00  0.00    +0.000 A 
ATOM     17  C   UNL     1      -4.192   0.867  -0.978  0.00  0.00    +0.001 A 
ATOM     18  C   UNL     1      -2.896   0.394  -0.994  0.00  0.00    +0.008 A 
ENDBRANCH   3  13
BRANCH   8  19
ATOM     19  S   UNL     1       0.561  -6.630  -0.014  0.00  0.00    -0.075 S 
BRANCH  19  20
ATOM     20  C   UNL     1      -0.989  -7.574  -0.020  0.00  0.00    +0.137 C 
ATOM     21  C   UNL     1      -1.747  -7.300  -1.321  0.00  0.00    +0.029 C 
BRANCH  20  22
ATOM     22  C   UNL     1      -0.681  -9.045   0.082  0.00  0.00    +0.230 C 
ATOM     23  O   UNL     1       0.423  -9.456  -0.208  0.00  0.00    -0.274 OA
ATOM     24  N   UNL     1      -1.632  -9.906   0.495  0.00  0.00    -0.282 N 
ATOM     25  H   UNL     1      -2.494  -9.571   0.789  0.00  0.00    +0.155 HD
BRANCH  24  26
ATOM     26  C   UNL     1      -1.376 -11.283   0.501  0.00  0.00    +0.077 A 
ATOM     27  C   UNL     1      -0.105 -11.753   0.796  0.00  0.00    +0.047 A 
ATOM     28  C   UNL     1       0.145 -13.113   0.801  0.00  0.00    +0.043 A 
ATOM     29  C   UNL     1      -0.871 -14.008   0.513  0.00  0.00    +0.023 A 
ATOM     30  C   UNL     1      -2.140 -13.546   0.219  0.00  0.00    +0.049 A 
ATOM     31  C   UNL     1      -2.399 -12.185   0.217  0.00  0.00    +0.138 A 
ATOM     32 CL   UNL     1       1.737 -13.700   1.170  0.00  0.00    -0.083 Cl
BRANCH  31  33
ATOM     33  O   UNL     1      -3.649 -11.730  -0.066  0.00  0.00    -0.505 OA
ATOM     34  H   UNL     1      -3.803 -11.563  -1.006  0.00  0.00    +0.292 HD
ENDBRANCH  31  33
ENDBRANCH  24  26
ENDBRANCH  20  22
ENDBRANCH  19  20
ENDBRANCH   8  19
TORSDOF 6
