REMARK  Name = ZINC20290925
REMARK  8 active torsions:
REMARK  status: ('A' for Active; 'I' for Inactive)
REMARK    1  A    between atoms: C_1  and  C_2
REMARK    2  A    between atoms: C_2  and  C_29
REMARK    3  A    between atoms: C_8  and  C_20
REMARK    4  A    between atoms: C_16  and  C_18
REMARK    5  A    between atoms: C_16  and  C_19
REMARK    6  A    between atoms: C_23  and  N_26
REMARK    7  A    between atoms: N_26  and  C_27
REMARK    8  A    between atoms: N_26  and  C_28
REMARK                            x       y       z     vdW  Elec       q    Type
REMARK                         _______ _______ _______ _____ _____    ______ ____
ROOT
ATOM      1  C   UNL     1      -0.013   1.086   0.008  0.00  0.00    +0.028 C 
ATOM      2  C   UNL     1      -0.734   1.583   1.275  0.00  0.00    +0.018 C 
ATOM      3  C   UNL     1       0.036   1.055   2.491  0.00  0.00    +0.058 C 
ATOM      4  C   UNL     1      -0.625   1.638   3.737  0.00  0.00    -0.021 A 
ATOM      5  C   UNL     1      -0.684   0.962   5.024  0.00  0.00    +0.055 A 
ATOM      6  C   UNL     1      -0.159  -0.363   5.410  0.00  0.00    +0.168 A 
ATOM      7  N   UNL     1       0.492  -1.303   4.754  0.00  0.00    -0.206 NA
ATOM      8  C   UNL     1       0.741  -2.328   5.576  0.00  0.00    +0.182 A 
ATOM      9  N   UNL     1       0.253  -2.057   6.771  0.00  0.00    -0.143 NA
ATOM     10  N   UNL     1      -0.338  -0.787   6.695  0.00  0.00    -0.201 N 
ATOM     11  C   UNL     1      -0.987  -0.006   7.600  0.00  0.00    +0.226 A 
ATOM     12  N   UNL     1      -1.460   1.165   7.276  0.00  0.00    -0.228 NA
ATOM     13  C   UNL     1      -1.337   1.664   6.052  0.00  0.00    +0.114 A 
ATOM     14  S   UNL     1      -1.841   3.174   5.267  0.00  0.00    -0.071 S 
ATOM     15  C   UNL     1      -1.196   2.861   3.648  0.00  0.00    +0.015 A 
ATOM     16  C   UNL     1      -1.251   3.733   2.436  0.00  0.00    +0.046 C 
ATOM     17  N   UNL     1      -0.778   3.035   1.246  0.00  0.00    -0.301 NA
ATOM     18  C   UNL     1      -2.690   4.226   2.228  0.00  0.00    +0.033 C 
ATOM     19  C   UNL     1      -0.358   4.964   2.683  0.00  0.00    +0.033 C 
ATOM     20  C   UNL     1      -2.146   0.990   1.275  0.00  0.00    +0.028 C 
ATOM     21  H   UNL     1       0.234   3.429   1.068  0.00  0.00    +0.123 HD
ENDROOT
BRANCH   8  22
ATOM     22  C   UNL     1       1.453  -3.575   5.202  0.00  0.00    +0.021 A 
ATOM     23  C   UNL     1       1.919  -3.748   3.899  0.00  0.00    +0.013 A 
ATOM     24  C   UNL     1       2.584  -4.905   3.555  0.00  0.00    +0.024 A 
ATOM     25  C   UNL     1       2.782  -5.903   4.503  0.00  0.00    +0.029 A 
ATOM     26  C   UNL     1       2.313  -5.734   5.801  0.00  0.00    +0.024 A 
ATOM     27  C   UNL     1       1.651  -4.576   6.151  0.00  0.00    +0.013 A 
BRANCH  25  28
ATOM     28  N   UNL     1       3.450  -7.076   4.151  0.00  0.00    -0.336 N 
ATOM     29  C   UNL     1       3.659  -8.128   5.149  0.00  0.00    +0.129 C 
ATOM     30  C   UNL     1       3.945  -7.255   2.783  0.00  0.00    +0.129 C 
ENDBRANCH  25  28
ENDBRANCH   8  22
TORSDOF 2
