REMARK  Name = ZINC00638789
REMARK  9 active torsions:
REMARK  status: ('A' for Active; 'I' for Inactive)
REMARK    1  A    between atoms: C_1  and  C_2
REMARK    2  A    between atoms: C_2  and  C_36
REMARK    3  A    between atoms: C_6  and  N_27
REMARK    4  A    between atoms: C_8  and  C_14
REMARK    5  A    between atoms: C_14  and  C_16
REMARK    6  A    between atoms: C_14  and  O_26
REMARK    7  A    between atoms: C_16  and  N_17
REMARK    8  A    between atoms: C_18  and  C_20
REMARK    9  A    between atoms: C_28  and  C_30
REMARK                            x       y       z     vdW  Elec       q    Type
REMARK                         _______ _______ _______ _____ _____    ______ ____
ROOT
ATOM      1  C   UNL     1     -11.810   5.386   1.946  0.00  0.00    +0.074 C 
ATOM      2  C   UNL     1     -10.397   5.449   1.361  0.00  0.00    +0.168 C 
ATOM      3  O   UNL     1     -10.264   4.417   0.347  0.00  0.00    -0.339 OA
ATOM      4  C   UNL     1      -9.636   3.318   1.039  0.00  0.00    +0.200 C 
ATOM      5  C   UNL     1      -8.613   2.645   0.092  0.00  0.00    +0.138 C 
ATOM      6  C   UNL     1      -7.444   3.651   0.086  0.00  0.00    +0.174 C 
ATOM      7  O   UNL     1      -7.545   4.436   1.279  0.00  0.00    -0.341 OA
ATOM      8  C   UNL     1      -8.689   4.039   2.049  0.00  0.00    +0.285 C 
ATOM      9  O   UNL     1      -9.436   5.221   2.399  0.00  0.00    -0.318 OA
ATOM     10  C   UNL     1     -10.163   6.827   0.738  0.00  0.00    +0.074 C 
ENDROOT
BRANCH   5  11
ATOM     11  N   UNL     1      -9.170   2.488  -1.254  0.00  0.00    -0.303 N 
ATOM     12  C   UNL     1      -8.631   1.595  -2.107  0.00  0.00    +0.244 C 
ATOM     13  O   UNL     1      -7.683   0.918  -1.759  0.00  0.00    -0.270 OA
ATOM     14  H   UNL     1      -9.927   3.028  -1.532  0.00  0.00    +0.149 HD
BRANCH  12  15
ATOM     15  C   UNL     1      -9.193   1.437  -3.465  0.00  0.00    +0.037 A 
ATOM     16  C   UNL     1     -10.286   2.208  -3.865  0.00  0.00    +0.013 A 
ATOM     17  C   UNL     1     -10.803   2.058  -5.136  0.00  0.00    +0.001 A 
ATOM     18  C   UNL     1     -10.247   1.140  -6.009  0.00  0.00    +0.000 A 
ATOM     19  C   UNL     1      -9.167   0.369  -5.617  0.00  0.00    +0.001 A 
ATOM     20  C   UNL     1      -8.637   0.512  -4.351  0.00  0.00    +0.013 A 
ENDBRANCH  12  15
ENDBRANCH   5  11
BRANCH   6  21
ATOM     21  C   UNL     1      -6.111   2.899   0.071  0.00  0.00    +0.162 C 
BRANCH  21  22
ATOM     22  O   UNL     1      -6.038   2.084  -1.100  0.00  0.00    -0.388 OA
ATOM     23  H   UNL     1      -6.095   2.579  -1.929  0.00  0.00    +0.210 HD
ENDBRANCH  21  22
BRANCH  21  24
ATOM     24  C   UNL     1      -4.958   3.905   0.066  0.00  0.00    +0.138 C 
BRANCH  24  25
ATOM     25  N   UNL     1      -3.683   3.185   0.051  0.00  0.00    -0.309 N 
ATOM     26  C   UNL     1      -2.522   3.870   0.044  0.00  0.00    +0.244 C 
ATOM     27  O   UNL     1      -2.534   5.085   0.050  0.00  0.00    -0.270 OA
ATOM     28  H   UNL     1      -3.673   2.215   0.046  0.00  0.00    +0.149 HD
BRANCH  26  29
ATOM     29  C   UNL     1      -1.234   3.143   0.029  0.00  0.00    +0.037 A 
ATOM     30  C   UNL     1      -1.217   1.748   0.017  0.00  0.00    +0.013 A 
ATOM     31  C   UNL     1      -0.013   1.076   0.008  0.00  0.00    +0.001 A 
ATOM     32  C   UNL     1       1.177   1.782   0.000  0.00  0.00    +0.000 A 
ATOM     33  C   UNL     1       1.167   3.166   0.008  0.00  0.00    +0.001 A 
ATOM     34  C   UNL     1      -0.031   3.850   0.022  0.00  0.00    +0.013 A 
ENDBRANCH  26  29
ENDBRANCH  24  25
ENDBRANCH  21  24
ENDBRANCH   6  21
TORSDOF 7
