REMARK  Name = ZINC06822159
REMARK  13 active torsions:
REMARK  status: ('A' for Active; 'I' for Inactive)
REMARK    1  A    between atoms: C_1  and  C_2
REMARK    2  A    between atoms: C_2  and  C_3
REMARK    3  A    between atoms: C_6  and  N_9
REMARK    4  A    between atoms: N_9  and  C_10
REMARK    5  A    between atoms: C_10  and  C_12
REMARK    6  A    between atoms: C_10  and  C_19
REMARK    7  A    between atoms: N_21  and  C_22
REMARK    8  A    between atoms: C_22  and  C_23
REMARK    9  A    between atoms: C_23  and  O_24
REMARK   10  A    between atoms: O_24  and  C_25
REMARK   11  A    between atoms: C_26  and  C_28
REMARK   12  A    between atoms: C_29  and  N_36
REMARK   13  A    between atoms: C_30  and  C_33
REMARK                            x       y       z     vdW  Elec       q    Type
REMARK                         _______ _______ _______ _____ _____    ______ ____
ROOT
ATOM      1  N   UNL     1      -2.741   3.303   5.003  0.00  0.00    -0.251 N 
ATOM      2  C   UNL     1      -3.939   2.776   5.325  0.00  0.00    +0.262 C 
ATOM      3  O   UNL     1      -4.539   2.089   4.519  0.00  0.00    -0.269 OA
ENDROOT
BRANCH   1   7
ATOM      4  C   UNL     1      -1.239   2.859   1.144  0.00  0.00    -0.048 A 
ATOM      5  C   UNL     1      -1.639   4.105   1.589  0.00  0.00    +0.005 A 
ATOM      6  C   UNL     1      -2.143   4.255   2.866  0.00  0.00    +0.024 A 
ATOM      7  C   UNL     1      -2.237   3.154   3.707  0.00  0.00    +0.038 A 
ATOM      8  C   UNL     1      -1.830   1.904   3.259  0.00  0.00    +0.024 A 
ATOM      9  C   UNL     1      -1.332   1.760   1.978  0.00  0.00    +0.005 A 
BRANCH   4  11
ATOM     10  C   UNL     1      -1.844   2.385  -1.214  0.00  0.00    +0.009 C 
ATOM     11  C   UNL     1      -0.696   2.698  -0.253  0.00  0.00    +0.032 C 
ENDBRANCH   4  11
ENDBRANCH   1   7
BRANCH   2  12
ATOM     12  C   UNL     1      -4.520   3.030   6.645  0.00  0.00    +0.116 A 
ATOM     13  C   UNL     1      -5.668   2.487   7.226  0.00  0.00    +0.076 A 
ATOM     14  C   UNL     1      -5.897   2.976   8.512  0.00  0.00    +0.155 A 
ATOM     15  N   UNL     1      -5.066   3.858   9.023  0.00  0.00    -0.203 NA
ATOM     16  S   UNL     1      -3.956   4.119   7.936  0.00  0.00    +0.019 S 
BRANCH  14  17
ATOM     17  C   UNL     1      -7.062   2.513   9.288  0.00  0.00    +0.262 C 
ATOM     18  O   UNL     1      -7.826   1.697   8.810  0.00  0.00    -0.269 OA
ATOM     19  N   UNL     1      -7.280   2.994  10.528  0.00  0.00    -0.324 N 
ATOM     20  H   UNL     1      -6.670   3.645  10.910  0.00  0.00    +0.145 HD
ATOM     21  H   UNL     1      -8.046   2.690  11.039  0.00  0.00    +0.145 HD
ENDBRANCH  14  17
BRANCH  13  22
ATOM     22  N   UNL     1      -6.488   1.561   6.595  0.00  0.00    -0.355 N 
ATOM     23  H   UNL     1      -6.276   1.256   5.699  0.00  0.00    +0.142 HD
ATOM     24  H   UNL     1      -7.273   1.220   7.050  0.00  0.00    +0.142 HD
ENDBRANCH  13  22
ENDBRANCH   2  12
BRANCH   1  25
ATOM     25  C   UNL     1      -1.967   4.032   6.011  0.00  0.00    +0.197 C 
BRANCH  25  26
ATOM     26  C   UNL     1      -0.752   4.645   5.364  0.00  0.00    -0.018 A 
ATOM     27  C   UNL     1       0.105   3.858   4.619  0.00  0.00    +0.009 A 
ATOM     28  C   UNL     1       1.217   4.420   4.021  0.00  0.00    +0.038 A 
ATOM     29  C   UNL     1       1.478   5.771   4.178  0.00  0.00    +0.123 A 
ATOM     30  C   UNL     1       0.621   6.558   4.928  0.00  0.00    +0.038 A 
ATOM     31  C   UNL     1      -0.493   5.994   5.521  0.00  0.00    +0.009 A 
ATOM     32  F   UNL     1       2.567   6.321   3.598  0.00  0.00    -0.205 F 
ENDBRANCH  25  26
BRANCH  25  33
ATOM     33  C   UNL     1      -1.532   3.080   7.095  0.00  0.00    +0.239 C 
ATOM     34  O   UNL     1      -1.839   1.908   7.033  0.00  0.00    -0.273 OA
ATOM     35  N   UNL     1      -0.802   3.531   8.135  0.00  0.00    -0.311 N 
ATOM     36  H   UNL     1      -0.557   4.468   8.185  0.00  0.00    +0.149 HD
BRANCH  35  37
ATOM     37  C   UNL     1      -0.380   2.606   9.189  0.00  0.00    +0.132 C 
BRANCH  37  38
ATOM     38  C   UNL     1       0.429   3.368  10.242  0.00  0.00    +0.178 C 
BRANCH  38  39
ATOM     39  O   UNL     1      -0.414   4.321  10.891  0.00  0.00    -0.381 OA
ATOM     40  C   UNL     1       0.247   5.090  11.898  0.00  0.00    +0.194 C 
ENDBRANCH  38  39
ENDBRANCH  37  38
ENDBRANCH  35  37
ENDBRANCH  25  33
ENDBRANCH   1  25
TORSDOF 11
