REMARK  Name = ZINC14668662
REMARK  12 active torsions:
REMARK  status: ('A' for Active; 'I' for Inactive)
REMARK    1  A    between atoms: C_1  and  C_2
REMARK    2  A    between atoms: C_7  and  O_8
REMARK    3  A    between atoms: O_8  and  C_9
REMARK    4  A    between atoms: C_9  and  C_10
REMARK    5  A    between atoms: N_12  and  N_13
REMARK    6  A    between atoms: N_13  and  C_14
REMARK    7  A    between atoms: C_14  and  N_16
REMARK    8  A    between atoms: C_17  and  C_19
REMARK    9  A    between atoms: C_24  and  O_25
REMARK   10  A    between atoms: O_25  and  C_26
REMARK   11  A    between atoms: C_26  and  C_27
REMARK   12  A    between atoms: C_26  and  C_28
REMARK                            x       y       z     vdW  Elec       q    Type
REMARK                         _______ _______ _______ _____ _____    ______ ____
ROOT
ATOM      1  C   UNL     1      -4.484  -0.821   0.666  0.00  0.00    +0.153 C 
ATOM      2  S   UNL     1      -4.746   0.845   0.962  0.00  0.00    -0.017 S 
ENDROOT
BRANCH   1   3
ATOM      3  N   UNL     1      -3.254  -1.261   0.336  0.00  0.00    -0.263 N 
ATOM      4  C   UNL     1      -2.230  -0.390   0.239  0.00  0.00    +0.253 C 
ATOM      5  O   UNL     1      -2.416   0.793   0.450  0.00  0.00    -0.270 OA
ATOM      6  H   UNL     1      -3.105  -2.204   0.168  0.00  0.00    +0.157 HD
BRANCH   4   7
ATOM      7  C   UNL     1      -0.884  -0.871  -0.122  0.00  0.00    +0.080 A 
ATOM      8  C   UNL     1      -0.666  -2.229  -0.369  0.00  0.00    +0.032 A 
ATOM      9  C   UNL     1       0.596  -2.674  -0.701  0.00  0.00    +0.019 A 
ATOM     10  C   UNL     1       1.650  -1.778  -0.796  0.00  0.00    +0.019 A 
ATOM     11  C   UNL     1       1.447  -0.433  -0.559  0.00  0.00    +0.047 A 
ATOM     12  C   UNL     1       0.184   0.031  -0.224  0.00  0.00    +0.133 A 
ATOM     13 BR   UNL     1       0.890  -4.513  -1.029  0.00  0.00    -0.050 Br
BRANCH  12  14
ATOM     14  O   UNL     1      -0.016   1.352   0.009  0.00  0.00    -0.489 OA
BRANCH  14  15
ATOM     15  C   UNL     1       1.139   2.193   0.011  0.00  0.00    +0.167 C 
ATOM     16  C   UNL     1       1.464   2.616  -1.424  0.00  0.00    +0.051 C 
ATOM     17  C   UNL     1       0.864   3.437   0.859  0.00  0.00    +0.051 C 
ENDBRANCH  14  15
ENDBRANCH  12  14
ENDBRANCH   4   7
ENDBRANCH   1   3
BRANCH   1  18
ATOM     18  N   UNL     1      -5.508  -1.692   0.763  0.00  0.00    -0.245 N 
ATOM     19  H   UNL     1      -6.394  -1.375   1.000  0.00  0.00    +0.172 HD
BRANCH  18  22
ATOM     20  C   UNL     1      -6.317  -3.926   0.617  0.00  0.00    +0.267 C 
ATOM     21  O   UNL     1      -7.425  -3.530   0.914  0.00  0.00    -0.271 OA
ATOM     22  N   UNL     1      -5.293  -3.055   0.520  0.00  0.00    -0.232 N 
ATOM     23  H   UNL     1      -4.408  -3.372   0.282  0.00  0.00    +0.173 HD
BRANCH  20  24
ATOM     24  C   UNL     1      -6.087  -5.392   0.356  0.00  0.00    +0.326 C 
BRANCH  24  25
ATOM     25  O   UNL     1      -7.315  -6.104   0.519  0.00  0.00    -0.482 OA
BRANCH  25  32
ATOM     26  C   UNL     1      -9.729  -7.532   0.850  0.00  0.00    +0.047 C 
ATOM     27  C   UNL     1      -8.435  -8.202   0.467  0.00  0.00    -0.007 A 
ATOM     28  C   UNL     1      -8.399  -9.567   0.257  0.00  0.00    +0.027 A 
ATOM     29  C   UNL     1      -7.210 -10.184  -0.089  0.00  0.00    +0.041 A 
ATOM     30  C   UNL     1      -6.056  -9.434  -0.232  0.00  0.00    +0.023 A 
ATOM     31  C   UNL     1      -6.089  -8.068  -0.029  0.00  0.00    +0.047 A 
ATOM     32  C   UNL     1      -7.280  -7.448   0.319  0.00  0.00    +0.124 A 
ATOM     33 CL   UNL     1      -7.166 -11.900  -0.345  0.00  0.00    -0.084 Cl
ENDBRANCH  25  32
ENDBRANCH  24  25
ENDBRANCH  20  24
ENDBRANCH  18  22
ENDBRANCH   1  18
TORSDOF 9
