REMARK  Name = ZINC54201283
REMARK  6 active torsions:
REMARK  status: ('A' for Active; 'I' for Inactive)
REMARK    1  A    between atoms: C_1  and  O_2
REMARK    2  A    between atoms: O_2  and  C_3
REMARK    3  A    between atoms: C_6  and  C_9
REMARK    4  A    between atoms: C_12  and  C_15
REMARK    5  A    between atoms: C_20  and  O_21
REMARK    6  A    between atoms: C_28  and  C_29
REMARK                            x       y       z     vdW  Elec       q    Type
REMARK                         _______ _______ _______ _____ _____    ______ ____
ROOT
ATOM      1  C   UNL     1       3.085  -2.579  -4.181  0.00  0.00    +0.069 C 
ATOM      2  N   UNL     1       3.413  -1.933  -5.248  0.00  0.00    -0.182 NA
ATOM      3  N   UNL     1       3.664  -2.746  -6.351  0.00  0.00    -0.200 N 
ATOM      4  C   UNL     1       3.473  -4.152  -5.960  0.00  0.00    +0.139 C 
ATOM      5  C   UNL     1       3.081  -4.063  -4.472  0.00  0.00    +0.087 C 
ATOM      6  C   UNL     1       4.029  -2.308  -7.599  0.00  0.00    +0.149 C 
ATOM      7  N   UNL     1       4.239  -3.137  -8.578  0.00  0.00    -0.153 NA
ATOM      8  C   UNL     1       4.595  -2.724  -9.801  0.00  0.00    +0.302 C 
ATOM      9  O   UNL     1       4.819  -3.396 -10.794  0.00  0.00    -0.260 OA
ATOM     10  S   UNL     1       4.662  -0.948  -9.620  0.00  0.00    -0.026 S 
ATOM     11  C   UNL     1       4.196  -0.871  -7.895  0.00  0.00    +0.057 C 
ATOM     12  C   UNL     1       4.040   0.208  -7.084  0.00  0.00    +0.028 C 
ENDROOT
BRANCH   1  16
ATOM     13  C   UNL     1       2.172  -0.814  -0.430  0.00  0.00    +0.120 A 
ATOM     14  C   UNL     1       2.509  -0.009  -1.511  0.00  0.00    +0.046 A 
ATOM     15  C   UNL     1       2.806  -0.577  -2.730  0.00  0.00    +0.013 A 
ATOM     16  C   UNL     1       2.769  -1.966  -2.879  0.00  0.00    -0.002 A 
ATOM     17  C   UNL     1       2.430  -2.772  -1.788  0.00  0.00    +0.013 A 
ATOM     18  C   UNL     1       2.140  -2.195  -0.571  0.00  0.00    +0.046 A 
BRANCH  13  20
ATOM     19  C   UNL     1       1.933   1.177   0.846  0.00  0.00    +0.277 C 
ATOM     20  O   UNL     1       1.880  -0.249   0.770  0.00  0.00    -0.495 OA
ENDBRANCH  13  20
ENDBRANCH   1  16
BRANCH   4  21
ATOM     21  C   UNL     1       4.755  -4.926  -6.123  0.00  0.00    +0.017 A 
ATOM     22  C   UNL     1       5.969  -4.267  -6.099  0.00  0.00    +0.009 A 
ATOM     23  C   UNL     1       7.146  -4.977  -6.250  0.00  0.00    +0.001 A 
ATOM     24  C   UNL     1       7.111  -6.349  -6.423  0.00  0.00    +0.004 A 
ATOM     25  C   UNL     1       5.900  -7.012  -6.447  0.00  0.00    +0.046 A 
ATOM     26  C   UNL     1       4.718  -6.303  -6.291  0.00  0.00    +0.122 A 
BRANCH  26  27
ATOM     27  O   UNL     1       3.526  -6.954  -6.309  0.00  0.00    -0.506 OA
ATOM     28  H   UNL     1       3.134  -7.034  -7.189  0.00  0.00    +0.292 HD
ENDBRANCH  26  27
ENDBRANCH   4  21
BRANCH  12  29
ATOM     29  C   UNL     1       4.435   1.543  -7.553  0.00  0.00    -0.006 A 
ATOM     30  C   UNL     1       5.122   1.700  -8.767  0.00  0.00    +0.011 A 
ATOM     31  C   UNL     1       5.470   2.978  -9.162  0.00  0.00    +0.020 A 
ATOM     32  C   UNL     1       5.133   4.052  -8.357  0.00  0.00    +0.111 A 
ATOM     33  N   UNL     1       4.487   3.877  -7.220  0.00  0.00    -0.263 NA
ATOM     34  C   UNL     1       4.127   2.683  -6.801  0.00  0.00    +0.118 A 
ENDBRANCH  12  29
TORSDOF 5
