REMARK  Name = ZINC09040096
REMARK  4 active torsions:
REMARK  status: ('A' for Active; 'I' for Inactive)
REMARK    1  A    between atoms: C_6  and  N_7
REMARK    2  A    between atoms: C_9  and  C_14
REMARK    3  A    between atoms: C_14  and  N_15
REMARK    4  A    between atoms: N_18  and  C_19
REMARK                            x       y       z     vdW  Elec       q    Type
REMARK                         _______ _______ _______ _____ _____    ______ ____
ROOT
ATOM      1  N   UNL     1       5.806   7.166  -0.002  0.00  0.00    -0.299 N 
ATOM      2  C   UNL     1       6.504   8.164  -0.579  0.00  0.00    +0.300 C 
ATOM      3  O   UNL     1       6.002   8.823  -1.469  0.00  0.00    -0.253 OA
ATOM      4  N   UNL     1       7.760   8.432  -0.169  0.00  0.00    -0.294 N 
ATOM      5  H   UNL     1       6.207   6.641   0.708  0.00  0.00    +0.150 HD
ATOM      6  H   UNL     1       8.161   7.907   0.540  0.00  0.00    +0.151 HD
ENDROOT
BRANCH   4   7
ATOM      7  C   UNL     1       8.519   9.517  -0.796  0.00  0.00    +0.037 C 
ATOM      8  C   UNL     1       7.776  10.840  -0.599  0.00  0.00    +0.029 C 
ATOM      9  C   UNL     1       8.569  11.973  -1.254  0.00  0.00    -0.008 C 
ATOM     10  C   UNL     1       9.954  12.065  -0.610  0.00  0.00    +0.007 C 
ATOM     11  C   UNL     1      10.697  10.742  -0.807  0.00  0.00    -0.008 C 
ATOM     12  C   UNL     1       9.904   9.609  -0.152  0.00  0.00    +0.029 C 
ATOM     13  C   UNL     1      10.848  10.460  -2.303  0.00  0.00    +0.007 C 
ATOM     14  C   UNL     1       9.464  10.368  -2.947  0.00  0.00    -0.008 C 
ATOM     15  C   UNL     1       8.720  11.691  -2.750  0.00  0.00    +0.007 C 
ATOM     16  C   UNL     1       8.671   9.235  -2.293  0.00  0.00    +0.029 C 
ENDBRANCH   4   7
BRANCH   1  17
ATOM     17  C   UNL     1       4.441   6.875  -0.447  0.00  0.00    +0.111 C 
BRANCH  17  20
ATOM     18  N   UNL     1       2.357   3.889   0.000  0.00  0.00    -0.271 N 
ATOM     19  C   UNL     1       2.448   5.349  -0.104  0.00  0.00    +0.119 C 
ATOM     20  C   UNL     1       3.879   5.706   0.364  0.00  0.00    +0.033 C 
ATOM     21  C   UNL     1       4.644   4.399   0.054  0.00  0.00    +0.103 C 
ATOM     22  C   UNL     1       3.576   3.328   0.081  0.00  0.00    +0.220 C 
ATOM     23  O   UNL     1       3.788   2.136   0.164  0.00  0.00    -0.275 OA
BRANCH  18  29
ATOM     24  C   UNL     1       1.174   1.782  -0.015  0.00  0.00    +0.026 A 
ATOM     25  C   UNL     1      -0.013   1.076  -0.007  0.00  0.00    +0.040 A 
ATOM     26  C   UNL     1      -1.221   1.751   0.017  0.00  0.00    +0.124 A 
ATOM     27  C   UNL     1      -1.243   3.136   0.046  0.00  0.00    +0.040 A 
ATOM     28  C   UNL     1      -0.058   3.846   0.039  0.00  0.00    +0.026 A 
ATOM     29  C   UNL     1       1.155   3.171   0.008  0.00  0.00    +0.036 A 
ATOM     30  F   UNL     1      -2.381   1.059   0.019  0.00  0.00    -0.205 F 
ENDBRANCH  18  29
ENDBRANCH  17  20
ENDBRANCH   1  17
TORSDOF 4
