REMARK  Name = ZINC03191381
REMARK  5 active torsions:
REMARK  status: ('A' for Active; 'I' for Inactive)
REMARK    1  A    between atoms: C_4  and  C_7
REMARK    2  A    between atoms: C_7  and  N_8
REMARK    3  A    between atoms: C_12  and  C_23
REMARK    4  A    between atoms: C_16  and  O_22
REMARK    5  A    between atoms: C_26  and  N_29
REMARK                            x       y       z     vdW  Elec       q    Type
REMARK                         _______ _______ _______ _____ _____    ______ ____
ROOT
ATOM      1  N   UNL     1       1.153   1.872   0.001  0.00  0.00    -0.252 N 
ATOM      2  C   UNL     1      -0.014   1.212   0.009  0.00  0.00    +0.305 C 
ATOM      3  O   UNL     1       0.002  -0.004   0.002  0.00  0.00    -0.253 OA
ATOM      4  N   UNL     1      -1.200   1.840   0.018  0.00  0.00    -0.292 N 
ATOM      5  C   UNL     1      -1.287   3.301   0.016  0.00  0.00    +0.119 C 
ATOM      6  C   UNL     1      -0.045   3.883   0.697  0.00  0.00    +0.130 C 
ATOM      7  C   UNL     1       1.202   3.334  -0.005  0.00  0.00    +0.148 C 
ATOM      8  C   UNL     1       1.243   3.839  -1.447  0.00  0.00    +0.056 C 
ATOM      9  C   UNL     1       1.368   5.364  -1.463  0.00  0.00    +0.012 C 
ATOM     10  C   UNL     1       0.118   5.982  -0.827  0.00  0.00    +0.075 C 
ATOM     11  C   UNL     1      -0.061   5.388   0.553  0.00  0.00    +0.143 C 
ATOM     12  O   UNL     1      -0.212   6.099   1.517  0.00  0.00    -0.297 OA
ATOM     13  H   UNL     1      -2.015   1.315   0.029  0.00  0.00    +0.151 HD
ENDROOT
BRANCH   5  14
ATOM     14  C   UNL     1      -2.521   3.736   0.763  0.00  0.00    -0.026 A 
ATOM     15  C   UNL     1      -2.897   3.079   1.919  0.00  0.00    +0.008 A 
ATOM     16  C   UNL     1      -4.027   3.481   2.606  0.00  0.00    +0.033 A 
ATOM     17  C   UNL     1      -4.786   4.535   2.132  0.00  0.00    +0.126 A 
ATOM     18  C   UNL     1      -4.413   5.188   0.973  0.00  0.00    +0.033 A 
ATOM     19  C   UNL     1      -3.281   4.789   0.288  0.00  0.00    +0.008 A 
BRANCH  17  20
ATOM     20  N   UNL     1      -5.999   4.963   2.866  0.00  0.00    +0.056 N 
ATOM     21  O   UNL     1      -6.668   5.891   2.448  0.00  0.00    -0.126 OA
ATOM     22  O   UNL     1      -6.327   4.387   3.888  0.00  0.00    -0.126 OA
ENDBRANCH  17  20
ENDBRANCH   5  14
BRANCH   7  23
ATOM     23  O   UNL     1       2.372   3.775   0.688  0.00  0.00    -0.371 OA
ATOM     24  H   UNL     1       3.200   3.460   0.300  0.00  0.00    +0.212 HD
ENDBRANCH   7  23
BRANCH   1  25
ATOM     25  C   UNL     1       2.406   1.112  -0.002  0.00  0.00    +0.147 C 
BRANCH  25  29
ATOM     26  C   UNL     1       3.606   0.359  -4.032  0.00  0.00    +0.000 A 
ATOM     27  C   UNL     1       4.032   1.505  -3.386  0.00  0.00    +0.000 A 
ATOM     28  C   UNL     1       3.644   1.749  -2.082  0.00  0.00    +0.005 A 
ATOM     29  C   UNL     1       2.829   0.847  -1.423  0.00  0.00    -0.030 A 
ATOM     30  C   UNL     1       2.407  -0.302  -2.067  0.00  0.00    +0.005 A 
ATOM     31  C   UNL     1       2.792  -0.543  -3.373  0.00  0.00    +0.000 A 
ENDBRANCH  25  29
ENDBRANCH   1  25
TORSDOF 5
