REMARK  Name = ZINC04611301
REMARK  3 active torsions:
REMARK  status: ('A' for Active; 'I' for Inactive)
REMARK    1  A    between atoms: C_1  and  C_2
REMARK    2  A    between atoms: N_16  and  N_17
REMARK    3  A    between atoms: C_18  and  C_19
REMARK                            x       y       z     vdW  Elec       q    Type
REMARK                         _______ _______ _______ _____ _____    ______ ____
ROOT
ATOM      1  C   UNL     1      11.770   7.532  -0.075  0.00  0.00    +0.044 C 
ATOM      2  C   UNL     1      10.392   8.142  -0.058  0.00  0.00    -0.050 A 
ATOM      3  C   UNL     1      10.246   9.520  -0.050  0.00  0.00    +0.005 A 
ATOM      4  C   UNL     1       8.992  10.093  -0.034  0.00  0.00    +0.026 A 
ATOM      5  C   UNL     1       7.859   9.287  -0.027  0.00  0.00    +0.050 A 
ATOM      6  C   UNL     1       8.007   7.891  -0.035  0.00  0.00    +0.029 A 
ATOM      7  C   UNL     1       9.281   7.326  -0.050  0.00  0.00    +0.015 A 
ATOM      8  C   UNL     1       6.646   7.328  -0.024  0.00  0.00    +0.138 A 
ATOM      9  C   UNL     1       5.763   8.428  -0.010  0.00  0.00    +0.163 A 
ATOM     10  N   UNL     1       6.505   9.583  -0.012  0.00  0.00    -0.338 N 
ATOM     11  H   UNL     1       6.135  10.479  -0.004  0.00  0.00    +0.167 HD
ATOM     12  N   UNL     1       4.456   8.187  -0.003  0.00  0.00    -0.192 NA
ATOM     13  C   UNL     1       4.027   6.931   0.000  0.00  0.00    +0.256 A 
ATOM     14  N   UNL     1       4.879   5.912  -0.013  0.00  0.00    -0.111 NA
ATOM     15  N   UNL     1       6.155   6.098  -0.025  0.00  0.00    -0.142 NA
ATOM     16  N   UNL     1       2.667   6.679   0.012  0.00  0.00    -0.204 N 
ATOM     17  H   UNL     1       2.036   7.416   0.021  0.00  0.00    +0.177 HD
ENDROOT
BRANCH  16  18
ATOM     18  N   UNL     1       2.199   5.358   0.009  0.00  0.00    -0.187 NA
ATOM     19  C   UNL     1       0.921   5.121   0.020  0.00  0.00    +0.145 C 
BRANCH  19  20
ATOM     20  C   UNL     1       0.431   3.737   0.018  0.00  0.00    +0.032 A 
ATOM     21  C   UNL     1      -0.872   3.273   0.028  0.00  0.00    +0.017 A 
ATOM     22  C   UNL     1      -1.082   1.913   0.017  0.00  0.00    +0.008 A 
ATOM     23  C   UNL     1      -0.013   1.076   0.008  0.00  0.00    +0.046 A 
ATOM     24  S   UNL     1       1.362   2.214   0.001  0.00  0.00    -0.096 S 
ENDBRANCH  19  20
ENDBRANCH  16  18
TORSDOF 2
