REMARK  Name = ZINC66249641
REMARK  7 active torsions:
REMARK  status: ('A' for Active; 'I' for Inactive)
REMARK    1  A    between atoms: C_1  and  C_2
REMARK    2  A    between atoms: N_11  and  S_12
REMARK    3  A    between atoms: S_12  and  C_15
REMARK    4  A    between atoms: C_18  and  C_20
REMARK    5  A    between atoms: C_20  and  C_21
REMARK    6  A    between atoms: C_21  and  N_22
REMARK    7  A    between atoms: C_23  and  C_25
REMARK                            x       y       z     vdW  Elec       q    Type
REMARK                         _______ _______ _______ _____ _____    ______ ____
ROOT
ATOM      1  S   UNL     1      -0.545  -7.000   1.782  0.00  0.00    +0.107 S 
ATOM      2  O   UNL     1      -1.846  -6.676   2.253  0.00  0.00    -0.146 OA
ATOM      3  O   UNL     1      -0.250  -7.141   0.399  0.00  0.00    -0.146 OA
ENDROOT
BRANCH   1  13
ATOM      4  C   UNL     1      -0.019   1.526   0.010  0.00  0.00    +0.008 C 
ATOM      5  C   UNL     1       0.002  -0.004   0.002  0.00  0.00    -0.009 C 
ATOM      6  C   UNL     1      -1.433  -0.538   0.023  0.00  0.00    +0.010 C 
ATOM      7  C   UNL     1      -1.429  -2.047  -0.222  0.00  0.00    +0.054 C 
ATOM      8  C   UNL     1      -0.472  -2.708   0.768  0.00  0.00    +0.028 A 
ATOM      9  C   UNL     1       0.463  -1.982   1.390  0.00  0.00    +0.013 A 
ATOM     10  S   UNL     1       1.312  -3.155   2.415  0.00  0.00    -0.053 S 
ATOM     11  C   UNL     1       0.359  -4.596   1.957  0.00  0.00    +0.192 A 
ATOM     12  N   UNL     1      -0.529  -4.055   1.058  0.00  0.00    -0.336 N 
ATOM     13  N   UNL     1       0.475  -5.835   2.367  0.00  0.00    -0.103 NA
ATOM     14  C   UNL     1       0.736  -0.517   1.250  0.00  0.00    +0.047 C 
ATOM     15  H   UNL     1      -1.192  -4.618   0.629  0.00  0.00    +0.168 HD
ENDBRANCH   1  13
BRANCH   1  16
ATOM     16  C   UNL     1      -0.095  -8.521   2.550  0.00  0.00    +0.150 A 
ATOM     17  C   UNL     1      -0.556  -9.063   3.704  0.00  0.00    +0.037 A 
ATOM     18  C   UNL     1      -0.054 -10.283   4.118  0.00  0.00    +0.013 A 
ATOM     19  C   UNL     1       0.885 -10.899   3.359  0.00  0.00    -0.007 A 
ATOM     20  S   UNL     1       1.080  -9.750   2.007  0.00  0.00    -0.073 S 
BRANCH  19  21
ATOM     21  C   UNL     1       1.579 -12.217   3.593  0.00  0.00    +0.061 C 
BRANCH  21  22
ATOM     22  C   UNL     1       0.774 -13.341   2.938  0.00  0.00    +0.109 C 
BRANCH  22  23
ATOM     23  N   UNL     1       1.448 -14.621   3.165  0.00  0.00    -0.315 N 
ATOM     24  C   UNL     1       0.917 -15.759   2.675  0.00  0.00    +0.210 C 
ATOM     25  O   UNL     1      -0.119 -15.723   2.047  0.00  0.00    -0.276 OA
ATOM     26  C   UNL     1       1.611 -17.076   2.909  0.00  0.00    +0.109 C 
ATOM     27  H   UNL     1       2.277 -14.650   3.668  0.00  0.00    +0.149 HD
ENDBRANCH  22  23
ENDBRANCH  21  22
ENDBRANCH  19  21
ENDBRANCH   1  16
TORSDOF 5
