REMARK  Name = ZINC36341795
REMARK  5 active torsions:
REMARK  status: ('A' for Active; 'I' for Inactive)
REMARK    1  A    between atoms: C_5  and  C_7
REMARK    2  A    between atoms: C_10  and  C_13
REMARK    3  A    between atoms: C_22  and  C_24
REMARK    4  A    between atoms: C_24  and  N_25
REMARK    5  A    between atoms: N_28  and  C_31
REMARK                            x       y       z     vdW  Elec       q    Type
REMARK                         _______ _______ _______ _____ _____    ______ ____
ROOT
ATOM      1  C   UNL     1       1.251  -2.157  -0.023  0.00  0.00    +0.070 C 
ATOM      2  N   UNL     1       2.317  -2.880  -0.032  0.00  0.00    -0.181 NA
ATOM      3  N   UNL     1       2.074  -4.252  -0.039  0.00  0.00    -0.187 N 
ATOM      4  C   UNL     1       0.620  -4.478  -0.034  0.00  0.00    +0.137 C 
ATOM      5  C   UNL     1       0.033  -3.053  -0.016  0.00  0.00    +0.087 C 
ATOM      6  C   UNL     1       3.017  -5.215  -0.050  0.00  0.00    +0.219 C 
ATOM      7  O   UNL     1       2.691  -6.384  -0.056  0.00  0.00    -0.276 OA
ENDROOT
BRANCH   4   8
ATOM      8  C   UNL     1       0.194  -5.221  -1.274  0.00  0.00    -0.021 A 
ATOM      9  C   UNL     1       0.791  -4.935  -2.488  0.00  0.00    +0.009 A 
ATOM     10  C   UNL     1       0.404  -5.614  -3.629  0.00  0.00    +0.050 A 
ATOM     11  C   UNL     1      -0.584  -6.583  -3.557  0.00  0.00    +0.166 A 
ATOM     12  C   UNL     1      -1.185  -6.871  -2.334  0.00  0.00    +0.167 A 
ATOM     13  C   UNL     1      -0.788  -6.190  -1.194  0.00  0.00    +0.055 A 
ATOM     14  O   UNL     1      -2.117  -7.850  -2.526  0.00  0.00    -0.453 OA
ATOM     15  C   UNL     1      -2.367  -7.871  -3.943  0.00  0.00    +0.466 C 
ATOM     16  O   UNL     1      -1.139  -7.382  -4.515  0.00  0.00    -0.453 OA
ENDBRANCH   4   8
BRANCH   1  21
ATOM     17  C   UNL     1      -0.017   1.375   0.010  0.00  0.00    +0.001 A 
ATOM     18  C   UNL     1       1.170   2.087   0.002  0.00  0.00    +0.001 A 
ATOM     19  C   UNL     1       2.383   1.423  -0.013  0.00  0.00    +0.020 A 
ATOM     20  C   UNL     1       2.418   0.042  -0.021  0.00  0.00    +0.050 A 
ATOM     21  C   UNL     1       1.223  -0.683  -0.014  0.00  0.00    +0.016 A 
ATOM     22  C   UNL     1       0.002  -0.004   0.002  0.00  0.00    +0.011 A 
ATOM     23 CL   UNL     1       3.941  -0.790  -0.041  0.00  0.00    -0.083 Cl
ENDBRANCH   1  21
BRANCH   6  24
ATOM     24  C   UNL     1       4.477  -4.841  -0.055  0.00  0.00    +0.021 C 
BRANCH  24  25
ATOM     25  N   UNL     1       5.295  -6.060  -0.067  0.00  0.00    +0.387 N 
ATOM     26  C   UNL     1       5.079  -6.805   1.180  0.00  0.00    -0.059 C 
ATOM     27  C   UNL     1       5.843  -8.132   1.120  0.00  0.00    +0.086 C 
ATOM     28  N   UNL     1       7.254  -7.845   0.821  0.00  0.00    -0.331 N 
ATOM     29  C   UNL     1       7.557  -6.968  -0.320  0.00  0.00    +0.086 C 
ATOM     30  C   UNL     1       6.712  -5.696  -0.192  0.00  0.00    -0.059 C 
ATOM     31  H   UNL     1       5.027  -6.636  -0.851  0.00  0.00    -0.081 HD
BRANCH  28  32
ATOM     32  C   UNL     1       8.279  -8.390   1.601  0.00  0.00    +0.065 A 
ATOM     33  C   UNL     1       8.835  -9.616   1.261  0.00  0.00    +0.026 A 
ATOM     34  C   UNL     1       9.848 -10.152   2.033  0.00  0.00    +0.002 A 
ATOM     35  C   UNL     1      10.309  -9.469   3.143  0.00  0.00    +0.003 A 
ATOM     36  C   UNL     1       9.759  -8.247   3.486  0.00  0.00    +0.040 A 
ATOM     37  C   UNL     1       8.749  -7.702   2.715  0.00  0.00    +0.144 A 
ATOM     38  F   UNL     1       8.215  -6.506   3.046  0.00  0.00    -0.204 F 
ENDBRANCH  28  32
ENDBRANCH  24  25
ENDBRANCH   6  24
TORSDOF 5
