REMARK  Name = ZINC39599912
REMARK  6 active torsions:
REMARK  status: ('A' for Active; 'I' for Inactive)
REMARK    1  A    between atoms: C_3  and  O_31
REMARK    2  A    between atoms: C_6  and  C_7
REMARK    3  A    between atoms: C_7  and  N_8
REMARK    4  A    between atoms: C_9  and  C_11
REMARK    5  A    between atoms: C_22  and  C_24
REMARK    6  A    between atoms: O_31  and  C_32
REMARK                            x       y       z     vdW  Elec       q    Type
REMARK                         _______ _______ _______ _____ _____    ______ ____
ROOT
ATOM      1  C   UNL     1      -3.314  -1.941  -3.024  0.00  0.00    +0.100 C 
ATOM      2  C   UNL     1      -2.226  -2.714  -3.802  0.00  0.00    +0.121 C 
ATOM      3  N   UNL     1      -2.625  -4.136  -3.691  0.00  0.00    -0.300 N 
ATOM      4  C   UNL     1      -4.102  -4.116  -3.825  0.00  0.00    +0.115 C 
ATOM      5  C   UNL     1      -4.545  -2.863  -3.044  0.00  0.00    -0.004 C 
ATOM      6  C   UNL     1      -4.944  -3.243  -1.622  0.00  0.00    -0.010 C 
ATOM      7  C   UNL     1      -6.202  -4.114  -1.665  0.00  0.00    -0.082 C 
ATOM      8  N   UNL     1      -7.289  -3.374  -2.318  0.00  0.00    +0.379 N 
ATOM      9  C   UNL     1      -6.935  -3.093  -3.715  0.00  0.00    -0.082 C 
ATOM     10  C   UNL     1      -5.707  -2.179  -3.758  0.00  0.00    -0.010 C 
ATOM     11  C   UNL     1      -1.827  -5.207  -3.510  0.00  0.00    +0.219 C 
ATOM     12  O   UNL     1      -2.308  -6.317  -3.438  0.00  0.00    -0.275 OA
ATOM     13  H   UNL     1      -8.133  -3.926  -2.291  0.00  0.00    -0.086 HD
ATOM     14  H   UNL     1      -7.443  -2.505  -1.830  0.00  0.00    -0.086 HD
ENDROOT
BRANCH  11  15
ATOM     15  C   UNL     1      -0.335  -5.023  -3.395  0.00  0.00    +0.079 C 
ATOM     16  C   UNL     1       0.339  -6.388  -3.204  0.00  0.00    +0.017 C 
ATOM     17  C   UNL     1       1.823  -6.158  -2.913  0.00  0.00    +0.027 C 
ATOM     18  C   UNL     1       2.409  -5.216  -3.925  0.00  0.00    -0.031 C 
ATOM     19  C   UNL     1       1.705  -4.445  -4.689  0.00  0.00    -0.030 C 
ATOM     20  C   UNL     1       0.205  -4.386  -4.677  0.00  0.00    +0.039 C 
ENDBRANCH  11  15
BRANCH   1  22
ATOM     21  N   UNL     1      -3.327  -0.617  -0.934  0.00  0.00    -0.311 N 
ATOM     22  C   UNL     1      -2.868  -1.692  -1.606  0.00  0.00    +0.218 C 
ATOM     23  O   UNL     1      -2.097  -2.458  -1.070  0.00  0.00    -0.275 OA
ATOM     24  H   UNL     1      -3.944  -0.004  -1.364  0.00  0.00    +0.149 HD
BRANCH  21  25
ATOM     25  C   UNL     1      -2.894  -0.375   0.444  0.00  0.00    +0.139 C 
BRANCH  25  31
ATOM     26  C   UNL     1      -4.769   0.808   1.604  0.00  0.00    +0.009 A 
ATOM     27  C   UNL     1      -5.369   1.958   2.081  0.00  0.00    +0.046 A 
ATOM     28  C   UNL     1      -4.743   3.185   1.915  0.00  0.00    +0.130 A 
ATOM     29  C   UNL     1      -3.517   3.255   1.271  0.00  0.00    +0.046 A 
ATOM     30  C   UNL     1      -2.921   2.102   0.796  0.00  0.00    +0.009 A 
ATOM     31  C   UNL     1      -3.546   0.880   0.963  0.00  0.00    -0.030 A 
BRANCH  28  32
ATOM     32  O   UNL     1      -5.332   4.317   2.383  0.00  0.00    -0.406 OA
BRANCH  32  33
ATOM     33  C   UNL     1      -4.631   5.545   2.177  0.00  0.00    +0.575 C 
ATOM     34  F   UNL     1      -4.450   5.755   0.806  0.00  0.00    -0.133 F 
ATOM     35  F   UNL     1      -5.373   6.602   2.716  0.00  0.00    -0.133 F 
ATOM     36  F   UNL     1      -3.384   5.482   2.808  0.00  0.00    -0.133 F 
ENDBRANCH  32  33
ENDBRANCH  28  32
ENDBRANCH  25  31
ENDBRANCH  21  25
ENDBRANCH   1  22
TORSDOF 6
