REMARK  Name = ZINC04595554
REMARK  6 active torsions:
REMARK  status: ('A' for Active; 'I' for Inactive)
REMARK    1  A    between atoms: C_1  and  C_2
REMARK    2  A    between atoms: C_4  and  C_19
REMARK    3  A    between atoms: C_6  and  N_8
REMARK    4  A    between atoms: N_8  and  N_9
REMARK    5  A    between atoms: C_10  and  C_11
REMARK    6  A    between atoms: C_10  and  C_12
REMARK                            x       y       z     vdW  Elec       q    Type
REMARK                         _______ _______ _______ _____ _____    ______ ____
ROOT
ATOM      1  C   UNL     1      -0.071   5.268   0.031  0.00  0.00    +0.088 C 
ATOM      2  C   UNL     1      -0.050   3.761   0.023  0.00  0.00    +0.129 A 
ATOM      3  N   UNL     1       1.110   3.139   0.008  0.00  0.00    -0.232 NA
ATOM      4  C   UNL     1       1.173   1.807   0.001  0.00  0.00    +0.076 A 
ATOM      5  C   UNL     1      -0.013   1.076   0.008  0.00  0.00    +0.073 A 
ATOM      6  C   UNL     1      -1.219   1.775   0.017  0.00  0.00    +0.142 A 
ATOM      7  N   UNL     1      -1.193   3.106   0.031  0.00  0.00    -0.216 NA
ENDROOT
BRANCH   4   8
ATOM      8  C   UNL     1       2.485   1.115  -0.016  0.00  0.00    +0.001 A 
ATOM      9  C   UNL     1       2.541  -0.278  -0.019  0.00  0.00    +0.010 A 
ATOM     10  C   UNL     1       3.764  -0.916  -0.041  0.00  0.00    +0.001 A 
ATOM     11  C   UNL     1       4.933  -0.177  -0.048  0.00  0.00    +0.000 A 
ATOM     12  C   UNL     1       4.883   1.205  -0.039  0.00  0.00    +0.001 A 
ATOM     13  C   UNL     1       3.666   1.855  -0.024  0.00  0.00    +0.010 A 
ENDBRANCH   4   8
BRANCH   6  14
ATOM     14  N   UNL     1      -2.426   1.095   0.019  0.00  0.00    -0.221 N 
ATOM     15  H   UNL     1      -2.437   0.125   0.014  0.00  0.00    +0.176 HD
BRANCH  14  16
ATOM     16  N   UNL     1      -3.632   1.808   0.029  0.00  0.00    -0.186 NA
ATOM     17  C   UNL     1      -4.763   1.171   0.030  0.00  0.00    +0.063 C 
ATOM     18  C   UNL     1      -4.779  -0.336   0.022  0.00  0.00    +0.068 C 
BRANCH  17  19
ATOM     19  C   UNL     1      -6.032   1.922   0.041  0.00  0.00    -0.002 A 
ATOM     20  C   UNL     1      -7.251   1.240   0.037  0.00  0.00    +0.011 A 
ATOM     21  C   UNL     1      -8.434   1.948   0.053  0.00  0.00    +0.016 A 
ATOM     22  C   UNL     1      -8.416   3.333   0.060  0.00  0.00    +0.018 A 
ATOM     23  C   UNL     1      -7.211   4.015   0.058  0.00  0.00    +0.016 A 
ATOM     24  C   UNL     1      -6.021   3.319   0.048  0.00  0.00    +0.011 A 
ATOM     25 BR   UNL     1     -10.043   4.295   0.073  0.00  0.00    -0.050 Br
ENDBRANCH  17  19
ENDBRANCH  14  16
ENDBRANCH   6  14
TORSDOF 4
