REMARK  Name = ZINC43794108
REMARK  14 active torsions:
REMARK  status: ('A' for Active; 'I' for Inactive)
REMARK    1  A    between atoms: C_1  and  C_2
REMARK    2  A    between atoms: C_2  and  C_3
REMARK    3  A    between atoms: C_3  and  C_4
REMARK    4  A    between atoms: C_4  and  O_6
REMARK    5  A    between atoms: O_6  and  C_7
REMARK    6  A    between atoms: C_10  and  C_11
REMARK    7  A    between atoms: C_10  and  C_12
REMARK    8  A    between atoms: C_16  and  C_35
REMARK    9  A    between atoms: C_18  and  O_34
REMARK   10  A    between atoms: C_21  and  O_28
REMARK   11  A    between atoms: C_22  and  C_27
REMARK   12  A    between atoms: C_24  and  O_26
REMARK   13  A    between atoms: C_30  and  C_33
REMARK   14  A    between atoms: C_35  and  O_36
REMARK                            x       y       z     vdW  Elec       q    Type
REMARK                         _______ _______ _______ _____ _____    ______ ____
ROOT
ATOM      1  C   UNL     1       1.072  -3.888   1.960  0.00  0.00    +0.149 C 
ATOM      2  C   UNL     1       1.486  -4.789   3.117  0.00  0.00    +0.055 C 
ATOM      3  C   UNL     1       2.311  -4.764   1.836  0.00  0.00    +0.015 C 
ATOM      4  C   UNL     1       2.281  -5.953   0.881  0.00  0.00    +0.015 C 
ATOM      5  C   UNL     1       3.666  -4.034   1.890  0.00  0.00    +0.015 C 
ATOM      6  C   UNL     1       0.595  -5.986   3.442  0.00  0.00    +0.052 C 
ATOM      7  C   UNL     1       0.764  -6.334   4.889  0.00  0.00    -0.019 C 
ATOM      8  C   UNL     1       0.280  -7.329   5.530  0.00  0.00    -0.045 C 
ATOM      9  C   UNL     1      -0.586  -8.408   5.002  0.00  0.00    +0.076 C 
ATOM     10  C   UNL     1      -1.400  -8.048   3.798  0.00  0.00    +0.140 C 
ATOM     11  C   UNL     1      -1.813  -6.595   3.723  0.00  0.00    +0.084 C 
ATOM     12  C   UNL     1      -0.846  -5.605   3.143  0.00  0.00    +0.087 C 
ATOM     13  C   UNL     1      -1.082  -5.269   1.686  0.00  0.00    +0.051 C 
ATOM     14  C   UNL     1      -0.184  -4.155   1.167  0.00  0.00    +0.165 C 
ATOM     15  C   UNL     1      -1.004  -6.474   0.753  0.00  0.00    +0.013 C 
ATOM     16  C   UNL     1      -3.177  -6.599   3.084  0.00  0.00    -0.011 C 
ATOM     17  C   UNL     1      -3.677  -7.835   3.134  0.00  0.00    -0.009 C 
ATOM     18  C   UNL     1      -2.731  -8.778   3.743  0.00  0.00    +0.191 C 
ATOM     19  O   UNL     1      -2.958  -9.907   4.126  0.00  0.00    -0.289 OA
ATOM     20  C   UNL     1      -5.046  -8.214   2.630  0.00  0.00    +0.047 C 
ENDROOT
BRANCH  14  21
ATOM     21  O   UNL     1      -0.953  -2.942   1.110  0.00  0.00    -0.387 OA
ATOM     22  H   UNL     1      -1.780  -3.024   0.617  0.00  0.00    +0.210 HD
ENDBRANCH  14  21
BRANCH  12  23
ATOM     23  O   UNL     1      -1.076  -4.372   3.879  0.00  0.00    -0.387 OA
ATOM     24  H   UNL     1      -1.968  -4.014   3.776  0.00  0.00    +0.210 HD
ENDBRANCH  12  23
BRANCH  10  25
ATOM     25  O   UNL     1      -0.655  -8.445   2.648  0.00  0.00    -0.380 OA
ATOM     26  H   UNL     1      -0.452  -9.390   2.618  0.00  0.00    +0.211 HD
ENDBRANCH  10  25
BRANCH   1  27
ATOM     27  O   UNL     1       1.344  -2.492   2.159  0.00  0.00    -0.455 OA
BRANCH  27  28
ATOM     28  C   UNL     1       1.952  -1.840   1.156  0.00  0.00    +0.308 C 
ATOM     29  O   UNL     1       2.154  -2.401   0.105  0.00  0.00    -0.251 OA
BRANCH  28  30
ATOM     30  C   UNL     1       2.381  -0.407   1.339  0.00  0.00    +0.120 C 
BRANCH  30  32
ATOM     31  C   UNL     1       3.480   1.550   0.241  0.00  0.00    +0.004 C 
ATOM     32  C   UNL     1       3.043   0.095   0.055  0.00  0.00    +0.008 C 
ENDBRANCH  30  32
ENDBRANCH  28  30
ENDBRANCH  27  28
ENDBRANCH   1  27
BRANCH   8  33
ATOM     33  C   UNL     1       0.631  -7.415   7.000  0.00  0.00    +0.186 C 
BRANCH  33  34
ATOM     34  O   UNL     1       1.465  -6.311   7.356  0.00  0.00    -0.391 OA
ATOM     35  H   UNL     1       1.730  -6.301   8.286  0.00  0.00    +0.210 HD
ENDBRANCH  33  34
ENDBRANCH   8  33
TORSDOF 9
