REMARK  Name = ZINC28632390
REMARK  10 active torsions:
REMARK  status: ('A' for Active; 'I' for Inactive)
REMARK    1  A    between atoms: C_1  and  C_2
REMARK    2  A    between atoms: C_2  and  O_3
REMARK    3  A    between atoms: O_3  and  C_4
REMARK    4  A    between atoms: C_11  and  C_18
REMARK    5  A    between atoms: C_13  and  O_14
REMARK    6  A    between atoms: C_18  and  O_19
REMARK    7  A    between atoms: O_19  and  C_20
REMARK    8  A    between atoms: C_20  and  C_22
REMARK    9  A    between atoms: C_22  and  O_23
REMARK   10  A    between atoms: O_23  and  C_24
REMARK                            x       y       z     vdW  Elec       q    Type
REMARK                         _______ _______ _______ _____ _____    ______ ____
ROOT
ATOM      1  C   UNL     1     -14.453  -0.985  -0.431  0.00  0.00    +0.405 C 
ATOM      2  O   UNL     1     -14.376   0.110  -0.952  0.00  0.00    -0.226 OA
ATOM      3  N   UNL     1     -13.345  -1.580   0.054  0.00  0.00    -0.251 N 
ATOM      4  C   UNL     1     -12.130  -0.894   0.058  0.00  0.00    +0.040 A 
ATOM      5  C   UNL     1     -10.940  -1.595  -0.135  0.00  0.00    +0.024 A 
ATOM      6  C   UNL     1      -9.744  -0.938  -0.133  0.00  0.00    +0.014 A 
ATOM      7  C   UNL     1      -9.711   0.449   0.057  0.00  0.00    +0.024 A 
ATOM      8  C   UNL     1      -8.442   1.178   0.070  0.00  0.00    +0.007 A 
ATOM      9  C   UNL     1      -8.476   2.522   0.266  0.00  0.00    +0.095 A 
ATOM     10  C   UNL     1      -9.712   3.172   0.454  0.00  0.00    +0.285 A 
ATOM     11  O   UNL     1     -10.872   2.497   0.447  0.00  0.00    -0.425 OA
ATOM     12  C   UNL     1     -10.909   1.161   0.258  0.00  0.00    +0.141 A 
ATOM     13  C   UNL     1     -12.116   0.478   0.253  0.00  0.00    +0.070 A 
ATOM     14  H   UNL     1     -13.399  -2.606   0.446  0.00  0.00    +0.158 HD
ENDROOT
BRANCH  10  15
ATOM     15  O   UNL     1      -9.728   4.378   0.628  0.00  0.00    -0.480 OA
ATOM     16  H   UNL     1     -10.685   4.899   0.776  0.00  0.00    +0.295 HD
ENDBRANCH  10  15
BRANCH   1  17
ATOM     17  O   UNL     1     -15.646  -1.604  -0.337  0.00  0.00    -0.450 OA
BRANCH  17  19
ATOM     18  C   UNL     1     -18.051  -1.756  -0.684  0.00  0.00    +0.048 C 
ATOM     19  C   UNL     1     -16.796  -0.904  -0.880  0.00  0.00    +0.230 C 
ENDBRANCH  17  19
ENDBRANCH   1  17
BRANCH   8  20
ATOM     20  C   UNL     1      -7.134   0.458  -0.134  0.00  0.00    +0.268 C 
BRANCH  20  21
ATOM     21  O   UNL     1      -6.042   1.414  -0.081  0.00  0.00    -0.457 OA
BRANCH  21  22
ATOM     22  C   UNL     1      -4.800   0.931  -0.246  0.00  0.00    +0.345 C 
ATOM     23  O   UNL     1      -4.632  -0.252  -0.428  0.00  0.00    -0.247 OA
BRANCH  22  24
ATOM     24  C   UNL     1      -3.617   1.863  -0.203  0.00  0.00    +0.349 C 
BRANCH  24  25
ATOM     25  O   UNL     1      -2.415   1.117  -0.403  0.00  0.00    -0.481 OA
BRANCH  25  26
ATOM     26  C   UNL     1      -1.248   1.813  -0.393  0.00  0.00    +0.122 A 
ATOM     27  C   UNL     1      -0.043   1.151  -0.581  0.00  0.00    +0.046 A 
ATOM     28  C   UNL     1       1.142   1.861  -0.577  0.00  0.00    +0.005 A 
ATOM     29  C   UNL     1       1.129   3.229  -0.381  0.00  0.00    +0.015 A 
ATOM     30  C   UNL     1      -0.071   3.891  -0.187  0.00  0.00    +0.021 A 
ATOM     31  C   UNL     1      -1.259   3.184  -0.190  0.00  0.00    +0.061 A 
ATOM     32 BR   UNL     1      -0.085   5.763   0.082  0.00  0.00    -0.050 Br
ENDBRANCH  25  26
ENDBRANCH  24  25
ENDBRANCH  22  24
ENDBRANCH  21  22
ENDBRANCH  20  21
ENDBRANCH   8  20
TORSDOF 9
