REMARK  Name = ZINC50833337
REMARK  7 active torsions:
REMARK  status: ('A' for Active; 'I' for Inactive)
REMARK    1  A    between atoms: C_1  and  C_2
REMARK    2  A    between atoms: C_3  and  C_9
REMARK    3  A    between atoms: C_4  and  N_8
REMARK    4  A    between atoms: N_5  and  C_7
REMARK    5  A    between atoms: C_9  and  O_10
REMARK    6  A    between atoms: O_10  and  C_11
REMARK    7  A    between atoms: C_14  and  N_18
REMARK                            x       y       z     vdW  Elec       q    Type
REMARK                         _______ _______ _______ _____ _____    ______ ____
ROOT
ATOM      1  C   UNL     1      -0.005  -0.341  -2.566  0.00  0.00    +0.269 C 
ENDROOT
BRANCH   1   4
ATOM      2  C   UNL     1      -0.018   1.503   0.010  0.00  0.00    +0.065 C 
ATOM      3  C   UNL     1       0.002  -0.004   0.002  0.00  0.00    +0.039 A 
ATOM      4  C   UNL     1       0.008  -0.816  -1.136  0.00  0.00    +0.049 A 
ATOM      5  C   UNL     1       0.027  -2.113  -0.721  0.00  0.00    +0.119 A 
ATOM      6  N   UNL     1       0.034  -2.110   0.631  0.00  0.00    -0.276 N 
ATOM      7  N   UNL     1       0.023  -0.776   1.058  0.00  0.00    -0.300 N 
ATOM      8  C   UNL     1       0.053  -3.292   1.496  0.00  0.00    +0.172 C 
ATOM      9  H   UNL     1       0.028  -0.475   1.981  0.00  0.00    +0.187 HD
BRANCH   5  10
ATOM     10  N   UNL     1       0.038  -3.238  -1.541  0.00  0.00    -0.343 N 
ATOM     11  H   UNL     1       0.032  -3.136  -2.506  0.00  0.00    +0.144 HD
ATOM     12  H   UNL     1       0.052  -4.125  -1.147  0.00  0.00    +0.144 HD
ENDBRANCH   5  10
ENDBRANCH   1   4
BRANCH   1  13
ATOM     13  O   UNL     1       1.338  -0.172  -3.024  0.00  0.00    -0.485 OA
BRANCH  13  14
ATOM     14  C   UNL     1       1.505   0.255  -4.303  0.00  0.00    +0.149 A 
ATOM     15  C   UNL     1       1.598  -0.666  -5.337  0.00  0.00    +0.063 A 
ATOM     16  C   UNL     1       1.767  -0.229  -6.638  0.00  0.00    +0.051 A 
ATOM     17  C   UNL     1       1.843   1.125  -6.909  0.00  0.00    +0.129 A 
ATOM     18  C   UNL     1       1.751   2.045  -5.881  0.00  0.00    +0.051 A 
ATOM     19  C   UNL     1       1.576   1.613  -4.579  0.00  0.00    +0.063 A 
ATOM     20 BR   UNL     1       1.442   2.872  -3.175  0.00  0.00    -0.046 Br
ATOM     21 BR   UNL     1       1.494  -2.518  -4.968  0.00  0.00    -0.046 Br
BRANCH  17  22
ATOM     22  N   UNL     1       2.025   1.590  -8.302  0.00  0.00    +0.056 N 
ATOM     23  O   UNL     1       2.106   0.787  -9.202  0.00  0.00    -0.126 OA
ATOM     24  O   UNL     1       2.092   2.773  -8.540  0.00  0.00    -0.126 OA
ENDBRANCH  17  22
ENDBRANCH  13  14
ENDBRANCH   1  13
TORSDOF 5
