REMARK  Name = ZINC37072354
REMARK  4 active torsions:
REMARK  status: ('A' for Active; 'I' for Inactive)
REMARK    1  A    between atoms: C_3  and  C_8
REMARK    2  A    between atoms: C_10  and  N_12
REMARK    3  A    between atoms: N_12  and  C_13
REMARK    4  A    between atoms: C_16  and  C_20
REMARK                            x       y       z     vdW  Elec       q    Type
REMARK                         _______ _______ _______ _____ _____    ______ ____
ROOT
ATOM      1  C   UNL     1       3.672   2.183  -0.022  0.00  0.00    +0.023 C 
ATOM      2  C   UNL     1       4.765   1.544  -0.894  0.00  0.00    +0.030 C 
ATOM      3  C   UNL     1       5.762   1.927   0.212  0.00  0.00    +0.072 C 
ATOM      4  C   UNL     1       4.574   1.887   1.188  0.00  0.00    +0.030 C 
ENDROOT
BRANCH   1   7
ATOM      5  C   UNL     1      -0.017   1.378   0.010  0.00  0.00    +0.001 A 
ATOM      6  C   UNL     1       1.171   2.086   0.002  0.00  0.00    +0.004 A 
ATOM      7  C   UNL     1       2.378   1.411  -0.013  0.00  0.00    -0.043 A 
ATOM      8  C   UNL     1       2.397   0.029  -0.022  0.00  0.00    +0.019 A 
ATOM      9  C   UNL     1       1.210  -0.679  -0.014  0.00  0.00    +0.018 A 
ATOM     10  C   UNL     1       0.002  -0.004   0.002  0.00  0.00    +0.015 A 
ATOM     11 BR   UNL     1       1.236  -2.570  -0.025  0.00  0.00    -0.050 Br
ENDBRANCH   1   7
BRANCH   3  12
ATOM     12  N   UNL     1       6.772   0.899   0.474  0.00  0.00    -0.340 N 
ATOM     13  H   UNL     1       6.583  -0.030   0.266  0.00  0.00    +0.146 HD
BRANCH  12  14
ATOM     14  C   UNL     1       8.001   1.254   1.023  0.00  0.00    +0.042 A 
ATOM     15  C   UNL     1       8.267   2.586   1.326  0.00  0.00    +0.025 A 
ATOM     16  C   UNL     1       9.482   2.941   1.869  0.00  0.00    +0.021 A 
ATOM     17  C   UNL     1      10.449   1.962   2.115  0.00  0.00    +0.053 A 
ATOM     18  C   UNL     1      10.179   0.624   1.810  0.00  0.00    +0.036 A 
ATOM     19  C   UNL     1       8.960   0.275   1.272  0.00  0.00    +0.040 A 
ATOM     20 BR   UNL     1       8.590  -1.534   0.865  0.00  0.00    -0.048 Br
BRANCH  17  21
ATOM     21  C   UNL     1      11.713   2.328   2.679  0.00  0.00    +0.099 C 
ATOM     22  N   UNL     1      12.716   2.618   3.126  0.00  0.00    -0.191 NA
ENDBRANCH  17  21
ENDBRANCH  12  14
ENDBRANCH   3  12
TORSDOF 4
