REMARK  Name = ZINC53116314
REMARK  6 active torsions:
REMARK  status: ('A' for Active; 'I' for Inactive)
REMARK    1  A    between atoms: C_1  and  C_2
REMARK    2  A    between atoms: C_7  and  C_9
REMARK    3  A    between atoms: C_7  and  N_11
REMARK    4  A    between atoms: C_9  and  O_10
REMARK    5  A    between atoms: N_11  and  C_12
REMARK    6  A    between atoms: C_12  and  C_13
REMARK                            x       y       z     vdW  Elec       q    Type
REMARK                         _______ _______ _______ _____ _____    ______ ____
ROOT
ATOM      1  N   UNL     1      -0.608  -2.549   1.227  0.00  0.00    +0.387 N 
ATOM      2  H   UNL     1      -1.062  -2.265   0.371  0.00  0.00    -0.085 HD
ATOM      3  H   UNL     1      -0.604  -3.556   1.287  0.00  0.00    -0.085 HD
ENDROOT
BRANCH   1   9
ATOM      4  C   UNL     1       0.116   1.323  -0.495  0.00  0.00    +0.007 C 
ATOM      5  C   UNL     1       0.118  -0.194  -0.299  0.00  0.00    -0.015 C 
ATOM      6  C   UNL     1       0.904  -0.854  -1.434  0.00  0.00    +0.003 C 
ATOM      7  C   UNL     1       0.906  -2.371  -1.238  0.00  0.00    -0.001 C 
ATOM      8  C   UNL     1       1.561  -2.712   0.102  0.00  0.00    -0.010 C 
ATOM      9  C   UNL     1       0.774  -2.052   1.236  0.00  0.00    -0.044 C 
ATOM     10  C   UNL     1       0.772  -0.535   1.041  0.00  0.00    -0.007 C 
BRANCH   9  11
ATOM     11  C   UNL     1       1.429  -2.393   2.576  0.00  0.00    +0.143 C 
BRANCH  11  12
ATOM     12  O   UNL     1       1.315  -3.797   2.819  0.00  0.00    -0.396 OA
ATOM     13  H   UNL     1       1.709  -4.085   3.654  0.00  0.00    +0.209 HD
ENDBRANCH  11  12
ENDBRANCH   9  11
ENDBRANCH   1   9
BRANCH   1  14
ATOM     14  C   UNL     1      -1.336  -1.993   2.375  0.00  0.00    -0.045 C 
BRANCH  14  15
ATOM     15  C   UNL     1      -2.711  -2.607   2.444  0.00  0.00    -0.047 A 
ATOM     16  C   UNL     1      -2.992  -3.563   3.403  0.00  0.00    +0.052 A 
ATOM     17  C   UNL     1      -4.254  -4.129   3.468  0.00  0.00    +0.166 A 
ATOM     18  C   UNL     1      -5.239  -3.734   2.565  0.00  0.00    +0.167 A 
ATOM     19  C   UNL     1      -4.951  -2.776   1.607  0.00  0.00    +0.065 A 
ATOM     20  C   UNL     1      -3.689  -2.210   1.551  0.00  0.00    +0.023 A 
ATOM     21 BR   UNL     1      -3.301  -0.898   0.246  0.00  0.00    -0.050 Br
ATOM     22  O   UNL     1      -6.382  -4.430   2.833  0.00  0.00    -0.453 OA
ATOM     23  C   UNL     1      -5.970  -5.548   3.642  0.00  0.00    +0.466 C 
ATOM     24  O   UNL     1      -4.781  -5.074   4.301  0.00  0.00    -0.453 OA
ENDBRANCH  14  15
ENDBRANCH   1  14
TORSDOF 5
