REMARK  Name = ZINC39935904
REMARK  7 active torsions:
REMARK  status: ('A' for Active; 'I' for Inactive)
REMARK    1  A    between atoms: C_1  and  C_2
REMARK    2  A    between atoms: C_2  and  N_3
REMARK    3  A    between atoms: C_7  and  S_31
REMARK    4  A    between atoms: C_11  and  S_12
REMARK    5  A    between atoms: S_12  and  C_13
REMARK    6  A    between atoms: C_15  and  C_25
REMARK    7  A    between atoms: S_31  and  N_34
REMARK                            x       y       z     vdW  Elec       q    Type
REMARK                         _______ _______ _______ _____ _____    ______ ____
ROOT
ATOM      1  S   UNL     1       3.220  -0.523  -0.072  0.00  0.00    -0.070 S 
ENDROOT
BRANCH   1   2
ATOM      2  C   UNL     1       4.790  -1.012  -0.835  0.00  0.00    +0.171 C 
ATOM      3  C   UNL     1       5.906  -0.671   0.134  0.00  0.00    -0.009 C 
ATOM      4  C   UNL     1       6.730  -1.721   0.549  0.00  0.00    +0.001 A 
ATOM      5  C   UNL     1       7.791  -1.492   1.449  0.00  0.00    +0.010 A 
ATOM      6  C   UNL     1       8.578  -2.532   1.837  0.00  0.00    +0.001 A 
ATOM      7  C   UNL     1       8.357  -3.823   1.363  0.00  0.00    +0.002 A 
ATOM      8  C   UNL     1       7.349  -4.106   0.492  0.00  0.00    +0.024 A 
ATOM      9  C   UNL     1       6.496  -3.080   0.048  0.00  0.00    +0.041 A 
ATOM     10  N   UNL     1       5.507  -3.360  -0.807  0.00  0.00    -0.284 N 
ATOM     11  C   UNL     1       4.666  -2.456  -1.268  0.00  0.00    +0.235 C 
ATOM     12  O   UNL     1       3.787  -2.784  -2.044  0.00  0.00    -0.274 OA
ATOM     13  H   UNL     1       5.402  -4.277  -1.103  0.00  0.00    +0.155 HD
BRANCH   3  14
ATOM     14  C   UNL     1       6.104   0.654   0.598  0.00  0.00    -0.020 A 
ATOM     15  C   UNL     1       5.943   0.957   1.960  0.00  0.00    +0.008 A 
ATOM     16  C   UNL     1       6.138   2.247   2.401  0.00  0.00    +0.001 A 
ATOM     17  C   UNL     1       6.491   3.244   1.506  0.00  0.00    +0.000 A 
ATOM     18  C   UNL     1       6.652   2.956   0.160  0.00  0.00    +0.001 A 
ATOM     19  C   UNL     1       6.468   1.671  -0.300  0.00  0.00    +0.008 A 
ENDBRANCH   3  14
ENDBRANCH   1   2
BRANCH   1  28
ATOM     20  N   UNL     1       0.701  -0.462  -1.251  0.00  0.00    -0.319 N 
ATOM     21  C   UNL     1       0.125  -0.732  -2.482  0.00  0.00    +0.070 A 
ATOM     22  C   UNL     1      -1.169  -0.658  -2.975  0.00  0.00    +0.030 A 
ATOM     23  C   UNL     1      -1.425  -1.006  -4.285  0.00  0.00    +0.030 A 
ATOM     24  C   UNL     1      -0.396  -1.429  -5.114  0.00  0.00    +0.107 A 
ATOM     25  C   UNL     1       0.894  -1.508  -4.641  0.00  0.00    +0.058 A 
ATOM     26  C   UNL     1       1.171  -1.159  -3.317  0.00  0.00    +0.092 A 
ATOM     27  N   UNL     1       2.310  -1.132  -2.577  0.00  0.00    -0.222 NA
ATOM     28  C   UNL     1       2.038  -0.717  -1.364  0.00  0.00    +0.171 A 
BRANCH  24  29
ATOM     29  S   UNL     1      -0.744  -1.870  -6.784  0.00  0.00    +0.056 S 
ATOM     30  O   UNL     1       0.291  -2.752  -7.196  0.00  0.00    -0.153 OA
ATOM     31  O   UNL     1      -2.117  -2.232  -6.831  0.00  0.00    -0.153 OA
BRANCH  29  32
ATOM     32  N   UNL     1      -0.586  -0.496  -7.696  0.00  0.00    -0.204 NA
ATOM     33  H   UNL     1      -0.305  -0.559  -8.622  0.00  0.00    +0.144 HD
ATOM     34  H   UNL     1      -0.774   0.371  -7.303  0.00  0.00    +0.144 HD
ENDBRANCH  29  32
ENDBRANCH  24  29
BRANCH  20  36
ATOM     35  C   UNL     1      -0.010   1.544  -0.046  0.00  0.00    +0.027 C 
ATOM     36  C   UNL     1       0.006   0.014  -0.052  0.00  0.00    +0.121 C 
ENDBRANCH  20  36
ENDBRANCH   1  28
TORSDOF 6
