REMARK  Name = ZINC15430259
REMARK  4 active torsions:
REMARK  status: ('A' for Active; 'I' for Inactive)
REMARK    1  A    between atoms: C_1  and  C_2
REMARK    2  A    between atoms: C_10  and  C_11
REMARK    3  A    between atoms: N_13  and  N_14
REMARK    4  A    between atoms: C_15  and  C_17
REMARK                            x       y       z     vdW  Elec       q    Type
REMARK                         _______ _______ _______ _____ _____    ______ ____
ROOT
ATOM      1  C   UNL     1      -0.014   1.212   0.009  0.00  0.00    +0.296 C 
ATOM      2  O   UNL     1       0.002  -0.004   0.002  0.00  0.00    -0.265 OA
ATOM      3  N   UNL     1       1.143   1.902   0.001  0.00  0.00    -0.228 N 
ATOM      4  H   UNL     1       1.130   2.872   0.007  0.00  0.00    +0.173 HD
ENDROOT
BRANCH   1  14
ATOM      5  C   UNL     1      -2.817  -0.136   0.002  0.00  0.00    +0.048 C 
ATOM      6  C   UNL     1      -2.522   1.342   0.016  0.00  0.00    +0.008 A 
ATOM      7  C   UNL     1      -3.495   2.434   0.032  0.00  0.00    +0.025 A 
ATOM      8  C   UNL     1      -4.891   2.493   0.039  0.00  0.00    +0.012 A 
ATOM      9  C   UNL     1      -5.517   3.708   0.049  0.00  0.00    +0.002 A 
ATOM     10  C   UNL     1      -4.776   4.881   0.050  0.00  0.00    +0.024 A 
ATOM     11  C   UNL     1      -3.397   4.845   0.043  0.00  0.00    +0.084 A 
ATOM     12  C   UNL     1      -2.738   3.619   0.034  0.00  0.00    +0.154 A 
ATOM     13  O   UNL     1      -1.436   3.272   0.026  0.00  0.00    -0.448 OA
ATOM     14  C   UNL     1      -1.297   1.930   0.019  0.00  0.00    +0.195 A 
ATOM     15 CL   UNL     1      -2.487   6.323   0.046  0.00  0.00    -0.080 Cl
ENDBRANCH   1  14
BRANCH   3  16
ATOM     16  N   UNL     1       2.366   1.218  -0.014  0.00  0.00    -0.234 N 
ATOM     17  C   UNL     1       3.524   1.908  -0.021  0.00  0.00    +0.235 C 
ATOM     18  O   UNL     1       3.508   3.120  -0.015  0.00  0.00    -0.274 OA
ATOM     19  H   UNL     1       2.379   0.248  -0.019  0.00  0.00    +0.173 HD
BRANCH  17  20
ATOM     20  C   UNL     1       4.839   1.172  -0.038  0.00  0.00    +0.049 C 
ATOM     21  C   UNL     1       4.944   0.287   1.206  0.00  0.00    +0.019 C 
ATOM     22  C   UNL     1       6.279  -0.460   1.189  0.00  0.00    -0.009 C 
ATOM     23  C   UNL     1       7.428   0.550   1.183  0.00  0.00    +0.007 C 
ATOM     24  C   UNL     1       7.324   1.435  -0.060  0.00  0.00    -0.009 C 
ATOM     25  C   UNL     1       5.988   2.182  -0.043  0.00  0.00    +0.019 C 
ATOM     26  C   UNL     1       7.405   0.564  -1.315  0.00  0.00    +0.007 C 
ATOM     27  C   UNL     1       6.255  -0.446  -1.309  0.00  0.00    -0.009 C 
ATOM     28  C   UNL     1       6.360  -1.331  -0.066  0.00  0.00    +0.007 C 
ATOM     29  C   UNL     1       4.920   0.300  -1.293  0.00  0.00    +0.019 C 
ENDBRANCH  17  20
ENDBRANCH   3  16
TORSDOF 3
