REMARK  Name = ZINC21521610
REMARK  8 active torsions:
REMARK  status: ('A' for Active; 'I' for Inactive)
REMARK    1  A    between atoms: C_1  and  C_2
REMARK    2  A    between atoms: C_2  and  C_4
REMARK    3  A    between atoms: C_2  and  N_27
REMARK    4  A    between atoms: C_4  and  C_5
REMARK    5  A    between atoms: N_7  and  N_8
REMARK    6  A    between atoms: C_11  and  C_16
REMARK    7  A    between atoms: C_16  and  C_17
REMARK    8  A    between atoms: C_28  and  C_30
REMARK                            x       y       z     vdW  Elec       q    Type
REMARK                         _______ _______ _______ _____ _____    ______ ____
ROOT
ATOM      1  N   UNL     1      -0.829   0.428  -3.195  0.00  0.00    -0.137 N 
ATOM      2  C   UNL     1       0.003   1.222  -2.492  0.00  0.00    +0.260 C 
ATOM      3  O   UNL     1       1.122   1.568  -2.804  0.00  0.00    -0.272 OA
ATOM      4  C   UNL     1      -0.753   1.593  -1.232  0.00  0.00    +0.167 C 
ATOM      5  N   UNL     1      -2.043   0.899  -1.385  0.00  0.00    -0.286 N 
ATOM      6  C   UNL     1      -1.992   0.246  -2.560  0.00  0.00    +0.326 C 
ATOM      7  O   UNL     1      -2.902  -0.431  -2.997  0.00  0.00    -0.251 OA
ATOM      8  H   UNL     1      -2.812   0.988  -0.603  0.00  0.00    +0.151 HD
ENDROOT
BRANCH   1  11
ATOM      9  C   UNL     1      -0.208  -1.448  -4.523  0.00  0.00    +0.231 C 
ATOM     10  O   UNL     1      -0.205  -2.137  -3.525  0.00  0.00    -0.274 OA
ATOM     11  N   UNL     1      -0.513  -0.138  -4.437  0.00  0.00    -0.224 N 
ATOM     12  H   UNL     1      -0.515   0.487  -5.343  0.00  0.00    +0.174 HD
BRANCH   9  13
ATOM     13  C   UNL     1       0.131  -2.057  -5.860  0.00  0.00    +0.119 C 
BRANCH  13  15
ATOM     14  C   UNL     1       0.901  -4.135  -7.013  0.00  0.00    +0.028 C 
ATOM     15  C   UNL     1       0.436  -3.545  -5.680  0.00  0.00    +0.079 C 
BRANCH  15  16
ATOM     16  N   UNL     1      -0.773  -4.241  -5.232  0.00  0.00    -0.308 N 
ATOM     17  C   UNL     1      -0.670  -5.392  -4.539  0.00  0.00    +0.244 C 
ATOM     18  O   UNL     1       0.425  -5.853  -4.285  0.00  0.00    -0.270 OA
ATOM     19  H   UNL     1      -1.764  -3.823  -5.462  0.00  0.00    +0.149 HD
BRANCH  17  20
ATOM     20  C   UNL     1      -1.891  -6.094  -4.088  0.00  0.00    +0.037 A 
ATOM     21  C   UNL     1      -3.150  -5.564  -4.373  0.00  0.00    +0.013 A 
ATOM     22  C   UNL     1      -4.285  -6.227  -3.953  0.00  0.00    +0.001 A 
ATOM     23  C   UNL     1      -4.176  -7.409  -3.241  0.00  0.00    +0.000 A 
ATOM     24  C   UNL     1      -2.931  -7.936  -2.951  0.00  0.00    +0.001 A 
ATOM     25  C   UNL     1      -1.788  -7.287  -3.370  0.00  0.00    +0.013 A 
ENDBRANCH  17  20
ENDBRANCH  15  16
ENDBRANCH  13  15
ENDBRANCH   9  13
ENDBRANCH   1  11
BRANCH   4  26
ATOM     26  C   UNL     1      -0.013   1.086   0.008  0.00  0.00    +0.069 C 
BRANCH  26  27
ATOM     27  C   UNL     1      -0.718   1.572   1.248  0.00  0.00    -0.020 A 
ATOM     28  C   UNL     1      -0.420   2.672   1.957  0.00  0.00    +0.087 A 
ATOM     29  N   UNL     1      -1.277   2.791   3.017  0.00  0.00    -0.360 N 
ATOM     30  H   UNL     1      -1.180   3.639   3.711  0.00  0.00    +0.165 HD
ATOM     31  C   UNL     1      -2.171   1.743   3.016  0.00  0.00    +0.047 A 
ATOM     32  C   UNL     1      -1.863   0.937   1.904  0.00  0.00    +0.003 A 
ATOM     33  C   UNL     1      -2.611  -0.215   1.651  0.00  0.00    +0.010 A 
ATOM     34  C   UNL     1      -3.645  -0.548   2.480  0.00  0.00    +0.001 A 
ATOM     35  C   UNL     1      -3.956   0.247   3.575  0.00  0.00    +0.002 A 
ATOM     36  C   UNL     1      -3.228   1.385   3.846  0.00  0.00    +0.026 A 
ENDBRANCH  26  27
ENDBRANCH   4  26
TORSDOF 7
