REMARK  Name = ZINC04710634
REMARK  8 active torsions:
REMARK  status: ('A' for Active; 'I' for Inactive)
REMARK    1  A    between atoms: C_1  and  C_2
REMARK    2  A    between atoms: C_7  and  N_8
REMARK    3  A    between atoms: C_9  and  C_11
REMARK    4  A    between atoms: C_11  and  C_29
REMARK    5  A    between atoms: C_12  and  C_13
REMARK    6  A    between atoms: C_15  and  C_28
REMARK    7  A    between atoms: N_16  and  C_19
REMARK    8  A    between atoms: C_17  and  C_18
REMARK                            x       y       z     vdW  Elec       q    Type
REMARK                         _______ _______ _______ _____ _____    ______ ____
ROOT
ATOM      1  C   UNL     1       0.567   3.594  -0.255  0.00  0.00    -0.003 A 
ATOM      2  C   UNL     1      -0.843   3.680  -0.660  0.00  0.00    +0.031 A 
ATOM      3  C   UNL     1      -1.291   2.417  -0.748  0.00  0.00    +0.022 A 
ATOM      4  N   UNL     1      -0.279   1.557  -0.423  0.00  0.00    -0.317 N 
ATOM      5  C   UNL     1       0.843   2.242  -0.127  0.00  0.00    +0.028 A 
ATOM      6  C   UNL     1       2.166   1.642   0.272  0.00  0.00    +0.064 C 
ATOM      7  C   UNL     1      -2.689   2.012  -1.140  0.00  0.00    +0.064 C 
ENDROOT
BRANCH   4   8
ATOM      8  C   UNL     1      -0.392   0.159  -0.405  0.00  0.00    +0.050 A 
ATOM      9  C   UNL     1      -0.259  -0.533   0.792  0.00  0.00    +0.030 A 
ATOM     10  C   UNL     1      -0.370  -1.910   0.811  0.00  0.00    +0.051 A 
ATOM     11  C   UNL     1      -0.614  -2.604  -0.363  0.00  0.00    +0.166 A 
ATOM     12  C   UNL     1      -0.748  -1.913  -1.565  0.00  0.00    +0.168 A 
ATOM     13  C   UNL     1      -0.641  -0.532  -1.582  0.00  0.00    +0.075 A 
ATOM     14  O   UNL     1      -0.982  -2.814  -2.563  0.00  0.00    -0.453 OA
ATOM     15  C   UNL     1      -0.584  -4.091  -2.029  0.00  0.00    +0.466 C 
ATOM     16  O   UNL     1      -0.764  -3.939  -0.609  0.00  0.00    -0.453 OA
ENDBRANCH   4   8
BRANCH   1  18
ATOM     17  C   UNL     1       1.001   5.851   0.516  0.00  0.00    +0.114 C 
ATOM     18  C   UNL     1       1.462   4.672  -0.038  0.00  0.00    +0.033 C 
BRANCH  17  20
ATOM     19  N   UNL     1      -0.822   7.066   1.592  0.00  0.00    -0.281 N 
ATOM     20  C   UNL     1      -0.315   5.891   1.168  0.00  0.00    +0.259 C 
ATOM     21  O   UNL     1      -0.948   4.863   1.325  0.00  0.00    -0.269 OA
ATOM     22  H   UNL     1      -0.287   7.873   1.535  0.00  0.00    +0.155 HD
BRANCH  19  29
ATOM     23  C   UNL     1      -1.463   9.191   3.372  0.00  0.00    +0.045 C 
ATOM     24  C   UNL     1      -2.473   8.141   2.987  0.00  0.00    -0.029 A 
ATOM     25  C   UNL     1      -3.754   8.192   3.501  0.00  0.00    +0.005 A 
ATOM     26  C   UNL     1      -4.682   7.229   3.148  0.00  0.00    +0.000 A 
ATOM     27  C   UNL     1      -4.331   6.212   2.279  0.00  0.00    +0.002 A 
ATOM     28  C   UNL     1      -3.053   6.158   1.758  0.00  0.00    +0.023 A 
ATOM     29  C   UNL     1      -2.118   7.120   2.115  0.00  0.00    +0.037 A 
ENDBRANCH  19  29
ENDBRANCH  17  20
BRANCH  17  30
ATOM     30  C   UNL     1       1.806   7.033   0.456  0.00  0.00    +0.104 C 
ATOM     31  N   UNL     1       2.445   7.971   0.407  0.00  0.00    -0.191 NA
ENDBRANCH  17  30
ENDBRANCH   1  18
TORSDOF 5
