REMARK  Name = ZINC65617126
REMARK  3 active torsions:
REMARK  status: ('A' for Active; 'I' for Inactive)
REMARK    1  A    between atoms: C_5  and  O_24
REMARK    2  A    between atoms: C_6  and  C_7
REMARK    3  A    between atoms: C_12  and  C_15
REMARK                            x       y       z     vdW  Elec       q    Type
REMARK                         _______ _______ _______ _____ _____    ______ ____
ROOT
ATOM      1  C   UNL     1      -1.101  -0.357  -0.116  0.00  0.00    +0.250 C 
ATOM      2  O   UNL     1      -0.154   0.403  -0.180  0.00  0.00    -0.270 OA
ATOM      3  N   UNL     1      -2.358   0.128  -0.159  0.00  0.00    -0.297 N 
ATOM      4  C   UNL     1      -2.601   1.558  -0.394  0.00  0.00    +0.109 C 
ATOM      5  C   UNL     1      -3.496   2.097   0.727  0.00  0.00    +0.032 C 
ATOM      6  C   UNL     1      -4.767   1.249   0.812  0.00  0.00    +0.078 C 
ATOM      7  C   UNL     1      -4.395  -0.198   1.144  0.00  0.00    +0.032 C 
ATOM      8  C   UNL     1      -3.511  -0.764   0.022  0.00  0.00    +0.109 C 
ENDROOT
BRANCH   1  14
ATOM      9  C   UNL     1      -1.519  -2.698  -0.850  0.00  0.00    +0.020 A 
ATOM     10  C   UNL     1      -1.308  -4.063  -0.738  0.00  0.00    -0.043 A 
ATOM     11  C   UNL     1      -0.451  -4.550   0.229  0.00  0.00    -0.041 A 
ATOM     12  C   UNL     1       0.192  -3.674   1.091  0.00  0.00    +0.050 A 
ATOM     13  C   UNL     1      -0.010  -2.309   0.993  0.00  0.00    +0.129 A 
ATOM     14  C   UNL     1      -0.875  -1.809   0.009  0.00  0.00    +0.078 A 
ATOM     15  C   UNL     1      -0.168  -6.021   0.390  0.00  0.00    +0.035 C 
ATOM     16  C   UNL     1      -1.240  -6.856  -0.307  0.00  0.00    +0.005 C 
ATOM     17  C   UNL     1      -1.394  -6.344  -1.744  0.00  0.00    +0.005 C 
ATOM     18  C   UNL     1      -2.045  -4.963  -1.696  0.00  0.00    +0.035 C 
BRANCH  13  19
ATOM     19  O   UNL     1       0.624  -1.460   1.840  0.00  0.00    -0.506 OA
ATOM     20  H   UNL     1       1.484  -1.155   1.521  0.00  0.00    +0.292 HD
ENDBRANCH  13  19
ENDBRANCH   1  14
BRANCH   6  21
ATOM     21  C   UNL     1      -5.665   1.797   1.891  0.00  0.00    +0.219 C 
ATOM     22  O   UNL     1      -5.278   2.702   2.600  0.00  0.00    -0.275 OA
ATOM     23  N   UNL     1      -6.897   1.282   2.069  0.00  0.00    -0.301 N 
ATOM     24  C   UNL     1      -7.704   1.777   3.161  0.00  0.00    +0.108 C 
ATOM     25  C   UNL     1      -7.426   0.939   4.434  0.00  0.00    +0.019 C 
ATOM     26  C   UNL     1      -8.000  -0.408   4.294  0.00  0.00    +0.002 C 
ATOM     27  C   UNL     1      -7.399  -1.233   3.160  0.00  0.00    +0.002 C 
ATOM     28  C   UNL     1      -8.106  -0.900   1.870  0.00  0.00    +0.019 C 
ATOM     29  C   UNL     1      -7.370   0.240   1.136  0.00  0.00    +0.108 C 
ENDBRANCH   6  21
TORSDOF 3
