REMARK  Name = ZINC06591216
REMARK  9 active torsions:
REMARK  status: ('A' for Active; 'I' for Inactive)
REMARK    1  A    between atoms: C_1  and  C_2
REMARK    2  A    between atoms: C_2  and  C_30
REMARK    3  A    between atoms: C_7  and  C_29
REMARK    4  A    between atoms: C_10  and  C_11
REMARK    5  A    between atoms: C_10  and  N_57
REMARK    6  A    between atoms: N_13  and  C_14
REMARK    7  A    between atoms: C_23  and  C_24
REMARK    8  A    between atoms: C_24  and  O_26
REMARK    9  A    between atoms: O_26  and  C_27
REMARK                            x       y       z     vdW  Elec       q    Type
REMARK                         _______ _______ _______ _____ _____    ______ ____
ROOT
ATOM      1  C   UNL     1      -2.889   1.970   2.530  0.00  0.00    +0.201 C 
ATOM      2  O   UNL     1      -2.423   3.033   2.880  0.00  0.00    -0.278 OA
ATOM      3  N   UNL     1      -3.793   1.342   3.308  0.00  0.00    -0.285 N 
ATOM      4  H   UNL     1      -4.238   0.542   2.986  0.00  0.00    +0.155 HD
ENDROOT
BRANCH   3   5
ATOM      5  C   UNL     1      -4.089   1.842   4.572  0.00  0.00    +0.073 A 
ATOM      6  C   UNL     1      -3.162   1.981   5.697  0.00  0.00    +0.023 A 
ATOM      7  C   UNL     1      -1.804   1.689   5.867  0.00  0.00    +0.031 A 
ATOM      8  C   UNL     1      -1.202   1.936   7.068  0.00  0.00    +0.042 A 
ATOM      9  C   UNL     1      -1.928   2.477   8.123  0.00  0.00    +0.022 A 
ATOM     10  C   UNL     1      -3.265   2.772   7.978  0.00  0.00    +0.028 A 
ATOM     11  C   UNL     1      -3.901   2.528   6.762  0.00  0.00    +0.049 A 
ATOM     12  N   UNL     1      -5.193   2.714   6.330  0.00  0.00    -0.348 N 
ATOM     13  H   UNL     1      -5.913   3.080   6.867  0.00  0.00    +0.166 HD
ATOM     14  C   UNL     1      -5.312   2.308   5.009  0.00  0.00    +0.147 A 
ATOM     15 CL   UNL     1       0.482   1.572   7.279  0.00  0.00    -0.084 Cl
BRANCH  14  16
ATOM     16  C   UNL     1      -6.499   2.360   4.234  0.00  0.00    +0.357 C 
ATOM     17  O   UNL     1      -6.459   2.114   3.043  0.00  0.00    -0.243 OA
BRANCH  16  18
ATOM     18  O   UNL     1      -7.672   2.683   4.817  0.00  0.00    -0.463 OA
ATOM     19  C   UNL     1      -8.827   2.716   3.977  0.00  0.00    +0.280 C 
ENDBRANCH  16  18
ENDBRANCH  14  16
ENDBRANCH   3   5
BRANCH   1  20
ATOM     20  C   UNL     1      -2.459   1.351   1.225  0.00  0.00    +0.019 C 
BRANCH  20  31
ATOM     21  C   UNL     1      -4.139   1.822  -1.764  0.00  0.00    +0.011 C 
ATOM     22  C   UNL     1      -2.705   1.992  -2.299  0.00  0.00    -0.036 C 
ATOM     23  C   UNL     1      -1.781   1.032  -1.582  0.00  0.00    -0.009 C 
ATOM     24  C   UNL     1      -0.801   1.638  -0.591  0.00  0.00    -0.067 C 
ATOM     25  C   UNL     1      -0.165   2.884  -1.267  0.00  0.00    -0.011 C 
ATOM     26  C   UNL     1      -1.367   3.864  -1.178  0.00  0.00    -0.048 C 
ATOM     27  C   UNL     1      -2.340   3.464  -2.286  0.00  0.00    +0.011 C 
ATOM     28  C   UNL     1      -2.010   3.529   0.188  0.00  0.00    -0.071 C 
ATOM     29  C   UNL     1      -0.932   5.334  -1.272  0.00  0.00    +0.009 C 
ATOM     30  C   UNL     1      -2.751   1.553  -3.786  0.00  0.00    +0.011 C 
ATOM     31  N   UNL     1      -1.430   2.251   0.600  0.00  0.00    +0.388 N 
ATOM     32  H   UNL     1      -0.701   2.430   1.300  0.00  0.00    -0.081 HD
ENDBRANCH  20  31
ENDBRANCH   1  20
TORSDOF 5
