REMARK  Name = ZINC08921370
REMARK  6 active torsions:
REMARK  status: ('A' for Active; 'I' for Inactive)
REMARK    1  A    between atoms: C_1  and  C_2
REMARK    2  A    between atoms: C_2  and  O_3
REMARK    3  A    between atoms: O_3  and  C_4
REMARK    4  A    between atoms: C_14  and  O_28
REMARK    5  A    between atoms: C_16  and  C_19
REMARK    6  A    between atoms: C_24  and  O_25
REMARK                            x       y       z     vdW  Elec       q    Type
REMARK                         _______ _______ _______ _____ _____    ______ ____
ROOT
ATOM      1  C   UNL     1      -0.165   1.193   2.387  0.00  0.00    +0.403 C 
ATOM      2  O   UNL     1       0.837   0.505   2.422  0.00  0.00    -0.226 OA
ATOM      3  N   UNL     1      -0.747   1.594   3.535  0.00  0.00    -0.262 N 
ATOM      4  C   UNL     1      -0.197   1.211   4.844  0.00  0.00    +0.116 C 
ATOM      5  C   UNL     1       0.276   2.469   5.584  0.00  0.00    +0.056 C 
ATOM      6  C   UNL     1      -0.817   3.529   5.522  0.00  0.00    -0.020 A 
ATOM      7  C   UNL     1      -1.791   3.475   4.585  0.00  0.00    +0.013 A 
ATOM      8  S   UNL     1      -2.801   4.901   4.889  0.00  0.00    -0.076 S 
ATOM      9  C   UNL     1      -1.953   5.545   6.228  0.00  0.00    +0.080 A 
ATOM     10  C   UNL     1      -0.892   4.655   6.438  0.00  0.00    +0.068 A 
ATOM     11  C   UNL     1       0.032   4.952   7.562  0.00  0.00    +0.220 C 
ATOM     12  N   UNL     1      -0.053   6.129   8.121  0.00  0.00    -0.223 NA
ATOM     13  C   UNL     1      -0.943   7.195   7.681  0.00  0.00    +0.227 C 
ATOM     14  N   UNL     1      -2.142   6.659   7.009  0.00  0.00    -0.313 N 
ATOM     15  C   UNL     1      -1.964   2.430   3.525  0.00  0.00    +0.153 C 
ATOM     16  H   UNL     1      -3.015   7.070   7.113  0.00  0.00    +0.149 HD
ENDROOT
BRANCH  13  17
ATOM     17  C   UNL     1      -0.201   8.089   6.722  0.00  0.00    +0.038 A 
ATOM     18  C   UNL     1      -0.875   8.697   5.681  0.00  0.00    +0.026 A 
ATOM     19  C   UNL     1      -0.195   9.522   4.803  0.00  0.00    +0.020 A 
ATOM     20  C   UNL     1       1.163   9.732   4.959  0.00  0.00    +0.039 A 
ATOM     21  C   UNL     1       1.843   9.122   5.996  0.00  0.00    +0.084 A 
ATOM     22  C   UNL     1       1.161   8.298   6.881  0.00  0.00    +0.142 A 
ATOM     23 CL   UNL     1       3.547   9.386   6.192  0.00  0.00    -0.080 Cl
ATOM     24 BR   UNL     1      -1.123  10.358   3.382  0.00  0.00    -0.050 Br
BRANCH  22  25
ATOM     25  O   UNL     1       1.827   7.696   7.902  0.00  0.00    -0.505 OA
ATOM     26  H   UNL     1       2.187   6.827   7.678  0.00  0.00    +0.292 HD
ENDBRANCH  22  25
ENDBRANCH  13  17
BRANCH  11  27
ATOM     27  O   UNL     1       0.931   4.036   7.991  0.00  0.00    -0.492 OA
ATOM     28  H   UNL     1       1.480   4.338   8.728  0.00  0.00    +0.294 HD
ENDBRANCH  11  27
BRANCH   1  29
ATOM     29  O   UNL     1      -0.692   1.554   1.203  0.00  0.00    -0.451 OA
BRANCH  29  31
ATOM     30  C   UNL     1      -0.753   1.593  -1.232  0.00  0.00    +0.048 C 
ATOM     31  C   UNL     1      -0.013   1.086   0.008  0.00  0.00    +0.230 C 
ENDBRANCH  29  31
ENDBRANCH   1  29
TORSDOF 5
