REMARK  Name = ZINC38682644
REMARK  12 active torsions:
REMARK  status: ('A' for Active; 'I' for Inactive)
REMARK    1  A    between atoms: C_1  and  C_2
REMARK    2  A    between atoms: C_2  and  C_3
REMARK    3  A    between atoms: C_3  and  C_4
REMARK    4  A    between atoms: C_4  and  O_5
REMARK    5  A    between atoms: O_5  and  C_6
REMARK    6  A    between atoms: C_11  and  C_12
REMARK    7  A    between atoms: C_17  and  O_26
REMARK    8  A    between atoms: C_21  and  N_25
REMARK    9  A    between atoms: C_22  and  C_23
REMARK   10  A    between atoms: O_26  and  C_27
REMARK   11  A    between atoms: C_27  and  C_29
REMARK   12  A    between atoms: C_33  and  C_35
REMARK                            x       y       z     vdW  Elec       q    Type
REMARK                         _______ _______ _______ _____ _____    ______ ____
ROOT
ATOM      1  C   UNL     1      -5.372  -3.502   0.007  0.00  0.00    +0.101 C 
ATOM      2  C   UNL     1      -6.210  -3.777  -1.214  0.00  0.00    +0.008 A 
ATOM      3  C   UNL     1      -5.862  -3.201  -2.422  0.00  0.00    +0.012 A 
ATOM      4  C   UNL     1      -6.618  -3.443  -3.552  0.00  0.00    +0.047 A 
ATOM      5  C   UNL     1      -7.732  -4.267  -3.478  0.00  0.00    +0.135 A 
ATOM      6  C   UNL     1      -8.083  -4.846  -2.269  0.00  0.00    +0.093 A 
ATOM      7  C   UNL     1      -7.322  -4.601  -1.134  0.00  0.00    +0.138 A 
ATOM      8  O   UNL     1      -7.679  -5.175   0.042  0.00  0.00    -0.441 OA
ATOM      9  C   UNL     1      -7.220  -4.672   1.200  0.00  0.00    +0.199 C 
ATOM     10  C   UNL     1      -6.132  -3.874   1.249  0.00  0.00    +0.098 C 
ENDROOT
BRANCH   1  16
ATOM     11  C   UNL     1      -2.872  -3.674  -0.077  0.00  0.00    +0.125 A 
ATOM     12  C   UNL     1      -1.706  -4.423  -0.138  0.00  0.00    +0.046 A 
ATOM     13  C   UNL     1      -1.774  -5.802  -0.190  0.00  0.00    +0.004 A 
ATOM     14  C   UNL     1      -3.003  -6.435  -0.182  0.00  0.00    +0.001 A 
ATOM     15  C   UNL     1      -4.167  -5.691  -0.122  0.00  0.00    +0.008 A 
ATOM     16  C   UNL     1      -4.104  -4.312  -0.064  0.00  0.00    +0.007 A 
BRANCH  11  17
ATOM     17  O   UNL     1      -2.808  -2.317  -0.026  0.00  0.00    -0.492 OA
BRANCH  17  18
ATOM     18  C   UNL     1      -1.506  -1.729  -0.043  0.00  0.00    +0.229 C 
BRANCH  18  19
ATOM     19  C   UNL     1      -1.634  -0.205   0.021  0.00  0.00    +0.041 C 
BRANCH  19  21
ATOM     20  C   UNL     1      -0.369   1.948   0.067  0.00  0.00    +0.004 C 
ATOM     21  C   UNL     1      -0.240   0.425   0.003  0.00  0.00    -0.000 C 
ENDBRANCH  19  21
ENDBRANCH  18  19
ENDBRANCH  17  18
ENDBRANCH  11  17
ENDBRANCH   1  16
BRANCH   9  22
ATOM     22  N   UNL     1      -7.876  -4.979   2.366  0.00  0.00    -0.328 N 
ATOM     23  H   UNL     1      -8.659  -5.552   2.345  0.00  0.00    +0.145 HD
ATOM     24  H   UNL     1      -7.557  -4.623   3.210  0.00  0.00    +0.145 HD
ENDBRANCH   9  22
BRANCH  10  25
ATOM     25  C   UNL     1      -5.694  -3.370   2.516  0.00  0.00    +0.101 C 
ATOM     26  N   UNL     1      -5.346  -2.971   3.522  0.00  0.00    -0.191 NA
ENDBRANCH  10  25
BRANCH   5  27
ATOM     27  O   UNL     1      -8.478  -4.506  -4.589  0.00  0.00    -0.422 OA
BRANCH  27  28
ATOM     28  C   UNL     1      -7.932  -5.252  -5.569  0.00  0.00    +0.344 C 
ATOM     29  O   UNL     1      -6.849  -5.776  -5.401  0.00  0.00    -0.245 OA
BRANCH  28  30
ATOM     30  C   UNL     1      -8.650  -5.433  -6.846  0.00  0.00    +0.060 A 
ATOM     31  C   UNL     1      -9.893  -4.828  -7.044  0.00  0.00    +0.015 A 
ATOM     32  C   UNL     1     -10.558  -5.001  -8.240  0.00  0.00    +0.001 A 
ATOM     33  C   UNL     1      -9.997  -5.773  -9.242  0.00  0.00    +0.003 A 
ATOM     34  C   UNL     1      -8.767  -6.376  -9.053  0.00  0.00    -0.050 A 
ATOM     35  C   UNL     1      -8.088  -6.206  -7.864  0.00  0.00    +0.018 A 
ATOM     36  C   UNL     1      -8.164  -7.215 -10.150  0.00  0.00    +0.044 C 
ENDBRANCH  28  30
ENDBRANCH  27  28
ENDBRANCH   5  27
TORSDOF 10
