REMARK  Name = ZINC39253040
REMARK  10 active torsions:
REMARK  status: ('A' for Active; 'I' for Inactive)
REMARK    1  A    between atoms: C_1  and  C_2
REMARK    2  A    between atoms: C_2  and  C_3
REMARK    3  A    between atoms: N_17  and  N_18
REMARK    4  A    between atoms: C_19  and  C_20
REMARK    5  A    between atoms: C_24  and  C_29
REMARK    6  A    between atoms: C_26  and  C_28
REMARK    7  A    between atoms: C_29  and  C_30
REMARK    8  A    between atoms: C_30  and  C_31
REMARK    9  A    between atoms: C_32  and  C_33
REMARK   10  A    between atoms: C_32  and  C_34
REMARK                            x       y       z     vdW  Elec       q    Type
REMARK                         _______ _______ _______ _____ _____    ______ ____
ROOT
ATOM      1  C   UNL     1      -4.109   1.291   3.409  0.00  0.00    -0.047 A 
ATOM      2  C   UNL     1      -4.705   0.654   4.506  0.00  0.00    +0.005 A 
ATOM      3  C   UNL     1      -5.846  -0.061   4.381  0.00  0.00    +0.026 A 
ATOM      4  C   UNL     1      -6.479  -0.176   3.062  0.00  0.00    +0.046 A 
ATOM      5  N   UNL     1      -7.548  -0.821   2.659  0.00  0.00    -0.358 N 
ATOM      6  C   UNL     1      -7.796  -0.492   1.265  0.00  0.00    +0.253 C 
ATOM      7  C   UNL     1      -6.560   0.250   0.789  0.00  0.00    +0.115 C 
ATOM      8  C   UNL     1      -5.817   0.500   1.918  0.00  0.00    +0.025 A 
ATOM      9  C   UNL     1      -4.632   1.231   2.163  0.00  0.00    +0.015 A 
ATOM     10  N   UNL     1      -6.302   0.426  -0.509  0.00  0.00    -0.171 NA
ATOM     11  N   UNL     1      -6.802  -0.471  -1.305  0.00  0.00    -0.247 N 
ATOM     12  C   UNL     1      -7.480  -1.548  -0.840  0.00  0.00    +0.227 C 
ATOM     13  N   UNL     1      -7.955  -1.646   0.381  0.00  0.00    -0.220 NA
ATOM     14  N   UNL     1      -7.690  -2.606  -1.703  0.00  0.00    -0.206 N 
ATOM     15  H   UNL     1      -7.354  -2.564  -2.612  0.00  0.00    +0.177 HD
ATOM     16  H   UNL     1      -6.686  -0.366  -2.262  0.00  0.00    +0.192 HD
ATOM     17  H   UNL     1      -8.085  -1.418   3.202  0.00  0.00    +0.162 HD
ENDROOT
BRANCH   1  19
ATOM     18  C   UNL     1      -3.193   3.526   3.971  0.00  0.00    +0.009 C 
ATOM     19  C   UNL     1      -2.841   2.077   3.627  0.00  0.00    +0.032 C 
ENDBRANCH   1  19
BRANCH  14  20
ATOM     20  N   UNL     1      -8.386  -3.740  -1.265  0.00  0.00    -0.192 NA
ATOM     21  C   UNL     1      -8.580  -4.721  -2.065  0.00  0.00    +0.107 C 
BRANCH  21  22
ATOM     22  C   UNL     1      -9.329  -5.941  -1.594  0.00  0.00    +0.039 C 
ATOM     23  C   UNL     1      -8.433  -7.175  -1.721  0.00  0.00    +0.036 C 
ATOM     24  C   UNL     1      -9.240  -8.423  -1.511  0.00  0.00    -0.027 C 
ATOM     25  C   UNL     1     -10.532  -8.470  -1.575  0.00  0.00    -0.073 C 
ATOM     26  C   UNL     1     -11.404  -7.283  -1.860  0.00  0.00    +0.034 C 
ATOM     27  C   UNL     1     -10.575  -6.148  -2.464  0.00  0.00    -0.001 C 
ATOM     28  C   UNL     1     -10.153  -6.526  -3.885  0.00  0.00    +0.008 C 
BRANCH  25  29
ATOM     29  C   UNL     1     -11.202  -9.801  -1.350  0.00  0.00    +0.034 C 
BRANCH  29  30
ATOM     30  C   UNL     1     -11.622  -9.920   0.116  0.00  0.00    +0.031 C 
BRANCH  30  31
ATOM     31  C   UNL     1     -12.292 -11.251   0.341  0.00  0.00    -0.028 C 
ATOM     32  C   UNL     1     -11.805 -12.089   1.223  0.00  0.00    -0.080 C 
ATOM     33  C   UNL     1     -10.504 -11.780   1.917  0.00  0.00    +0.038 C 
ATOM     34  C   UNL     1     -12.547 -13.361   1.543  0.00  0.00    +0.038 C 
ENDBRANCH  30  31
ENDBRANCH  29  30
ENDBRANCH  25  29
ENDBRANCH  21  22
ENDBRANCH  14  20
TORSDOF 6
