REMARK  Name = ZINC01430920
REMARK  7 active torsions:
REMARK  status: ('A' for Active; 'I' for Inactive)
REMARK    1  A    between atoms: C_5  and  C_7
REMARK    2  A    between atoms: C_7  and  S_8
REMARK    3  A    between atoms: S_8  and  C_9
REMARK    4  A    between atoms: C_16  and  N_32
REMARK    5  A    between atoms: C_17  and  C_30
REMARK    6  A    between atoms: C_18  and  C_20
REMARK    7  A    between atoms: C_23  and  C_26
REMARK                            x       y       z     vdW  Elec       q    Type
REMARK                         _______ _______ _______ _____ _____    ______ ____
ROOT
ATOM      1  C   UNL     1       1.151  -0.665  -0.013  0.00  0.00    +0.193 A 
ATOM      2  N   UNL     1       0.002  -0.004   0.002  0.00  0.00    -0.207 NA
ATOM      3  C   UNL     1      -0.016   1.327   0.009  0.00  0.00    +0.128 A 
ATOM      4  C   UNL     1       1.194   2.017   0.002  0.00  0.00    +0.067 A 
ATOM      5  C   UNL     1       2.375   1.293  -0.013  0.00  0.00    +0.232 A 
ATOM      6  N   UNL     1       2.317  -0.037  -0.020  0.00  0.00    -0.186 NA
ATOM      7  O   UNL     1       3.572   1.919  -0.021  0.00  0.00    -0.423 OA
ATOM      8  C   UNL     1       3.651   3.210  -0.386  0.00  0.00    +0.200 C 
ATOM      9  C   UNL     1       2.569   4.023  -0.393  0.00  0.00    +0.098 C 
ATOM     10  C   UNL     1       1.210   3.520   0.010  0.00  0.00    +0.103 C 
ATOM     11  N   UNL     1      -1.219   2.015   0.019  0.00  0.00    -0.343 N 
ATOM     12  H   UNL     1      -2.057   1.526   0.020  0.00  0.00    +0.144 HD
ATOM     13  H   UNL     1      -1.223   2.985   0.024  0.00  0.00    +0.144 HD
ENDROOT
BRANCH  10  14
ATOM     14  C   UNL     1       0.885   4.015   1.395  0.00  0.00    -0.034 A 
ATOM     15  C   UNL     1       1.695   3.671   2.461  0.00  0.00    +0.005 A 
ATOM     16  C   UNL     1       1.399   4.130   3.731  0.00  0.00    +0.012 A 
ATOM     17  C   UNL     1       0.286   4.925   3.937  0.00  0.00    +0.055 A 
ATOM     18  C   UNL     1      -0.527   5.264   2.872  0.00  0.00    +0.012 A 
ATOM     19  C   UNL     1      -0.228   4.810   1.601  0.00  0.00    +0.005 A 
BRANCH  17  20
ATOM     20  C   UNL     1      -0.040   5.420   5.322  0.00  0.00    +0.417 C 
ATOM     21  F   UNL     1      -0.871   4.495   5.964  0.00  0.00    -0.166 F 
ATOM     22  F   UNL     1       1.143   5.571   6.054  0.00  0.00    -0.166 F 
ATOM     23  F   UNL     1      -0.695   6.653   5.234  0.00  0.00    -0.166 F 
ENDBRANCH  17  20
ENDBRANCH  10  14
BRANCH   8  24
ATOM     24  N   UNL     1       4.868   3.721  -0.762  0.00  0.00    -0.328 N 
ATOM     25  H   UNL     1       5.654   3.152  -0.762  0.00  0.00    +0.145 HD
ATOM     26  H   UNL     1       4.943   4.651  -1.028  0.00  0.00    +0.145 HD
ENDBRANCH   8  24
BRANCH   9  27
ATOM     27  C   UNL     1       2.720   5.390  -0.793  0.00  0.00    +0.101 C 
ATOM     28  N   UNL     1       2.841   6.474  -1.110  0.00  0.00    -0.191 NA
ENDBRANCH   9  27
BRANCH   1  29
ATOM     29  S   UNL     1       1.126  -2.426  -0.022  0.00  0.00    -0.081 S 
BRANCH  29  30
ATOM     30  C   UNL     1      -0.661  -2.716  -0.007  0.00  0.00    +0.114 C 
BRANCH  30  35
ATOM     31  C   UNL     1      -1.288  -6.245   1.177  0.00  0.00    +0.000 A 
ATOM     32  C   UNL     1      -1.423  -6.920  -0.023  0.00  0.00    +0.001 A 
ATOM     33  C   UNL     1      -1.312  -6.234  -1.217  0.00  0.00    +0.020 A 
ATOM     34  C   UNL     1      -1.070  -4.872  -1.213  0.00  0.00    +0.045 A 
ATOM     35  C   UNL     1      -0.930  -4.199  -0.012  0.00  0.00    -0.019 A 
ATOM     36  C   UNL     1      -1.042  -4.885   1.182  0.00  0.00    +0.006 A 
ATOM     37 CL   UNL     1      -0.937  -4.008  -2.713  0.00  0.00    -0.083 Cl
ENDBRANCH  30  35
ENDBRANCH  29  30
ENDBRANCH   1  29
TORSDOF 7
