REMARK  Name = ZINC39491754
REMARK  15 active torsions:
REMARK  status: ('A' for Active; 'I' for Inactive)
REMARK    1  A    between atoms: C_1  and  C_2
REMARK    2  A    between atoms: C_2  and  C_3
REMARK    3  A    between atoms: C_2  and  S_4
REMARK    4  A    between atoms: S_4  and  C_7
REMARK    5  A    between atoms: C_7  and  C_9
REMARK    6  A    between atoms: C_7  and  C_32
REMARK    7  A    between atoms: C_9  and  N_10
REMARK    8  A    between atoms: C_12  and  C_23
REMARK    9  A    between atoms: C_17  and  C_19
REMARK   10  A    between atoms: C_19  and  O_21
REMARK   11  A    between atoms: O_21  and  C_22
REMARK   12  A    between atoms: C_23  and  N_24
REMARK   13  A    between atoms: N_24  and  C_25
REMARK   14  A    between atoms: C_25  and  C_26
REMARK   15  A    between atoms: C_37  and  O_38
REMARK                            x       y       z     vdW  Elec       q    Type
REMARK                         _______ _______ _______ _____ _____    ______ ____
ROOT
ATOM      1  N   UNL     1      -1.319  -2.197   2.797  0.00  0.00    -0.344 N 
ATOM      2  C   UNL     1      -1.012  -3.195   1.912  0.00  0.00    +0.088 A 
ATOM      3  C   UNL     1      -0.935  -4.370   2.555  0.00  0.00    -0.039 A 
ATOM      4  C   UNL     1      -1.216  -4.102   3.969  0.00  0.00    +0.002 A 
ATOM      5  C   UNL     1      -1.445  -2.715   4.063  0.00  0.00    +0.049 A 
ATOM      6  C   UNL     1      -1.737  -2.147   5.302  0.00  0.00    +0.027 A 
ATOM      7  C   UNL     1      -1.797  -2.928   6.418  0.00  0.00    +0.017 A 
ATOM      8  C   UNL     1      -1.568  -4.309   6.338  0.00  0.00    +0.060 A 
ATOM      9  C   UNL     1      -1.283  -4.898   5.109  0.00  0.00    +0.025 A 
ENDROOT
BRANCH   8  10
ATOM     10  C   UNL     1      -1.636  -5.139   7.556  0.00  0.00    +0.339 C 
ATOM     11  O   UNL     1      -1.437  -6.335   7.487  0.00  0.00    -0.245 OA
BRANCH  10  12
ATOM     12  O   UNL     1      -1.919  -4.570   8.744  0.00  0.00    -0.464 OA
ATOM     13  C   UNL     1      -1.969  -5.434   9.881  0.00  0.00    +0.280 C 
ENDBRANCH  10  12
ENDBRANCH   8  10
BRANCH   1  14
ATOM     14  C   UNL     1      -1.483  -0.784   2.446  0.00  0.00    +0.153 C 
BRANCH  14  15
ATOM     15  C   UNL     1      -0.163  -0.046   2.674  0.00  0.00    +0.184 C 
BRANCH  15  16
ATOM     16  C   UNL     1      -0.363   1.428   2.431  0.00  0.00    +0.020 A 
ATOM     17  C   UNL     1      -0.104   1.965   1.185  0.00  0.00    +0.009 A 
ATOM     18  C   UNL     1      -0.287   3.317   0.961  0.00  0.00    +0.001 A 
ATOM     19  C   UNL     1      -0.730   4.135   1.984  0.00  0.00    +0.004 A 
ATOM     20  C   UNL     1      -0.991   3.603   3.232  0.00  0.00    +0.046 A 
ATOM     21  C   UNL     1      -0.813   2.245   3.457  0.00  0.00    +0.122 A 
BRANCH  21  22
ATOM     22  O   UNL     1      -1.074   1.719   4.682  0.00  0.00    -0.506 OA
ATOM     23  H   UNL     1      -0.315   1.720   5.281  0.00  0.00    +0.292 HD
ENDBRANCH  21  22
ENDBRANCH  15  16
BRANCH  15  24
ATOM     24  S   UNL     1       1.091  -0.682   1.528  0.00  0.00    -0.020 S 
ATOM     25  O   UNL     1       0.614  -0.514   0.200  0.00  0.00    -0.173 OA
ATOM     26  O   UNL     1       1.481  -1.978   1.962  0.00  0.00    -0.173 OA
BRANCH  24  28
ATOM     27  C   UNL     1       2.942   0.374   3.242  0.00  0.00    +0.031 C 
ATOM     28  C   UNL     1       2.483   0.453   1.785  0.00  0.00    +0.125 C 
ATOM     29  C   UNL     1       3.639   0.059   0.864  0.00  0.00    +0.031 C 
ENDBRANCH  24  28
ENDBRANCH  15  24
ENDBRANCH  14  15
ENDBRANCH   1  14
BRANCH   3  30
ATOM     30  C   UNL     1      -0.621  -5.710   1.942  0.00  0.00    -0.044 C 
BRANCH  30  31
ATOM     31  N   UNL     1      -1.868  -6.459   1.734  0.00  0.00    +0.384 N 
ATOM     32  H   UNL     1      -2.330  -6.595   2.621  0.00  0.00    -0.085 HD
ATOM     33  H   UNL     1      -2.473  -5.939   1.116  0.00  0.00    -0.085 HD
BRANCH  31  34
ATOM     34  C   UNL     1      -1.562  -7.765   1.136  0.00  0.00    -0.046 C 
BRANCH  34  35
ATOM     35  C   UNL     1      -2.841  -8.533   0.923  0.00  0.00    -0.064 A 
ATOM     36  C   UNL     1      -3.327  -9.357   1.921  0.00  0.00    +0.002 A 
ATOM     37  C   UNL     1      -4.500 -10.061   1.726  0.00  0.00    +0.000 A 
ATOM     38  C   UNL     1      -5.188  -9.941   0.533  0.00  0.00    +0.000 A 
ATOM     39  C   UNL     1      -4.703  -9.116  -0.464  0.00  0.00    +0.000 A 
ATOM     40  C   UNL     1      -3.531  -8.408  -0.268  0.00  0.00    +0.002 A 
ENDBRANCH  34  35
ENDBRANCH  31  34
ENDBRANCH  30  31
ENDBRANCH   3  30
TORSDOF 12
