REMARK  Name = ZINC39655541
REMARK  8 active torsions:
REMARK  status: ('A' for Active; 'I' for Inactive)
REMARK    1  A    between atoms: C_4  and  N_7
REMARK    2  A    between atoms: N_7  and  C_8
REMARK    3  A    between atoms: C_8  and  C_9
REMARK    4  A    between atoms: C_9  and  N_10
REMARK    5  A    between atoms: C_11  and  C_13
REMARK    6  A    between atoms: C_24  and  C_26
REMARK    7  A    between atoms: C_31  and  S_32
REMARK    8  A    between atoms: S_32  and  C_33
REMARK                            x       y       z     vdW  Elec       q    Type
REMARK                         _______ _______ _______ _____ _____    ______ ____
ROOT
ATOM      1  C   UNL     1       6.307  -6.229  -0.093  0.00  0.00    +0.100 C 
ATOM      2  C   UNL     1       5.539  -6.778  -1.316  0.00  0.00    +0.121 C 
ATOM      3  N   UNL     1       6.582  -6.999  -2.345  0.00  0.00    -0.296 N 
ATOM      4  C   UNL     1       7.738  -7.537  -1.589  0.00  0.00    +0.115 C 
ATOM      5  C   UNL     1       7.749  -6.732  -0.274  0.00  0.00    -0.004 C 
ATOM      6  C   UNL     1       8.145  -7.632   0.893  0.00  0.00    -0.010 C 
ATOM      7  C   UNL     1       9.601  -8.072   0.721  0.00  0.00    -0.082 C 
ATOM      8  N   UNL     1      10.470  -6.890   0.673  0.00  0.00    +0.379 N 
ATOM      9  C   UNL     1      10.144  -6.077  -0.506  0.00  0.00    -0.082 C 
ATOM     10  C   UNL     1       8.710  -5.552  -0.386  0.00  0.00    -0.010 C 
ATOM     11  C   UNL     1       6.499  -6.764  -3.670  0.00  0.00    +0.249 C 
ATOM     12  O   UNL     1       5.510  -6.227  -4.131  0.00  0.00    -0.270 OA
ATOM     13  H   UNL     1      10.333  -6.339   1.507  0.00  0.00    -0.086 HD
ATOM     14  H   UNL     1      11.433  -7.184   0.621  0.00  0.00    -0.086 HD
ENDROOT
BRANCH  11  15
ATOM     15  C   UNL     1       7.607  -7.158  -4.559  0.00  0.00    +0.069 A 
ATOM     16  C   UNL     1       8.346  -8.319  -4.305  0.00  0.00    +0.017 A 
ATOM     17  C   UNL     1       9.375  -8.645  -5.170  0.00  0.00    +0.020 A 
ATOM     18  C   UNL     1       9.643  -7.824  -6.252  0.00  0.00    +0.112 A 
ATOM     19  N   UNL     1       8.936  -6.734  -6.474  0.00  0.00    -0.248 NA
ATOM     20  C   UNL     1       7.936  -6.377  -5.681  0.00  0.00    +0.114 A 
BRANCH  20  21
ATOM     21  S   UNL     1       7.019  -4.914  -6.030  0.00  0.00    -0.069 S 
BRANCH  21  22
ATOM     22  C   UNL     1       7.860  -4.202  -7.405  0.00  0.00    +0.014 A 
ATOM     23  C   UNL     1       7.420  -4.455  -8.698  0.00  0.00    +0.015 A 
ATOM     24  C   UNL     1       8.081  -3.894  -9.773  0.00  0.00    +0.001 A 
ATOM     25  C   UNL     1       9.181  -3.083  -9.564  0.00  0.00    +0.000 A 
ATOM     26  C   UNL     1       9.623  -2.829  -8.278  0.00  0.00    +0.001 A 
ATOM     27  C   UNL     1       8.963  -3.381  -7.198  0.00  0.00    +0.015 A 
ENDBRANCH  21  22
ENDBRANCH  20  21
ENDBRANCH  11  15
BRANCH   1  29
ATOM     28  N   UNL     1       6.304  -4.053   1.083  0.00  0.00    -0.314 N 
ATOM     29  C   UNL     1       6.274  -4.722  -0.086  0.00  0.00    +0.218 C 
ATOM     30  O   UNL     1       6.221  -4.112  -1.133  0.00  0.00    -0.275 OA
ATOM     31  H   UNL     1       6.346  -4.541   1.921  0.00  0.00    +0.149 HD
BRANCH  28  32
ATOM     32  C   UNL     1       6.272  -2.588   1.090  0.00  0.00    +0.123 C 
BRANCH  32  33
ATOM     33  C   UNL     1       6.315  -2.084   2.534  0.00  0.00    +0.120 C 
BRANCH  33  34
ATOM     34  N   UNL     1       6.283  -0.619   2.541  0.00  0.00    -0.342 N 
ATOM     35  H   UNL     1       6.241  -0.131   1.704  0.00  0.00    +0.146 HD
BRANCH  34  39
ATOM     36  C   UNL     1       6.374   1.448   6.154  0.00  0.00    +0.000 A 
ATOM     37  C   UNL     1       6.314   2.146   4.961  0.00  0.00    +0.002 A 
ATOM     38  C   UNL     1       6.284   1.463   3.761  0.00  0.00    +0.023 A 
ATOM     39  C   UNL     1       6.314   0.074   3.753  0.00  0.00    +0.027 A 
ATOM     40  C   UNL     1       6.374  -0.623   4.953  0.00  0.00    +0.023 A 
ATOM     41  C   UNL     1       6.404   0.066   6.149  0.00  0.00    +0.002 A 
ENDBRANCH  34  39
ENDBRANCH  33  34
ENDBRANCH  32  33
ENDBRANCH  28  32
ENDBRANCH   1  29
TORSDOF 8
