REMARK  Name = ZINC09646330
REMARK  10 active torsions:
REMARK  status: ('A' for Active; 'I' for Inactive)
REMARK    1  A    between atoms: C_1  and  C_2
REMARK    2  A    between atoms: C_2  and  C_3
REMARK    3  A    between atoms: C_2  and  C_4
REMARK    4  A    between atoms: C_2  and  C_5
REMARK    5  A    between atoms: C_8  and  C_11
REMARK    6  A    between atoms: C_14  and  S_23
REMARK    7  A    between atoms: N_15  and  C_16
REMARK    8  A    between atoms: C_16  and  C_17
REMARK    9  A    between atoms: S_23  and  C_24
REMARK   10  A    between atoms: C_24  and  C_25
REMARK                            x       y       z     vdW  Elec       q    Type
REMARK                         _______ _______ _______ _____ _____    ______ ____
ROOT
ATOM      1  C   UNL     1      -2.684  -0.410   2.144  0.00  0.00    +0.165 A 
ATOM      2  N   UNL     1      -3.584  -0.355   3.098  0.00  0.00    -0.128 NA
ATOM      3  N   UNL     1      -4.023   0.847   3.217  0.00  0.00    -0.122 NA
ATOM      4  C   UNL     1      -3.425   1.634   2.351  0.00  0.00    +0.193 A 
ATOM      5  N   UNL     1      -2.550   0.863   1.640  0.00  0.00    -0.298 N 
ENDROOT
BRANCH   1   9
ATOM      6  C   UNL     1      -0.576  -3.867   0.862  0.00  0.00    -0.042 A 
ATOM      7  C   UNL     1      -0.914  -3.722   2.195  0.00  0.00    +0.005 A 
ATOM      8  C   UNL     1      -1.599  -2.602   2.618  0.00  0.00    +0.012 A 
ATOM      9  C   UNL     1      -1.950  -1.614   1.698  0.00  0.00    +0.019 A 
ATOM     10  C   UNL     1      -1.611  -1.769   0.353  0.00  0.00    +0.012 A 
ATOM     11  C   UNL     1      -0.921  -2.891  -0.056  0.00  0.00    +0.005 A 
BRANCH   6  13
ATOM     12  C   UNL     1      -0.656  -6.341   0.718  0.00  0.00    +0.015 C 
ATOM     13  C   UNL     1       0.173  -5.094   0.407  0.00  0.00    -0.013 C 
ATOM     14  C   UNL     1       0.422  -5.009  -1.100  0.00  0.00    +0.015 C 
ATOM     15  C   UNL     1       1.512  -5.176   1.141  0.00  0.00    +0.015 C 
ENDBRANCH   6  13
ENDBRANCH   1   9
BRANCH   5  16
ATOM     16  C   UNL     1      -1.660   1.299   0.562  0.00  0.00    +0.161 C 
BRANCH  16  17
ATOM     17  C   UNL     1      -0.296   1.600   1.128  0.00  0.00    -0.028 A 
ATOM     18  C   UNL     1       0.658   0.602   1.200  0.00  0.00    +0.005 A 
ATOM     19  C   UNL     1       1.911   0.879   1.714  0.00  0.00    +0.000 A 
ATOM     20  C   UNL     1       2.208   2.153   2.161  0.00  0.00    +0.000 A 
ATOM     21  C   UNL     1       1.252   3.150   2.095  0.00  0.00    +0.000 A 
ATOM     22  C   UNL     1      -0.000   2.872   1.581  0.00  0.00    +0.005 A 
ENDBRANCH  16  17
ENDBRANCH   5  16
BRANCH   4  23
ATOM     23  S   UNL     1      -3.702   3.362   2.144  0.00  0.00    -0.078 S 
BRANCH  23  24
ATOM     24  C   UNL     1      -4.963   3.633   3.413  0.00  0.00    +0.153 C 
BRANCH  24  25
ATOM     25  C   UNL     1      -5.365   5.085   3.420  0.00  0.00    +0.146 A 
ATOM     26  N   UNL     1      -4.724   5.943   4.195  0.00  0.00    -0.199 NA
ATOM     27  C   UNL     1      -5.073   7.227   4.200  0.00  0.00    +0.217 A 
ATOM     28  N   UNL     1      -6.074   7.645   3.433  0.00  0.00    -0.181 NA
ATOM     29  C   UNL     1      -6.720   6.779   2.659  0.00  0.00    +0.217 A 
ATOM     30  N   UNL     1      -6.361   5.497   2.655  0.00  0.00    -0.199 NA
ATOM     31  N   UNL     1      -7.760   7.208   1.861  0.00  0.00    -0.327 N 
ATOM     32  N   UNL     1      -4.400   8.123   5.006  0.00  0.00    -0.327 N 
ATOM     33  H   UNL     1      -8.231   6.575   1.296  0.00  0.00    +0.145 HD
ATOM     34  H   UNL     1      -8.020   8.143   1.864  0.00  0.00    +0.145 HD
ATOM     35  H   UNL     1      -4.657   9.058   5.012  0.00  0.00    +0.145 HD
ATOM     36  H   UNL     1      -3.669   7.817   5.566  0.00  0.00    +0.145 HD
ENDBRANCH  24  25
ENDBRANCH  23  24
ENDBRANCH   4  23
TORSDOF 7
