REMARK  Name = ZINC20057171
REMARK  9 active torsions:
REMARK  status: ('A' for Active; 'I' for Inactive)
REMARK    1  A    between atoms: C_1  and  C_2
REMARK    2  A    between atoms: C_2  and  N_3
REMARK    3  A    between atoms: N_3  and  C_4
REMARK    4  A    between atoms: N_3  and  C_6
REMARK    5  A    between atoms: C_4  and  C_5
REMARK    6  A    between atoms: C_6  and  C_7
REMARK    7  A    between atoms: C_7  and  N_8
REMARK    8  A    between atoms: C_26  and  C_28
REMARK    9  A    between atoms: C_26  and  C_29
REMARK                            x       y       z     vdW  Elec       q    Type
REMARK                         _______ _______ _______ _____ _____    ______ ____
ROOT
ATOM      1  N   UNL     1       2.096  -3.730   2.265  0.00  0.00    -0.330 N 
ATOM      2  C   UNL     1       2.774  -4.388   3.280  0.00  0.00    +0.136 A 
ATOM      3  C   UNL     1       2.989  -5.758   3.219  0.00  0.00    +0.080 A 
ATOM      4  C   UNL     1       3.674  -6.424   4.243  0.00  0.00    +0.093 A 
ATOM      5  C   UNL     1       3.839  -7.879   4.067  0.00  0.00    +0.037 A 
ATOM      6  C   UNL     1       4.485  -8.786   4.944  0.00  0.00    -0.024 A 
ATOM      7  C   UNL     1       4.541 -10.105   4.621  0.00  0.00    +0.022 A 
ATOM      8  C   UNL     1       3.970 -10.555   3.426  0.00  0.00    +0.128 A 
ATOM      9  N   UNL     1       3.369  -9.706   2.607  0.00  0.00    -0.224 NA
ATOM     10  C   UNL     1       3.292  -8.422   2.893  0.00  0.00    +0.113 A 
ATOM     11  S   UNL     1       2.578  -7.028   2.055  0.00  0.00    -0.064 S 
ATOM     12  N   UNL     1       4.033 -11.902   3.095  0.00  0.00    -0.315 N 
ATOM     13  C   UNL     1       2.990 -12.901   3.369  0.00  0.00    +0.106 C 
ATOM     14  C   UNL     1       3.509 -14.259   2.850  0.00  0.00    +0.020 C 
ATOM     15  C   UNL     1       5.047 -14.056   2.823  0.00  0.00    +0.020 C 
ATOM     16  C   UNL     1       5.155 -12.565   2.407  0.00  0.00    +0.106 C 
ATOM     17  C   UNL     1       5.204 -11.109   5.529  0.00  0.00    +0.199 C 
ATOM     18  O   UNL     1       6.033 -10.443   6.481  0.00  0.00    -0.369 OA
ATOM     19  C   UNL     1       5.354  -9.397   7.186  0.00  0.00    +0.068 C 
ATOM     20  C   UNL     1       5.093  -8.247   6.211  0.00  0.00    +0.070 C 
ATOM     21  C   UNL     1       4.025  -9.922   7.732  0.00  0.00    +0.041 C 
ATOM     22  C   UNL     1       6.228  -8.904   8.342  0.00  0.00    +0.041 C 
ATOM     23  N   UNL     1       4.101  -5.655   5.270  0.00  0.00    -0.234 NA
ATOM     24  C   UNL     1       3.880  -4.365   5.294  0.00  0.00    +0.224 A 
ATOM     25  N   UNL     1       3.241  -3.721   4.335  0.00  0.00    -0.220 NA
ATOM     26  H   UNL     1       1.761  -4.228   1.503  0.00  0.00    +0.147 HD
ENDROOT
BRANCH   1  27
ATOM     27  C   UNL     1       1.885  -2.282   2.345  0.00  0.00    +0.084 C 
BRANCH  27  28
ATOM     28  C   UNL     1       1.117  -1.810   1.108  0.00  0.00    -0.060 C 
BRANCH  28  29
ATOM     29  N   UNL     1       0.789  -0.385   1.250  0.00  0.00    +0.380 N 
ATOM     30  H   UNL     1       0.289  -0.239   2.114  0.00  0.00    -0.082 HD
BRANCH  29  32
ATOM     31  C   UNL     1       1.696   1.872   1.535  0.00  0.00    -0.017 C 
ATOM     32  C   UNL     1       2.028   0.403   1.262  0.00  0.00    -0.082 C 
ENDBRANCH  29  32
BRANCH  29  33
ATOM     33  C   UNL     1      -0.050   0.039   0.121  0.00  0.00    -0.082 C 
ATOM     34  C   UNL     1      -1.403  -0.671   0.196  0.00  0.00    -0.017 C 
ENDBRANCH  29  33
ENDBRANCH  28  29
ENDBRANCH  27  28
ENDBRANCH   1  27
TORSDOF 5
