REMARK  Name = ZINC17086151
REMARK  11 active torsions:
REMARK  status: ('A' for Active; 'I' for Inactive)
REMARK    1  A    between atoms: C_1  and  C_2
REMARK    2  A    between atoms: C_3  and  C_25
REMARK    3  A    between atoms: C_4  and  C_10
REMARK    4  A    between atoms: C_13  and  O_16
REMARK    5  A    between atoms: O_16  and  C_17
REMARK    6  A    between atoms: C_17  and  C_18
REMARK    7  A    between atoms: N_27  and  C_28
REMARK    8  A    between atoms: C_31  and  O_36
REMARK    9  A    between atoms: C_33  and  O_34
REMARK   10  A    between atoms: O_34  and  C_35
REMARK   11  A    between atoms: O_36  and  C_37
REMARK                            x       y       z     vdW  Elec       q    Type
REMARK                         _______ _______ _______ _____ _____    ______ ____
ROOT
ATOM      1  C   UNL     1      12.183   3.641  -0.267  0.00  0.00    +0.061 C 
ATOM      2  C   UNL     1      11.109   4.613  -0.684  0.00  0.00    +0.017 C 
ATOM      3  C   UNL     1      10.293   4.298  -1.712  0.00  0.00    +0.056 C 
ATOM      4  C   UNL     1       9.227   5.303  -2.100  0.00  0.00    +0.139 C 
ATOM      5  N   UNL     1       9.170   6.550  -1.317  0.00  0.00    -0.315 N 
ATOM      6  C   UNL     1      10.056   6.720  -0.317  0.00  0.00    +0.135 C 
ATOM      7  S   UNL     1      10.001   8.164   0.602  0.00  0.00    -0.019 S 
ATOM      8  N   UNL     1      10.978   5.797  -0.017  0.00  0.00    -0.300 N 
ATOM      9  H   UNL     1       8.510   7.232  -1.518  0.00  0.00    +0.149 HD
ATOM     10  H   UNL     1      11.588   5.979   0.716  0.00  0.00    +0.154 HD
ENDROOT
BRANCH   4  11
ATOM     11  C   UNL     1       7.887   4.624  -1.991  0.00  0.00    -0.022 A 
ATOM     12  C   UNL     1       7.218   4.231  -3.135  0.00  0.00    +0.009 A 
ATOM     13  C   UNL     1       5.988   3.608  -3.039  0.00  0.00    +0.046 A 
ATOM     14  C   UNL     1       5.425   3.377  -1.792  0.00  0.00    +0.121 A 
ATOM     15  C   UNL     1       6.096   3.778  -0.646  0.00  0.00    +0.046 A 
ATOM     16  C   UNL     1       7.328   4.395  -0.748  0.00  0.00    +0.009 A 
BRANCH  14  17
ATOM     17  O   UNL     1       4.216   2.764  -1.694  0.00  0.00    -0.487 OA
BRANCH  17  18
ATOM     18  C   UNL     1       3.697   2.559  -0.379  0.00  0.00    +0.264 C 
BRANCH  18  19
ATOM     19  C   UNL     1       2.359   1.873  -0.468  0.00  0.00    -0.010 A 
ATOM     20  C   UNL     1       1.202   2.623  -0.557  0.00  0.00    +0.008 A 
ATOM     21  C   UNL     1      -0.026   1.994  -0.638  0.00  0.00    +0.020 A 
ATOM     22  C   UNL     1      -0.097   0.612  -0.631  0.00  0.00    +0.041 A 
ATOM     23  C   UNL     1       1.062  -0.139  -0.542  0.00  0.00    +0.020 A 
ATOM     24  C   UNL     1       2.289   0.492  -0.460  0.00  0.00    +0.008 A 
ATOM     25 CL   UNL     1      -1.639  -0.179  -0.732  0.00  0.00    -0.084 Cl
ENDBRANCH  18  19
ENDBRANCH  17  18
ENDBRANCH  14  17
ENDBRANCH   4  11
BRANCH   3  26
ATOM     26  C   UNL     1      10.428   3.070  -2.405  0.00  0.00    +0.248 C 
ATOM     27  O   UNL     1      11.151   2.998  -3.382  0.00  0.00    -0.270 OA
ATOM     28  N   UNL     1       9.755   1.981  -1.983  0.00  0.00    -0.279 N 
ATOM     29  H   UNL     1       9.210   2.028  -1.182  0.00  0.00    +0.155 HD
BRANCH  28  30
ATOM     30  C   UNL     1       9.843   0.780  -2.702  0.00  0.00    +0.076 A 
ATOM     31  C   UNL     1      10.515   0.745  -3.915  0.00  0.00    +0.030 A 
ATOM     32  C   UNL     1      10.607  -0.440  -4.621  0.00  0.00    +0.047 A 
ATOM     33  C   UNL     1      10.018  -1.593  -4.123  0.00  0.00    +0.124 A 
ATOM     34  C   UNL     1       9.341  -1.562  -2.914  0.00  0.00    +0.093 A 
ATOM     35  C   UNL     1       9.252  -0.377  -2.201  0.00  0.00    +0.145 A 
BRANCH  35  36
ATOM     36  O   UNL     1       8.588  -0.344  -1.015  0.00  0.00    -0.493 OA
ATOM     37  C   UNL     1       8.006  -1.569  -0.563  0.00  0.00    +0.277 C 
ENDBRANCH  35  36
BRANCH  33  38
ATOM     38  O   UNL     1      10.105  -2.756  -4.823  0.00  0.00    -0.495 OA
ATOM     39  C   UNL     1      10.817  -2.716  -6.061  0.00  0.00    +0.277 C 
ENDBRANCH  33  38
ENDBRANCH  28  30
ENDBRANCH   3  26
TORSDOF 8
