REMARK  Name = ZINC43414213
REMARK  8 active torsions:
REMARK  status: ('A' for Active; 'I' for Inactive)
REMARK    1  A    between atoms: C_1  and  C_2
REMARK    2  A    between atoms: C_2  and  C_3
REMARK    3  A    between atoms: C_3  and  C_4
REMARK    4  A    between atoms: C_3  and  C_5
REMARK    5  A    between atoms: C_3  and  N_22
REMARK    6  A    between atoms: C_5  and  N_6
REMARK    7  A    between atoms: C_14  and  C_21
REMARK    8  A    between atoms: C_16  and  O_17
REMARK                            x       y       z     vdW  Elec       q    Type
REMARK                         _______ _______ _______ _____ _____    ______ ____
ROOT
ATOM      1  N   UNL     1       0.864  -0.308  -3.804  0.00  0.00    -0.297 N 
ATOM      2  C   UNL     1       0.398   0.148  -4.984  0.00  0.00    +0.304 C 
ATOM      3  O   UNL     1      -0.122   1.249  -5.050  0.00  0.00    -0.253 OA
ATOM      4  N   UNL     1       0.507  -0.602  -6.075  0.00  0.00    -0.269 N 
ATOM      5  C   UNL     1       0.166  -0.091  -7.287  0.00  0.00    +0.038 A 
ATOM      6  C   UNL     1       0.014  -0.951  -8.391  0.00  0.00    +0.024 A 
ATOM      7  C   UNL     1      -0.327  -0.452  -9.607  0.00  0.00    +0.013 A 
ATOM      8  C   UNL     1      -0.530   0.931  -9.768  0.00  0.00    +0.021 A 
ATOM      9  C   UNL     1      -0.884   1.468 -11.022  0.00  0.00    -0.033 A 
ATOM     10  C   UNL     1      -1.072   2.832 -11.127  0.00  0.00    +0.091 A 
ATOM     11  C   UNL     1      -0.911   3.640 -10.012  0.00  0.00    +0.285 A 
ATOM     12  O   UNL     1      -0.575   3.127  -8.823  0.00  0.00    -0.425 OA
ATOM     13  C   UNL     1      -0.379   1.802  -8.665  0.00  0.00    +0.141 A 
ATOM     14  C   UNL     1      -0.038   1.284  -7.429  0.00  0.00    +0.070 A 
ATOM     15  C   UNL     1      -1.054   0.573 -12.223  0.00  0.00    +0.045 C 
ATOM     16  H   UNL     1       1.278  -1.184  -3.752  0.00  0.00    +0.150 HD
ATOM     17  H   UNL     1       0.829  -1.514  -6.006  0.00  0.00    +0.156 HD
ENDROOT
BRANCH  11  18
ATOM     18  O   UNL     1      -1.098   4.969 -10.127  0.00  0.00    -0.480 OA
ATOM     19  H   UNL     1      -0.966   5.458  -9.304  0.00  0.00    +0.295 HD
ENDBRANCH  11  18
BRANCH   1  20
ATOM     20  C   UNL     1       0.744   0.519  -2.601  0.00  0.00    +0.127 C 
BRANCH  20  21
ATOM     21  C   UNL     1       1.487  -0.153  -1.445  0.00  0.00    +0.035 C 
ATOM     22  C   UNL     1       1.096  -1.630  -1.377  0.00  0.00    +0.029 C 
BRANCH  21  23
ATOM     23  N   UNL     1       2.936  -0.039  -1.662  0.00  0.00    -0.291 NA
ATOM     24  C   UNL     1       3.332  -0.684  -2.922  0.00  0.00    +0.113 C 
ATOM     25  C   UNL     1       4.835  -0.491  -3.138  0.00  0.00    +0.175 C 
ATOM     26  O   UNL     1       5.545  -1.018  -2.014  0.00  0.00    -0.377 OA
ATOM     27  C   UNL     1       5.184  -0.411  -0.770  0.00  0.00    +0.175 C 
ATOM     28  C   UNL     1       3.684  -0.604  -0.530  0.00  0.00    +0.113 C 
ENDBRANCH  21  23
BRANCH  21  30
ATOM     29  C   UNL     1       1.480   2.018  -0.208  0.00  0.00    +0.006 C 
ATOM     30  C   UNL     1       1.113   0.535  -0.130  0.00  0.00    +0.020 C 
ENDBRANCH  21  30
ENDBRANCH  20  21
ENDBRANCH   1  20
TORSDOF 5
