REMARK  Name = ZINC13574567
REMARK  10 active torsions:
REMARK  status: ('A' for Active; 'I' for Inactive)
REMARK    1  A    between atoms: C_1  and  C_2
REMARK    2  A    between atoms: C_2  and  C_4
REMARK    3  A    between atoms: C_2  and  O_39
REMARK    4  A    between atoms: N_12  and  C_15
REMARK    5  A    between atoms: C_15  and  C_16
REMARK    6  A    between atoms: C_16  and  C_17
REMARK    7  A    between atoms: C_20  and  O_25
REMARK    8  A    between atoms: C_21  and  O_23
REMARK    9  A    between atoms: O_23  and  C_24
REMARK   10  A    between atoms: O_25  and  C_26
REMARK                            x       y       z     vdW  Elec       q    Type
REMARK                         _______ _______ _______ _____ _____    ______ ____
ROOT
ATOM      1  C   UNL     1       0.742  -0.511   1.242  0.00  0.00    +0.096 C 
ATOM      2  C   UNL     1       0.742  -2.054   1.273  0.00  0.00    +0.109 C 
ATOM      3  C   UNL     1       0.581  -2.421   2.775  0.00  0.00    +0.122 C 
ATOM      4  C   UNL     1       1.897  -3.080   3.116  0.00  0.00    +0.228 C 
ATOM      5  O   UNL     1       2.199  -3.520   4.205  0.00  0.00    -0.275 OA
ATOM      6  N   UNL     1       2.678  -3.105   2.030  0.00  0.00    -0.241 N 
ATOM      7  C   UNL     1       2.124  -2.557   0.922  0.00  0.00    +0.227 C 
ATOM      8  O   UNL     1       2.642  -2.477  -0.171  0.00  0.00    -0.275 OA
ATOM      9  C   UNL     1       0.459  -1.071   3.493  0.00  0.00    +0.136 C 
ATOM     10  N   UNL     1       0.023  -0.102   2.477  0.00  0.00    -0.293 NA
ATOM     11  C   UNL     1      -0.497  -1.147   4.649  0.00  0.00    +0.005 A 
ATOM     12  C   UNL     1      -1.831  -1.474   4.757  0.00  0.00    +0.008 A 
ATOM     13  C   UNL     1      -2.452  -1.452   5.993  0.00  0.00    +0.002 A 
ATOM     14  C   UNL     1      -1.731  -1.100   7.119  0.00  0.00    +0.022 A 
ATOM     15  C   UNL     1      -0.395  -0.771   7.016  0.00  0.00    +0.062 A 
ATOM     16  C   UNL     1       0.239  -0.792   5.775  0.00  0.00    +0.057 A 
ATOM     17  N   UNL     1       1.559  -0.505   5.418  0.00  0.00    -0.282 N 
ATOM     18  C   UNL     1       1.770  -0.647   4.096  0.00  0.00    +0.243 C 
ATOM     19  O   UNL     1       2.814  -0.468   3.505  0.00  0.00    -0.273 OA
ATOM     20 CL   UNL     1       0.500  -0.329   8.437  0.00  0.00    -0.082 Cl
ATOM     21  H   UNL     1       0.265   0.842   2.741  0.00  0.00    +0.124 HD
ATOM     22  H   UNL     1       2.244  -0.236   6.050  0.00  0.00    +0.155 HD
ENDROOT
BRANCH   1  24
ATOM     23  C   UNL     1      -0.019   1.526   0.010  0.00  0.00    +0.039 C 
ATOM     24  C   UNL     1       0.002  -0.004   0.002  0.00  0.00    +0.129 C 
BRANCH  24  25
ATOM     25  O   UNL     1      -1.339  -0.499   0.012  0.00  0.00    -0.390 OA
ATOM     26  H   UNL     1      -1.868  -0.216  -0.746  0.00  0.00    +0.210 HD
ENDBRANCH  24  25
ENDBRANCH   1  24
BRANCH   6  27
ATOM     27  C   UNL     1       4.023  -3.683   2.034  0.00  0.00    +0.121 C 
BRANCH  27  28
ATOM     28  C   UNL     1       3.942  -5.167   1.669  0.00  0.00    +0.054 C 
BRANCH  28  29
ATOM     29  C   UNL     1       5.326  -5.762   1.673  0.00  0.00    -0.042 A 
ATOM     30  C   UNL     1       6.085  -5.751   0.517  0.00  0.00    +0.007 A 
ATOM     31  C   UNL     1       7.355  -6.296   0.515  0.00  0.00    +0.049 A 
ATOM     32  C   UNL     1       7.871  -6.854   1.674  0.00  0.00    +0.161 A 
ATOM     33  C   UNL     1       7.108  -6.865   2.837  0.00  0.00    +0.162 A 
ATOM     34  C   UNL     1       5.837  -6.313   2.833  0.00  0.00    +0.053 A 
BRANCH  33  35
ATOM     35  O   UNL     1       7.610  -7.412   3.977  0.00  0.00    -0.491 OA
ATOM     36  C   UNL     1       6.770  -7.387   5.133  0.00  0.00    +0.277 C 
ENDBRANCH  33  35
BRANCH  32  37
ATOM     37  O   UNL     1       9.121  -7.391   1.674  0.00  0.00    -0.491 OA
ATOM     38  C   UNL     1       9.847  -7.346   0.444  0.00  0.00    +0.277 C 
ENDBRANCH  32  37
ENDBRANCH  28  29
ENDBRANCH  27  28
ENDBRANCH   6  27
TORSDOF 7
