REMARK  Name = ZINC64604242
REMARK  8 active torsions:
REMARK  status: ('A' for Active; 'I' for Inactive)
REMARK    1  A    between atoms: C_1  and  C_2
REMARK    2  A    between atoms: C_7  and  S_12
REMARK    3  A    between atoms: S_12  and  C_13
REMARK    4  A    between atoms: C_13  and  C_14
REMARK    5  A    between atoms: C_16  and  C_19
REMARK    6  A    between atoms: C_19  and  C_20
REMARK    7  A    between atoms: C_20  and  C_21
REMARK    8  A    between atoms: N_23  and  C_24
REMARK                            x       y       z     vdW  Elec       q    Type
REMARK                         _______ _______ _______ _____ _____    ______ ____
ROOT
ATOM      1  C   UNL     1      -4.066  -4.919   1.794  0.00  0.00    +0.182 A 
ATOM      2  N   UNL     1      -4.740  -5.787   1.032  0.00  0.00    -0.195 NA
ATOM      3  C   UNL     1      -5.825  -6.173   1.645  0.00  0.00    +0.228 A 
ATOM      4  O   UNL     1      -5.878  -5.556   2.832  0.00  0.00    -0.338 OA
ATOM      5  N   UNL     1      -4.715  -4.745   2.910  0.00  0.00    -0.060 NA
ENDROOT
BRANCH   1   6
ATOM      6  C   UNL     1      -2.765  -4.255   1.425  0.00  0.00    +0.152 C 
BRANCH   6   7
ATOM      7  S   UNL     1      -1.380  -5.287   1.981  0.00  0.00    -0.107 S 
BRANCH   7  14
ATOM      8  C   UNL     1       0.019   1.469  -0.096  0.00  0.00    +0.044 C 
ATOM      9  C   UNL     1       0.034  -0.038  -0.096  0.00  0.00    -0.048 A 
ATOM     10  C   UNL     1       0.029  -0.713  -1.330  0.00  0.00    +0.005 A 
ATOM     11  C   UNL     1       0.040  -2.057  -1.422  0.00  0.00    +0.028 A 
ATOM     12  C   UNL     1       0.061  -2.868  -0.197  0.00  0.00    +0.061 A 
ATOM     13  N   UNL     1       0.075  -4.153   0.014  0.00  0.00    -0.355 N 
ATOM     14  C   UNL     1       0.092  -4.360   1.467  0.00  0.00    +0.236 C 
ATOM     15  N   UNL     1       0.086  -3.024   2.076  0.00  0.00    -0.355 N 
ATOM     16  C   UNL     1       0.068  -2.154   1.109  0.00  0.00    +0.061 A 
ATOM     17  C   UNL     1       0.058  -0.685   1.086  0.00  0.00    +0.030 A 
ATOM     18  H   UNL     1       0.074  -4.846  -0.665  0.00  0.00    +0.162 HD
ATOM     19  H   UNL     1       0.094  -2.826   3.026  0.00  0.00    +0.162 HD
ENDBRANCH   7  14
ENDBRANCH   6   7
ENDBRANCH   1   6
BRANCH   3  20
ATOM     20  C   UNL     1      -6.843  -7.146   1.109  0.00  0.00    +0.108 C 
BRANCH  20  21
ATOM     21  C   UNL     1      -6.461  -8.567   1.528  0.00  0.00    +0.105 C 
BRANCH  21  22
ATOM     22  C   UNL     1      -7.479  -9.540   0.992  0.00  0.00    +0.218 C 
ATOM     23  O   UNL     1      -8.419  -9.137   0.339  0.00  0.00    -0.275 OA
ATOM     24  N   UNL     1      -7.346 -10.858   1.238  0.00  0.00    -0.283 N 
ATOM     25  H   UNL     1      -6.562 -11.188   1.704  0.00  0.00    +0.155 HD
BRANCH  24  26
ATOM     26  C   UNL     1      -8.340 -11.752   0.821  0.00  0.00    +0.069 A 
ATOM     27  C   UNL     1      -9.030 -11.523  -0.362  0.00  0.00    +0.026 A 
ATOM     28  C   UNL     1     -10.010 -12.407  -0.771  0.00  0.00    +0.002 A 
ATOM     29  C   UNL     1     -10.305 -13.519  -0.005  0.00  0.00    +0.003 A 
ATOM     30  C   UNL     1      -9.621 -13.752   1.174  0.00  0.00    +0.040 A 
ATOM     31  C   UNL     1      -8.635 -12.875   1.587  0.00  0.00    +0.144 A 
ATOM     32  F   UNL     1      -7.962 -13.104   2.736  0.00  0.00    -0.204 F 
ENDBRANCH  24  26
ENDBRANCH  21  22
ENDBRANCH  20  21
ENDBRANCH   3  20
TORSDOF 7
