REMARK  Name = ZINC23587286
REMARK  3 active torsions:
REMARK  status: ('A' for Active; 'I' for Inactive)
REMARK    1  A    between atoms: C_4  and  N_7
REMARK    2  A    between atoms: N_12  and  C_13
REMARK    3  A    between atoms: C_13  and  C_23
REMARK                            x       y       z     vdW  Elec       q    Type
REMARK                         _______ _______ _______ _____ _____    ______ ____
ROOT
ATOM      1  N   UNL     1       1.749  -0.887  -6.186  0.00  0.00    -0.218 NA
ATOM      2  C   UNL     1       2.172  -0.391  -4.985  0.00  0.00    +0.191 C 
ATOM      3  N   UNL     1       3.248  -0.894  -4.402  0.00  0.00    -0.242 N 
ATOM      4  C   UNL     1       3.732  -0.329  -3.288  0.00  0.00    +0.312 C 
ATOM      5  O   UNL     1       3.131   0.589  -2.759  0.00  0.00    -0.252 OA
ATOM      6  N   UNL     1       4.885  -0.777  -2.751  0.00  0.00    -0.220 N 
ATOM      7  N   UNL     1       1.484   0.625  -4.387  0.00  0.00    -0.298 N 
ATOM      8  C   UNL     1       1.774   2.031  -4.713  0.00  0.00    +0.136 C 
ATOM      9  C   UNL     1       0.446   2.728  -5.048  0.00  0.00    +0.179 C 
ATOM     10  O   UNL     1      -0.484   2.502  -3.985  0.00  0.00    -0.377 OA
ATOM     11  C   UNL     1      -0.824   1.127  -3.788  0.00  0.00    +0.179 C 
ATOM     12  C   UNL     1       0.435   0.348  -3.393  0.00  0.00    +0.136 C 
ATOM     13  H   UNL     1       5.474  -1.544  -3.276  0.00  0.00    +0.158 HD
ATOM     14  H   UNL     1       3.744  -1.776  -4.833  0.00  0.00    +0.159 HD
ENDROOT
BRANCH   6  15
ATOM     15  C   UNL     1       5.353  -0.243  -1.470  0.00  0.00    +0.436 C 
ATOM     16  O   UNL     1       4.322  -0.342  -0.470  0.00  0.00    -0.426 OA
ATOM     17  C   UNL     1       3.642   0.841  -0.531  0.00  0.00    +0.169 A 
ATOM     18  C   UNL     1       2.393   1.208  -0.055  0.00  0.00    +0.051 A 
ATOM     19  C   UNL     1       1.928   2.494  -0.252  0.00  0.00    +0.024 A 
ATOM     20  C   UNL     1       2.707   3.419  -0.925  0.00  0.00    +0.045 A 
ATOM     21  C   UNL     1       3.955   3.059  -1.401  0.00  0.00    +0.069 A 
ATOM     22  C   UNL     1       4.426   1.771  -1.208  0.00  0.00    +0.170 A 
ATOM     23  O   UNL     1       5.597   1.172  -1.571  0.00  0.00    -0.426 OA
ATOM     24 CL   UNL     1       2.117   5.033  -1.170  0.00  0.00    -0.083 Cl
BRANCH  15  25
ATOM     25  C   UNL     1       6.616  -0.976  -1.013  0.00  0.00    +0.490 C 
ATOM     26  F   UNL     1       7.017  -0.481   0.232  0.00  0.00    -0.162 F 
ATOM     27  F   UNL     1       6.349  -2.345  -0.908  0.00  0.00    -0.162 F 
ATOM     28  F   UNL     1       7.638  -0.771  -1.947  0.00  0.00    -0.162 F 
ENDBRANCH  15  25
ENDBRANCH   6  15
BRANCH   1  32
ATOM     29  C   UNL     1       3.562  -4.277  -7.790  0.00  0.00    +0.000 A 
ATOM     30  C   UNL     1       3.116  -3.272  -8.628  0.00  0.00    +0.002 A 
ATOM     31  C   UNL     1       2.515  -2.147  -8.099  0.00  0.00    +0.028 A 
ATOM     32  C   UNL     1       2.358  -2.026  -6.724  0.00  0.00    +0.067 A 
ATOM     33  C   UNL     1       2.812  -3.035  -5.885  0.00  0.00    +0.028 A 
ATOM     34  C   UNL     1       3.408  -4.160  -6.421  0.00  0.00    +0.002 A 
ENDBRANCH   1  32
TORSDOF 3
