REMARK  Name = ZINC33642655
REMARK  4 active torsions:
REMARK  status: ('A' for Active; 'I' for Inactive)
REMARK    1  A    between atoms: C_10  and  C_11
REMARK    2  A    between atoms: N_12  and  N_13
REMARK    3  A    between atoms: C_18  and  C_21
REMARK    4  A    between atoms: C_21  and  C_22
REMARK                            x       y       z     vdW  Elec       q    Type
REMARK                         _______ _______ _______ _____ _____    ______ ____
ROOT
ATOM      1  N   UNL     1       6.097   2.039  -0.145  0.00  0.00    -0.127 NA
ATOM      2  C   UNL     1       6.097   3.353  -0.238  0.00  0.00    +0.183 C 
ATOM      3  N   UNL     1       5.013   4.200  -0.330  0.00  0.00    -0.263 N 
ATOM      4  C   UNL     1       5.143   5.512  -0.419  0.00  0.00    +0.232 C 
ATOM      5  O   UNL     1       4.184   6.250  -0.499  0.00  0.00    -0.274 OA
ATOM      6  C   UNL     1       6.569   6.038  -0.416  0.00  0.00    +0.144 C 
ATOM      7  S   UNL     1       7.501   4.457  -0.269  0.00  0.00    -0.075 S 
ATOM      8  H   UNL     1       4.121   3.818  -0.328  0.00  0.00    +0.157 HD
ENDROOT
BRANCH   1  10
ATOM      9  C   UNL     1       4.981   0.088  -0.045  0.00  0.00    +0.143 C 
ATOM     10  N   UNL     1       4.981   1.392  -0.138  0.00  0.00    -0.155 NA
BRANCH   9  20
ATOM     11  C   UNL     1      -0.016   1.357   0.040  0.00  0.00    +0.001 A 
ATOM     12  C   UNL     1       1.168   2.091   0.033  0.00  0.00    +0.001 A 
ATOM     13  C   UNL     1       2.379   1.465   0.008  0.00  0.00    +0.009 A 
ATOM     14  C   UNL     1       2.435   0.067  -0.010  0.00  0.00    -0.009 A 
ATOM     15  C   UNL     1       1.233  -0.682  -0.003  0.00  0.00    -0.017 A 
ATOM     16  C   UNL     1       0.002  -0.004   0.022  0.00  0.00    +0.008 A 
ATOM     17  C   UNL     1       1.294  -2.086  -0.021  0.00  0.00    +0.008 A 
ATOM     18  C   UNL     1       2.493  -2.730  -0.044  0.00  0.00    +0.001 A 
ATOM     19  C   UNL     1       3.696  -2.039  -0.051  0.00  0.00    +0.010 A 
ATOM     20  C   UNL     1       3.712  -0.647  -0.036  0.00  0.00    +0.002 A 
ENDBRANCH   9  20
ENDBRANCH   1  10
BRANCH   6  21
ATOM     21  C   UNL     1       6.896   6.762  -1.723  0.00  0.00    +0.059 C 
BRANCH  21  22
ATOM     22  C   UNL     1       8.272   7.372  -1.629  0.00  0.00    -0.046 A 
ATOM     23  C   UNL     1       8.427   8.656  -1.142  0.00  0.00    +0.005 A 
ATOM     24  C   UNL     1       9.688   9.215  -1.055  0.00  0.00    +0.020 A 
ATOM     25  C   UNL     1      10.795   8.489  -1.457  0.00  0.00    +0.041 A 
ATOM     26  C   UNL     1      10.639   7.204  -1.944  0.00  0.00    +0.020 A 
ATOM     27  C   UNL     1       9.378   6.644  -2.025  0.00  0.00    +0.005 A 
ATOM     28 CL   UNL     1      12.379   9.191  -1.349  0.00  0.00    -0.084 Cl
ENDBRANCH  21  22
ENDBRANCH   6  21
TORSDOF 4
