REMARK  Name = ZINC39521611
REMARK  9 active torsions:
REMARK  status: ('A' for Active; 'I' for Inactive)
REMARK    1  A    between atoms: C_1  and  C_2
REMARK    2  A    between atoms: C_2  and  C_3
REMARK    3  A    between atoms: C_2  and  S_4
REMARK    4  A    between atoms: S_4  and  C_7
REMARK    5  A    between atoms: C_17  and  S_27
REMARK    6  A    between atoms: N_19  and  C_20
REMARK    7  A    between atoms: C_25  and  O_26
REMARK    8  A    between atoms: S_27  and  O_30
REMARK    9  A    between atoms: O_30  and  C_31
REMARK                            x       y       z     vdW  Elec       q    Type
REMARK                         _______ _______ _______ _____ _____    ______ ____
ROOT
ATOM      1  C   UNL     1      -0.108   0.075   2.833  0.00  0.00    +0.133 C 
ATOM      2  C   UNL     1      -1.539  -0.458   2.741  0.00  0.00    +0.026 C 
ATOM      3  C   UNL     1      -2.372   0.116   3.889  0.00  0.00    +0.004 C 
ATOM      4  C   UNL     1      -1.757  -0.306   5.225  0.00  0.00    +0.026 C 
ATOM      5  C   UNL     1      -0.326   0.223   5.317  0.00  0.00    +0.039 C 
ATOM      6  C   UNL     1       0.508  -0.347   4.169  0.00  0.00    +0.052 C 
ATOM      7  C   UNL     1      -0.338   1.751   5.235  0.00  0.00    +0.026 C 
ATOM      8  C   UNL     1      -1.054   2.319   6.463  0.00  0.00    +0.006 C 
ATOM      9  C   UNL     1      -0.301   1.906   7.730  0.00  0.00    +0.050 C 
ATOM     10  C   UNL     1      -0.292   0.378   7.840  0.00  0.00    +0.258 C 
ATOM     11  N   UNL     1       0.264  -0.181   6.600  0.00  0.00    -0.297 N 
ENDROOT
BRANCH  11  12
ATOM     12  C   UNL     1       1.334  -1.082   6.641  0.00  0.00    +0.074 A 
ATOM     13  C   UNL     1       2.639  -0.614   6.599  0.00  0.00    +0.027 A 
ATOM     14  C   UNL     1       3.695  -1.506   6.640  0.00  0.00    +0.002 A 
ATOM     15  C   UNL     1       3.453  -2.865   6.722  0.00  0.00    +0.004 A 
ATOM     16  C   UNL     1       2.154  -3.339   6.763  0.00  0.00    +0.047 A 
ATOM     17  C   UNL     1       1.091  -2.451   6.728  0.00  0.00    +0.138 A 
BRANCH  17  18
ATOM     18  O   UNL     1      -0.186  -2.916   6.774  0.00  0.00    -0.505 OA
ATOM     19  H   UNL     1      -0.567  -3.104   5.906  0.00  0.00    +0.292 HD
ENDBRANCH  17  18
ENDBRANCH  11  12
BRANCH   1  20
ATOM     20  S   UNL     1       0.879  -0.605   1.472  0.00  0.00    -0.026 S 
ATOM     21  O   UNL     1       0.779  -2.022   1.507  0.00  0.00    -0.174 OA
ATOM     22  O   UNL     1       2.166  -0.003   1.505  0.00  0.00    -0.174 OA
BRANCH  20  24
ATOM     23  C   UNL     1      -0.019   1.526   0.010  0.00  0.00    +0.031 C 
ATOM     24  C   UNL     1       0.002  -0.004   0.002  0.00  0.00    +0.125 C 
ATOM     25  C   UNL     1       0.718  -0.497  -1.257  0.00  0.00    +0.031 C 
ENDBRANCH  20  24
ENDBRANCH   1  20
BRANCH  10  26
ATOM     26  S   UNL     1       0.733  -0.123   9.250  0.00  0.00    +0.140 S 
ATOM     27  O   UNL     1       0.608  -1.521   9.473  0.00  0.00    -0.135 OA
ATOM     28  O   UNL     1       2.014   0.485   9.166  0.00  0.00    -0.135 OA
BRANCH  26  29
ATOM     29  O   UNL     1       0.075   0.523  10.461  0.00  0.00    -0.345 OA
BRANCH  29  30
ATOM     30  C   UNL     1      -1.071  -0.089  10.859  0.00  0.00    +0.156 A 
ATOM     31  C   UNL     1      -2.291   0.310  10.332  0.00  0.00    +0.048 A 
ATOM     32  C   UNL     1      -3.455  -0.314  10.739  0.00  0.00    +0.004 A 
ATOM     33  C   UNL     1      -3.405  -1.334  11.670  0.00  0.00    +0.000 A 
ATOM     34  C   UNL     1      -2.191  -1.733  12.197  0.00  0.00    +0.004 A 
ATOM     35  C   UNL     1      -1.023  -1.117  11.790  0.00  0.00    +0.048 A 
ENDBRANCH  29  30
ENDBRANCH  26  29
ENDBRANCH  10  26
TORSDOF 7
