REMARK  Name = ZINC02258609
REMARK  11 active torsions:
REMARK  status: ('A' for Active; 'I' for Inactive)
REMARK    1  A    between atoms: C_1  and  C_2
REMARK    2  A    between atoms: C_2  and  O_3
REMARK    3  A    between atoms: O_3  and  C_4
REMARK    4  A    between atoms: C_8  and  C_11
REMARK    5  A    between atoms: C_9  and  O_10
REMARK    6  A    between atoms: N_12  and  C_13
REMARK    7  A    between atoms: C_14  and  C_22
REMARK    8  A    between atoms: C_21  and  N_51
REMARK    9  A    between atoms: C_22  and  O_24
REMARK   10  A    between atoms: O_24  and  C_25
REMARK   11  A    between atoms: C_25  and  C_26
REMARK                            x       y       z     vdW  Elec       q    Type
REMARK                         _______ _______ _______ _____ _____    ______ ____
ROOT
ATOM      1  C   UNL     1       1.869   2.328   1.201  0.00  0.00    +0.115 A 
ATOM      2  C   UNL     1       1.244   1.962   0.001  0.00  0.00    +0.095 A 
ATOM      3  C   UNL     1       1.851   2.336  -1.210  0.00  0.00    -0.025 A 
ATOM      4  C   UNL     1       3.015   3.028  -1.128  0.00  0.00    -0.021 A 
ATOM      5  S   UNL     1       3.317   3.190   0.610  0.00  0.00    -0.075 S 
ATOM      6  C   UNL     1       3.841   3.529  -2.270  0.00  0.00    -0.036 C 
ATOM      7  C   UNL     1       1.920   2.927  -3.615  0.00  0.00    -0.074 C 
ATOM      8  C   UNL     1       1.266   2.007  -2.582  0.00  0.00    +0.018 C 
ATOM      9  C   UNL     1       4.032   3.432  -4.687  0.00  0.00    -0.096 C 
ATOM     10  N   UNL     1       3.389   2.832  -3.498  0.00  0.00    +0.381 N 
ATOM     11  H   UNL     1       3.656   1.842  -3.438  0.00  0.00    -0.082 HD
ENDROOT
BRANCH   1  13
ATOM     12  C   UNL     1       2.207   2.517   3.470  0.00  0.00    +0.123 C 
ATOM     13  N   UNL     1       1.479   2.089   2.471  0.00  0.00    -0.247 NA
BRANCH  12  18
ATOM     14  C   UNL     1       0.207   1.310   6.417  0.00  0.00    +0.163 A 
ATOM     15  C   UNL     1       0.986   1.768   7.467  0.00  0.00    +0.064 A 
ATOM     16  C   UNL     1       2.157   2.467   7.219  0.00  0.00    +0.022 A 
ATOM     17  C   UNL     1       2.559   2.714   5.924  0.00  0.00    +0.028 A 
ATOM     18  C   UNL     1       1.783   2.257   4.851  0.00  0.00    +0.039 A 
ATOM     19  C   UNL     1       0.595   1.555   5.105  0.00  0.00    +0.167 A 
ATOM     20 BR   UNL     1       3.208   3.085   8.664  0.00  0.00    -0.050 Br
BRANCH  19  21
ATOM     21  O   UNL     1      -0.169   1.112   4.073  0.00  0.00    -0.503 OA
ATOM     22  H   UNL     1       0.058   0.223   3.769  0.00  0.00    +0.292 HD
ENDBRANCH  19  21
BRANCH  14  23
ATOM     23  O   UNL     1      -0.941   0.626   6.670  0.00  0.00    -0.489 OA
BRANCH  23  25
ATOM     24  C   UNL     1      -2.595  -0.365   8.127  0.00  0.00    +0.048 C 
ATOM     25  C   UNL     1      -1.282   0.416   8.042  0.00  0.00    +0.226 C 
ENDBRANCH  23  25
ENDBRANCH  14  23
ENDBRANCH  12  18
ENDBRANCH   1  13
BRANCH   2  26
ATOM     26  C   UNL     1      -0.014   1.212   0.009  0.00  0.00    +0.342 C 
ATOM     27  O   UNL     1       0.002  -0.004   0.002  0.00  0.00    -0.245 OA
BRANCH  26  28
ATOM     28  O   UNL     1      -1.192   1.871   0.018  0.00  0.00    -0.461 OA
BRANCH  28  29
ATOM     29  C   UNL     1      -2.398   1.063   0.019  0.00  0.00    +0.229 C 
ATOM     30  C   UNL     1      -3.624   1.979   0.030  0.00  0.00    +0.048 C 
ENDBRANCH  28  29
ENDBRANCH  26  28
ENDBRANCH   2  26
TORSDOF 8
