REMARK  Name = ZINC28054056
REMARK  3 active torsions:
REMARK  status: ('A' for Active; 'I' for Inactive)
REMARK    1  A    between atoms: C_1  and  C_2
REMARK    2  A    between atoms: C_5  and  C_8
REMARK    3  A    between atoms: C_19  and  C_21
REMARK                            x       y       z     vdW  Elec       q    Type
REMARK                         _______ _______ _______ _____ _____    ______ ____
ROOT
ATOM      1  C   UNL     1      -2.475   4.490   0.413  0.00  0.00    +0.174 C 
ATOM      2  C   UNL     1      -1.308   3.535   0.387  0.00  0.00    +0.026 C 
ATOM      3  C   UNL     1      -1.445   2.248   0.058  0.00  0.00    +0.050 C 
ATOM      4  C   UNL     1      -0.235   1.391   0.046  0.00  0.00    +0.038 A 
ATOM      5  C   UNL     1      -0.327   0.005   0.056  0.00  0.00    +0.013 A 
ATOM      6  C   UNL     1       0.828  -0.754   0.038  0.00  0.00    +0.001 A 
ATOM      7  C   UNL     1       2.068  -0.138   0.011  0.00  0.00    +0.004 A 
ATOM      8  C   UNL     1       2.167   1.241   0.000  0.00  0.00    +0.046 A 
ATOM      9  C   UNL     1       1.020   2.012   0.017  0.00  0.00    +0.131 A 
ATOM     10  O   UNL     1       1.074   3.368   0.010  0.00  0.00    -0.479 OA
ATOM     11  C   UNL     1       0.064   4.064   0.740  0.00  0.00    +0.237 C 
ATOM     12  N   UNL     1      -2.687   1.684  -0.261  0.00  0.00    -0.282 N 
ATOM     13  C   UNL     1      -3.817   2.432   0.027  0.00  0.00    +0.240 A 
ATOM     14  N   UNL     1      -3.730   3.750   0.346  0.00  0.00    -0.201 N 
ATOM     15  N   UNL     1      -5.041   4.163   0.578  0.00  0.00    -0.042 NA
ATOM     16  N   UNL     1      -5.792   3.127   0.390  0.00  0.00    -0.021 NA
ATOM     17  N   UNL     1      -5.076   2.105   0.064  0.00  0.00    -0.092 NA
ATOM     18  H   UNL     1      -2.736   0.686  -0.721  0.00  0.00    +0.155 HD
ENDROOT
BRANCH   1  23
ATOM     19  C   UNL     1      -2.156   8.028  -4.145  0.00  0.00    +0.044 C 
ATOM     20  C   UNL     1      -2.240   7.106  -2.957  0.00  0.00    -0.050 A 
ATOM     21  C   UNL     1      -2.220   7.625  -1.676  0.00  0.00    +0.004 A 
ATOM     22  C   UNL     1      -2.297   6.779  -0.585  0.00  0.00    +0.006 A 
ATOM     23  C   UNL     1      -2.392   5.413  -0.776  0.00  0.00    -0.019 A 
ATOM     24  C   UNL     1      -2.406   4.893  -2.057  0.00  0.00    +0.006 A 
ATOM     25  C   UNL     1      -2.334   5.740  -3.147  0.00  0.00    +0.004 A 
ENDBRANCH   1  23
BRANCH  11  26
ATOM     26  C   UNL     1       0.303   3.879   2.217  0.00  0.00    +0.032 A 
ATOM     27  C   UNL     1       0.989   2.770   2.673  0.00  0.00    +0.010 A 
ATOM     28  C   UNL     1       1.213   2.603   4.027  0.00  0.00    +0.001 A 
ATOM     29  C   UNL     1       0.741   3.540   4.927  0.00  0.00    +0.003 A 
ATOM     30  C   UNL     1       0.049   4.647   4.474  0.00  0.00    +0.039 A 
ATOM     31  C   UNL     1      -0.171   4.818   3.117  0.00  0.00    +0.130 A 
ATOM     32  F   UNL     1      -0.847   5.900   2.673  0.00  0.00    -0.205 F 
ENDBRANCH  11  26
TORSDOF 2
