REMARK  Name = ZINC08592075
REMARK  9 active torsions:
REMARK  status: ('A' for Active; 'I' for Inactive)
REMARK    1  A    between atoms: C_1  and  C_2
REMARK    2  A    between atoms: C_2  and  C_3
REMARK    3  A    between atoms: C_2  and  C_4
REMARK    4  A    between atoms: C_7  and  S_10
REMARK    5  A    between atoms: S_10  and  C_13
REMARK    6  A    between atoms: C_16  and  S_21
REMARK    7  A    between atoms: S_21  and  C_22
REMARK    8  A    between atoms: C_22  and  C_23
REMARK    9  A    between atoms: N_25  and  C_26
REMARK                            x       y       z     vdW  Elec       q    Type
REMARK                         _______ _______ _______ _____ _____    ______ ____
ROOT
ATOM      1  C   UNL     1      -6.636  -0.896  -0.802  0.00  0.00    +0.176 A 
ATOM      2  C   UNL     1      -7.258  -1.213  -1.975  0.00  0.00    +0.146 A 
ATOM      3  N   UNL     1      -8.019  -0.312  -2.591  0.00  0.00    -0.230 NA
ATOM      4  C   UNL     1      -8.192   0.897  -2.092  0.00  0.00    +0.169 A 
ATOM      5  N   UNL     1      -7.596   1.269  -0.925  0.00  0.00    -0.300 N 
ATOM      6  H   UNL     1      -7.733   2.161  -0.572  0.00  0.00    +0.171 HD
ATOM      7  C   UNL     1      -6.819   0.388  -0.260  0.00  0.00    +0.277 A 
ATOM      8  O   UNL     1      -6.282   0.702   0.790  0.00  0.00    -0.266 OA
ENDROOT
BRANCH   1   9
ATOM      9  S   UNL     1      -5.626  -2.081   0.024  0.00  0.00    +0.032 S 
ATOM     10  O   UNL     1      -5.626  -3.249  -0.785  0.00  0.00    -0.164 OA
ATOM     11  O   UNL     1      -6.044  -2.095   1.382  0.00  0.00    -0.164 OA
BRANCH   9  15
ATOM     12  C   UNL     1      -1.389  -0.486  -0.009  0.00  0.00    -0.045 A 
ATOM     13  C   UNL     1      -2.237  -0.174   1.037  0.00  0.00    +0.006 A 
ATOM     14  C   UNL     1      -3.531  -0.661   1.047  0.00  0.00    +0.027 A 
ATOM     15  C   UNL     1      -3.977  -1.460   0.011  0.00  0.00    +0.094 A 
ATOM     16  C   UNL     1      -3.129  -1.771  -1.036  0.00  0.00    +0.027 A 
ATOM     17  C   UNL     1      -1.837  -1.280  -1.048  0.00  0.00    +0.006 A 
BRANCH  12  19
ATOM     18  C   UNL     1      -0.010   1.574  -0.005  0.00  0.00    +0.012 C 
ATOM     19  C   UNL     1       0.021   0.044  -0.020  0.00  0.00    +0.013 C 
ATOM     20  C   UNL     1       0.766  -0.462   1.217  0.00  0.00    +0.012 C 
ENDBRANCH  12  19
ENDBRANCH   9  15
ENDBRANCH   1   9
BRANCH   4  21
ATOM     21  S   UNL     1      -9.211   2.050  -2.950  0.00  0.00    -0.078 S 
BRANCH  21  22
ATOM     22  C   UNL     1      -9.774   1.136  -4.412  0.00  0.00    +0.173 C 
BRANCH  22  23
ATOM     23  C   UNL     1     -10.666   2.020  -5.245  0.00  0.00    +0.227 C 
ATOM     24  O   UNL     1     -10.900   3.155  -4.887  0.00  0.00    -0.275 OA
ATOM     25  N   UNL     1     -11.205   1.549  -6.387  0.00  0.00    -0.285 N 
ATOM     26  H   UNL     1     -10.966   0.665  -6.708  0.00  0.00    +0.155 HD
BRANCH  25  27
ATOM     27  C   UNL     1     -12.111   2.336  -7.110  0.00  0.00    +0.037 A 
ATOM     28  C   UNL     1     -13.174   1.738  -7.774  0.00  0.00    +0.027 A 
ATOM     29  C   UNL     1     -14.067   2.513  -8.488  0.00  0.00    +0.051 A 
ATOM     30  C   UNL     1     -13.905   3.889  -8.544  0.00  0.00    +0.162 A 
ATOM     31  C   UNL     1     -12.844   4.491  -7.879  0.00  0.00    +0.164 A 
ATOM     32  C   UNL     1     -11.950   3.713  -7.159  0.00  0.00    +0.072 A 
ATOM     33  O   UNL     1     -12.673   5.841  -7.916  0.00  0.00    -0.485 OA
ATOM     34  C   UNL     1     -13.372   6.550  -8.945  0.00  0.00    +0.270 C 
ATOM     35  C   UNL     1     -14.819   6.042  -8.981  0.00  0.00    +0.270 C 
ATOM     36  O   UNL     1     -14.794   4.637  -9.257  0.00  0.00    -0.485 OA
ENDBRANCH  25  27
ENDBRANCH  22  23
ENDBRANCH  21  22
ENDBRANCH   4  21
TORSDOF 7
