REMARK  Name = ZINC20726736
REMARK  12 active torsions:
REMARK  status: ('A' for Active; 'I' for Inactive)
REMARK    1  A    between atoms: C_1  and  C_2
REMARK    2  A    between atoms: C_2  and  C_3
REMARK    3  A    between atoms: C_2  and  N_4
REMARK    4  A    between atoms: N_4  and  C_5
REMARK    5  A    between atoms: N_4  and  C_30
REMARK    6  A    between atoms: C_5  and  C_6
REMARK    7  A    between atoms: C_6  and  C_7
REMARK    8  A    between atoms: C_7  and  N_8
REMARK    9  A    between atoms: C_9  and  C_11
REMARK   10  A    between atoms: C_11  and  N_12
REMARK   11  A    between atoms: C_21  and  C_22
REMARK   12  A    between atoms: C_30  and  C_31
REMARK                            x       y       z     vdW  Elec       q    Type
REMARK                         _______ _______ _______ _____ _____    ______ ____
ROOT
ATOM      1  N   UNL     1      -4.268  -0.338   3.340  0.00  0.00    -0.314 N 
ATOM      2  C   UNL     1      -5.581  -0.589   3.163  0.00  0.00    +0.231 C 
ATOM      3  O   UNL     1      -5.935  -1.444   2.378  0.00  0.00    -0.274 OA
ATOM      4  H   UNL     1      -3.947   0.437   4.051  0.00  0.00    +0.149 HD
ENDROOT
BRANCH   1   5
ATOM      5  C   UNL     1      -3.269  -1.098   2.584  0.00  0.00    +0.102 C 
BRANCH   5   6
ATOM      6  C   UNL     1      -1.867  -0.620   2.969  0.00  0.00    +0.000 C 
BRANCH   6   7
ATOM      7  C   UNL     1      -0.824  -1.414   2.180  0.00  0.00    -0.076 C 
BRANCH   7   8
ATOM      8  N   UNL     1       0.514  -0.875   2.458  0.00  0.00    +0.384 N 
ATOM      9  H   UNL     1       0.461   0.221   2.377  0.00  0.00    -0.081 HD
BRANCH   8  11
ATOM     10  C   UNL     1       1.388  -2.875   1.347  0.00  0.00    -0.014 C 
ATOM     11  C   UNL     1       1.490  -1.353   1.470  0.00  0.00    -0.074 C 
ATOM     12  C   UNL     1       1.197  -0.712   0.112  0.00  0.00    -0.014 C 
ENDBRANCH   8  11
BRANCH   8  13
ATOM     13  C   UNL     1       0.942  -1.207   3.823  0.00  0.00    -0.043 C 
BRANCH  13  14
ATOM     14  C   UNL     1       2.195  -0.440   4.157  0.00  0.00    -0.064 A 
ATOM     15  C   UNL     1       3.434  -0.990   3.889  0.00  0.00    +0.002 A 
ATOM     16  C   UNL     1       4.584  -0.285   4.191  0.00  0.00    +0.000 A 
ATOM     17  C   UNL     1       4.495   0.967   4.770  0.00  0.00    +0.000 A 
ATOM     18  C   UNL     1       3.256   1.515   5.044  0.00  0.00    +0.000 A 
ATOM     19  C   UNL     1       2.106   0.812   4.737  0.00  0.00    +0.002 A 
ENDBRANCH  13  14
ENDBRANCH   8  13
ENDBRANCH   7   8
ENDBRANCH   6   7
ENDBRANCH   5   6
ENDBRANCH   1   5
BRANCH   2  20
ATOM     20  C   UNL     1      -6.609   0.193   3.940  0.00  0.00    +0.209 C 
BRANCH  20  21
ATOM     21  N   UNL     1      -7.951  -0.264   3.572  0.00  0.00    -0.257 N 
ATOM     22  C   UNL     1      -8.567   0.397   2.518  0.00  0.00    +0.051 A 
ATOM     23  C   UNL     1      -7.771   1.113   1.624  0.00  0.00    +0.024 A 
ATOM     24  C   UNL     1      -8.341   1.783   0.562  0.00  0.00    +0.002 A 
ATOM     25  C   UNL     1      -9.710   1.756   0.367  0.00  0.00    +0.001 A 
ATOM     26  C   UNL     1     -10.514   1.052   1.244  0.00  0.00    +0.017 A 
ATOM     27  C   UNL     1      -9.948   0.378   2.313  0.00  0.00    +0.034 A 
ATOM     28  S   UNL     1     -10.978  -0.518   3.436  0.00  0.00    -0.082 S 
ATOM     29  C   UNL     1      -9.845  -1.735   4.056  0.00  0.00    +0.076 C 
ATOM     30  C   UNL     1     -10.229  -3.010   4.306  0.00  0.00    +0.028 C 
ATOM     31  C   UNL     1      -8.454  -1.279   4.280  0.00  0.00    +0.258 C 
ATOM     32  O   UNL     1      -7.766  -1.829   5.119  0.00  0.00    -0.269 OA
BRANCH  30  33
ATOM     33  C   UNL     1     -11.648  -3.382   4.215  0.00  0.00    -0.024 A 
ATOM     34  C   UNL     1     -12.640  -2.468   4.587  0.00  0.00    +0.008 A 
ATOM     35  C   UNL     1     -13.969  -2.823   4.493  0.00  0.00    +0.001 A 
ATOM     36  C   UNL     1     -14.323  -4.083   4.043  0.00  0.00    +0.000 A 
ATOM     37  C   UNL     1     -13.348  -4.995   3.678  0.00  0.00    +0.001 A 
ATOM     38  C   UNL     1     -12.014  -4.654   3.761  0.00  0.00    +0.008 A 
ENDBRANCH  30  33
ENDBRANCH  20  21
ENDBRANCH   2  20
TORSDOF 10
