REMARK  Name = ZINC15673472
REMARK  7 active torsions:
REMARK  status: ('A' for Active; 'I' for Inactive)
REMARK    1  A    between atoms: C_4  and  S_7
REMARK    2  A    between atoms: S_7  and  C_8
REMARK    3  A    between atoms: C_8  and  C_9
REMARK    4  A    between atoms: C_11  and  C_14
REMARK    5  A    between atoms: C_14  and  C_15
REMARK    6  A    between atoms: C_20  and  C_22
REMARK    7  A    between atoms: C_22  and  C_23
REMARK                            x       y       z     vdW  Elec       q    Type
REMARK                         _______ _______ _______ _____ _____    ______ ____
ROOT
ATOM      1  C   UNL     1      -9.744   0.750   0.899  0.00  0.00    -0.019 C 
ATOM      2  C   UNL     1     -10.028   0.416  -0.567  0.00  0.00    -0.079 C 
ATOM      3  C   UNL     1     -12.418   0.599  -0.206  0.00  0.00    -0.082 C 
ATOM      4  C   UNL     1     -12.205   0.939   1.271  0.00  0.00    -0.015 C 
ATOM      5  C   UNL     1     -10.916   0.274   1.762  0.00  0.00    -0.002 C 
ATOM      6  N   UNL     1     -11.271   1.084  -0.998  0.00  0.00    +0.379 N 
ATOM      7  H   UNL     1     -11.437   0.882  -1.991  0.00  0.00    -0.086 HD
ATOM      8  H   UNL     1     -11.174   2.098  -0.866  0.00  0.00    -0.086 HD
ENDROOT
BRANCH   1   9
ATOM      9  C   UNL     1      -8.462   0.045   1.344  0.00  0.00    +0.061 C 
BRANCH   9  12
ATOM     10  C   UNL     1      -5.379   1.506   0.036  0.00  0.00    +0.148 A 
ATOM     11  C   UNL     1      -6.106   1.150   1.123  0.00  0.00    +0.071 A 
ATOM     12  C   UNL     1      -7.290   0.603   0.579  0.00  0.00    +0.084 A 
ATOM     13  N   UNL     1      -7.165   0.671  -0.715  0.00  0.00    -0.083 NA
ATOM     14  O   UNL     1      -6.111   1.169  -1.035  0.00  0.00    -0.359 OA
BRANCH  10  15
ATOM     15  C   UNL     1      -4.016   2.147   0.033  0.00  0.00    +0.151 C 
BRANCH  15  16
ATOM     16  S   UNL     1      -2.741   0.857   0.020  0.00  0.00    -0.117 S 
BRANCH  16  20
ATOM     17  C   UNL     1       1.155   3.166   0.007  0.00  0.00    +0.000 A 
ATOM     18  C   UNL     1       1.173   1.783   0.000  0.00  0.00    +0.001 A 
ATOM     19  C   UNL     1      -0.013   1.076   0.008  0.00  0.00    +0.015 A 
ATOM     20  C   UNL     1      -1.225   1.755   0.017  0.00  0.00    +0.008 A 
ATOM     21  C   UNL     1      -1.239   3.145   0.031  0.00  0.00    +0.015 A 
ATOM     22  C   UNL     1      -0.049   3.845   0.022  0.00  0.00    +0.001 A 
ENDBRANCH  16  20
ENDBRANCH  15  16
ENDBRANCH  10  15
ENDBRANCH   9  12
ENDBRANCH   1   9
BRANCH   5  23
ATOM     23  C   UNL     1     -11.050  -1.246   1.649  0.00  0.00    +0.100 C 
BRANCH  23  24
ATOM     24  C   UNL     1     -12.122  -1.728   2.592  0.00  0.00    +0.219 C 
ATOM     25  O   UNL     1     -12.720  -0.933   3.286  0.00  0.00    -0.275 OA
ATOM     26  N   UNL     1     -12.416  -3.041   2.664  0.00  0.00    -0.265 N 
ATOM     27  C   UNL     1     -13.405  -3.485   3.534  0.00  0.00    +0.164 A 
ATOM     28  N   UNL     1     -14.154  -2.785   4.364  0.00  0.00    -0.233 NA
ATOM     29  C   UNL     1     -15.060  -3.368   5.124  0.00  0.00    +0.120 A 
ATOM     30  C   UNL     1     -15.200  -4.714   5.045  0.00  0.00    +0.068 A 
ATOM     31  S   UNL     1     -13.967  -5.104   3.812  0.00  0.00    -0.061 S 
ATOM     32  H   UNL     1     -11.937  -3.676   2.109  0.00  0.00    +0.157 HD
ENDBRANCH  23  24
ENDBRANCH   5  23
TORSDOF 7
