REMARK  Name = ZINC27498270
REMARK  10 active torsions:
REMARK  status: ('A' for Active; 'I' for Inactive)
REMARK    1  A    between atoms: C_1  and  C_2
REMARK    2  A    between atoms: C_2  and  C_3
REMARK    3  A    between atoms: C_2  and  C_4
REMARK    4  A    between atoms: C_4  and  C_6
REMARK    5  A    between atoms: C_4  and  N_23
REMARK    6  A    between atoms: N_8  and  C_9
REMARK    7  A    between atoms: C_9  and  C_10
REMARK    8  A    between atoms: C_10  and  C_12
REMARK    9  A    between atoms: C_10  and  N_17
REMARK   10  A    between atoms: C_24  and  C_26
REMARK                            x       y       z     vdW  Elec       q    Type
REMARK                         _______ _______ _______ _____ _____    ______ ____
ROOT
ATOM      1  C   UNL     1      -0.664   2.255   1.394  0.00  0.00    +0.234 C 
ATOM      2  O   UNL     1      -1.701   2.885   1.397  0.00  0.00    -0.274 OA
ATOM      3  N   UNL     1      -0.196   1.724   2.541  0.00  0.00    -0.315 N 
ATOM      4  H   UNL     1       0.744   1.153   2.539  0.00  0.00    +0.149 HD
ENDROOT
BRANCH   1   5
ATOM      5  C   UNL     1       0.101   2.068   0.110  0.00  0.00    +0.162 C 
BRANCH   5   6
ATOM      6  N   UNL     1      -0.610   2.735  -0.984  0.00  0.00    -0.300 N 
ATOM      7  C   UNL     1      -0.438   2.317  -2.254  0.00  0.00    +0.245 C 
ATOM      8  O   UNL     1       0.307   1.387  -2.492  0.00  0.00    -0.270 OA
ATOM      9  H   UNL     1      -1.284   3.577  -0.768  0.00  0.00    +0.150 HD
BRANCH   7  10
ATOM     10  C   UNL     1      -1.155   2.991  -3.357  0.00  0.00    +0.037 A 
ATOM     11  C   UNL     1      -2.016   4.056  -3.086  0.00  0.00    +0.014 A 
ATOM     12  C   UNL     1      -2.677   4.685  -4.120  0.00  0.00    +0.021 A 
ATOM     13  C   UNL     1      -2.499   4.253  -5.424  0.00  0.00    +0.041 A 
ATOM     14  C   UNL     1      -1.651   3.192  -5.698  0.00  0.00    +0.021 A 
ATOM     15  C   UNL     1      -0.979   2.560  -4.673  0.00  0.00    +0.014 A 
ATOM     16 CL   UNL     1      -3.341   5.044  -6.719  0.00  0.00    -0.084 Cl
ENDBRANCH   7  10
ENDBRANCH   5   6
BRANCH   5  18
ATOM     17  C   UNL     1       2.274   2.483  -1.050  0.00  0.00    +0.009 C 
ATOM     18  C   UNL     1       1.498   2.674   0.254  0.00  0.00    +0.012 C 
ATOM     19  C   UNL     1       1.377   4.168   0.562  0.00  0.00    +0.009 C 
ENDBRANCH   5  18
ENDBRANCH   1   5
BRANCH   3  20
ATOM     20  C   UNL     1      -0.939   1.907   3.790  0.00  0.00    +0.096 C 
BRANCH  20  21
ATOM     21  C   UNL     1      -0.262   1.111   4.908  0.00  0.00    +0.016 C 
BRANCH  21  22
ATOM     22  N   UNL     1       1.151   1.500   4.999  0.00  0.00    +0.387 N 
ATOM     23  C   UNL     1       1.854   0.699   6.009  0.00  0.00    -0.078 C 
ATOM     24  C   UNL     1       3.348   1.029   5.976  0.00  0.00    -0.019 C 
ATOM     25  C   UNL     1       3.542   2.522   6.256  0.00  0.00    -0.004 C 
ATOM     26  C   UNL     1       2.761   3.334   5.220  0.00  0.00    -0.019 C 
ATOM     27  C   UNL     1       1.284   2.937   5.275  0.00  0.00    -0.078 C 
ATOM     28  H   UNL     1       1.622   1.301   4.026  0.00  0.00    -0.081 HD
ENDBRANCH  21  22
BRANCH  21  29
ATOM     29  C   UNL     1      -0.949   1.399   6.218  0.00  0.00    +0.093 A 
ATOM     30  C   UNL     1      -1.744   0.550   6.893  0.00  0.00    +0.043 A 
ATOM     31  C   UNL     1      -2.170   1.228   8.059  0.00  0.00    +0.041 A 
ATOM     32  C   UNL     1      -1.610   2.450   8.026  0.00  0.00    +0.195 A 
ATOM     33  O   UNL     1      -0.867   2.547   6.911  0.00  0.00    -0.469 OA
ENDBRANCH  21  29
ENDBRANCH  20  21
ENDBRANCH   3  20
TORSDOF 8
