REMARK  Name = ZINC12040769
REMARK  18 active torsions:
REMARK  status: ('A' for Active; 'I' for Inactive)
REMARK    1  A    between atoms: C_1  and  C_2
REMARK    2  A    between atoms: C_2  and  O_3
REMARK    3  A    between atoms: O_3  and  C_4
REMARK    4  A    between atoms: C_11  and  C_13
REMARK    5  A    between atoms: C_11  and  C_22
REMARK    6  A    between atoms: C_11  and  N_81
REMARK    7  A    between atoms: C_16  and  N_19
REMARK    8  A    between atoms: N_19  and  C_20
REMARK    9  A    between atoms: N_19  and  C_21
REMARK   10  A    between atoms: C_24  and  C_33
REMARK   11  A    between atoms: C_25  and  O_32
REMARK   12  A    between atoms: C_26  and  C_28
REMARK   13  A    between atoms: C_28  and  C_29
REMARK   14  A    between atoms: C_28  and  C_30
REMARK   15  A    between atoms: C_28  and  C_31
REMARK   16  A    between atoms: C_33  and  C_34
REMARK   17  A    between atoms: C_33  and  C_35
REMARK   18  A    between atoms: C_33  and  C_36
REMARK                            x       y       z     vdW  Elec       q    Type
REMARK                         _______ _______ _______ _____ _____    ______ ____
ROOT
ATOM      1  C   UNL     1      -1.446   3.588  -2.386  0.00  0.00    -0.007 C 
ENDROOT
BRANCH   1   9
ATOM      2  C   UNL     1       2.304   1.195   0.727  0.00  0.00    +0.403 C 
ATOM      3  O   UNL     1       3.355   1.781   0.898  0.00  0.00    -0.226 OA
ATOM      4  N   UNL     1       1.193   1.886   0.402  0.00  0.00    -0.271 N 
ATOM      5  C   UNL     1       1.231   3.348   0.249  0.00  0.00    +0.092 C 
ATOM      6  C   UNL     1       0.600   3.718  -1.097  0.00  0.00    -0.058 C 
ATOM      7  C   UNL     1      -0.669   1.651  -1.159  0.00  0.00    -0.058 C 
ATOM      8  C   UNL     1      -0.089   1.197   0.185  0.00  0.00    +0.092 C 
ATOM      9  N   UNL     1      -0.755   3.128  -1.164  0.00  0.00    +0.389 N 
ATOM     10  H   UNL     1      -1.292   3.433  -0.343  0.00  0.00    -0.080 HD
BRANCH   2  11
ATOM     11  O   UNL     1       2.249  -0.143   0.863  0.00  0.00    -0.451 OA
BRANCH  11  13
ATOM     12  C   UNL     1       3.227  -2.325   1.323  0.00  0.00    +0.048 C 
ATOM     13  C   UNL     1       3.484  -0.821   1.214  0.00  0.00    +0.230 C 
ENDBRANCH  11  13
ENDBRANCH   2  11
ENDBRANCH   1   9
BRANCH   1  14
ATOM     14  C   UNL     1      -2.829   2.990  -2.421  0.00  0.00    -0.057 A 
ATOM     15  C   UNL     1      -3.592   2.949  -1.268  0.00  0.00    +0.004 A 
ATOM     16  C   UNL     1      -4.861   2.407  -1.297  0.00  0.00    +0.023 A 
ATOM     17  C   UNL     1      -5.367   1.891  -2.484  0.00  0.00    +0.029 A 
ATOM     18  C   UNL     1      -4.596   1.928  -3.638  0.00  0.00    +0.023 A 
ATOM     19  C   UNL     1      -3.329   2.477  -3.603  0.00  0.00    +0.004 A 
BRANCH  17  20
ATOM     20  N   UNL     1      -6.649   1.336  -2.515  0.00  0.00    -0.336 N 
ATOM     21  C   UNL     1      -7.225   0.897  -3.789  0.00  0.00    +0.129 C 
ATOM     22  C   UNL     1      -7.415   1.192  -1.276  0.00  0.00    +0.129 C 
ENDBRANCH  17  20
ENDBRANCH   1  14
BRANCH   1  23
ATOM     23  C   UNL     1      -1.550   5.091  -2.352  0.00  0.00    -0.056 A 
ATOM     24  C   UNL     1      -1.869   5.734  -1.169  0.00  0.00    +0.010 A 
ATOM     25  C   UNL     1      -1.959   7.112  -1.134  0.00  0.00    -0.000 A 
ATOM     26  C   UNL     1      -1.741   7.850  -2.288  0.00  0.00    +0.124 A 
ATOM     27  C   UNL     1      -1.427   7.203  -3.474  0.00  0.00    -0.000 A 
ATOM     28  C   UNL     1      -1.332   5.825  -3.503  0.00  0.00    +0.010 A 
BRANCH  27  29
ATOM     29  C   UNL     1      -1.190   8.002  -4.729  0.00  0.00    -0.009 C 
ATOM     30  C   UNL     1      -0.864   7.053  -5.884  0.00  0.00    +0.015 C 
ATOM     31  C   UNL     1      -2.447   8.805  -5.068  0.00  0.00    +0.015 C 
ATOM     32  C   UNL     1      -0.017   8.960  -4.510  0.00  0.00    +0.015 C 
ENDBRANCH  27  29
BRANCH  25  33
ATOM     33  C   UNL     1      -2.300   7.812   0.156  0.00  0.00    -0.009 C 
ATOM     34  C   UNL     1      -2.489   6.775   1.265  0.00  0.00    +0.015 C 
ATOM     35  C   UNL     1      -1.164   8.764   0.536  0.00  0.00    +0.015 C 
ATOM     36  C   UNL     1      -3.594   8.608  -0.022  0.00  0.00    +0.015 C 
ENDBRANCH  25  33
BRANCH  26  37
ATOM     37  O   UNL     1      -1.834   9.206  -2.256  0.00  0.00    -0.506 OA
ATOM     38  H   UNL     1      -2.720   9.543  -2.445  0.00  0.00    +0.292 HD
ENDBRANCH  26  37
ENDBRANCH   1  23
TORSDOF 9
