REMARK  Name = ZINC06149268
REMARK  15 active torsions:
REMARK  status: ('A' for Active; 'I' for Inactive)
REMARK    1  A    between atoms: C_1  and  C_2
REMARK    2  A    between atoms: C_2  and  C_3
REMARK    3  A    between atoms: C_3  and  C_4
REMARK    4  A    between atoms: C_3  and  C_5
REMARK    5  A    between atoms: C_3  and  N_6
REMARK    6  A    between atoms: C_7  and  C_11
REMARK    7  A    between atoms: C_11  and  C_13
REMARK    8  A    between atoms: C_11  and  N_73
REMARK    9  A    between atoms: C_18  and  C_25
REMARK   10  A    between atoms: C_26  and  C_27
REMARK   11  A    between atoms: C_26  and  N_73
REMARK   12  A    between atoms: C_31  and  O_33
REMARK   13  A    between atoms: O_33  and  C_34
REMARK   14  A    between atoms: C_35  and  C_36
REMARK   15  A    between atoms: C_35  and  N_73
REMARK                            x       y       z     vdW  Elec       q    Type
REMARK                         _______ _______ _______ _____ _____    ______ ____
ROOT
ATOM      1  C   UNL     1      -5.394   0.703   5.325  0.00  0.00    +0.040 C 
ENDROOT
BRANCH   1   2
ATOM      2  C   UNL     1      -5.093  -0.108   6.559  0.00  0.00    +0.011 A 
ATOM      3  C   UNL     1      -5.017   0.502   7.768  0.00  0.00    +0.017 A 
ATOM      4  C   UNL     1      -4.728  -0.315   8.947  0.00  0.00    -0.001 A 
ATOM      5  C   UNL     1      -4.643   0.257  10.221  0.00  0.00    +0.010 A 
ATOM      6  C   UNL     1      -4.367  -0.533  11.301  0.00  0.00    +0.004 A 
ATOM      7  C   UNL     1      -4.170  -1.898  11.146  0.00  0.00    -0.048 A 
ATOM      8  C   UNL     1      -4.249  -2.483   9.901  0.00  0.00    +0.029 A 
ATOM      9  C   UNL     1      -4.528  -1.699   8.786  0.00  0.00    +0.049 A 
ATOM     10  N   UNL     1      -4.613  -2.258   7.529  0.00  0.00    -0.322 N 
ATOM     11  H   UNL     1      -4.471  -3.242   7.416  0.00  0.00    +0.169 HD
ATOM     12  C   UNL     1      -4.885  -1.500   6.452  0.00  0.00    +0.251 A 
ATOM     13  O   UNL     1      -4.953  -2.028   5.356  0.00  0.00    -0.268 OA
ATOM     14  C   UNL     1      -3.867  -2.749  12.352  0.00  0.00    +0.044 C 
ENDBRANCH   1   2
BRANCH   1  16
ATOM     15  N   UNL     1      -7.827   1.249   4.790  0.00  0.00    -0.225 N 
ATOM     16  C   UNL     1      -6.789   0.393   4.849  0.00  0.00    +0.143 A 
ATOM     17  N   UNL     1      -7.227  -0.760   4.406  0.00  0.00    -0.115 NA
ATOM     18  N   UNL     1      -8.471  -0.622   4.099  0.00  0.00    -0.023 NA
ATOM     19  N   UNL     1      -8.835   0.592   4.326  0.00  0.00    -0.043 NA
BRANCH  15  20
ATOM     20  C   UNL     1      -7.813   2.662   5.178  0.00  0.00    +0.061 C 
ATOM     21  C   UNL     1      -7.426   2.781   6.653  0.00  0.00    +0.036 C 
ATOM     22  C   UNL     1      -6.794   3.416   4.320  0.00  0.00    +0.036 C 
BRANCH  20  24
ATOM     23  C   UNL     1      -9.189   4.738   5.370  0.00  0.00    +0.006 C 
ATOM     24  C   UNL     1      -9.203   3.263   4.965  0.00  0.00    +0.026 C 
ENDBRANCH  20  24
ENDBRANCH  15  20
ENDBRANCH   1  16
BRANCH   1  25
ATOM     25  N   UNL     1      -4.427   0.337   4.269  0.00  0.00    +0.397 N 
ATOM     26  H   UNL     1      -4.333  -0.685   4.243  0.00  0.00    -0.079 HD
BRANCH  25  27
ATOM     27  C   UNL     1      -4.912   0.809   2.955  0.00  0.00    -0.041 C 
BRANCH  27  28
ATOM     28  C   UNL     1      -4.028   0.236   1.877  0.00  0.00    -0.060 A 
ATOM     29  C   UNL     1      -4.330  -0.992   1.316  0.00  0.00    +0.002 A 
ATOM     30  C   UNL     1      -3.521  -1.520   0.327  0.00  0.00    +0.004 A 
ATOM     31  C   UNL     1      -2.409  -0.822  -0.104  0.00  0.00    +0.045 A 
ATOM     32  C   UNL     1      -2.105   0.410   0.457  0.00  0.00    +0.120 A 
ATOM     33  C   UNL     1      -2.915   0.935   1.453  0.00  0.00    +0.047 A 
BRANCH  32  34
ATOM     34  O   UNL     1      -1.012   1.099   0.034  0.00  0.00    -0.495 OA
ATOM     35  C   UNL     1      -0.221   0.494  -0.991  0.00  0.00    +0.277 C 
ENDBRANCH  32  34
ENDBRANCH  27  28
ENDBRANCH  25  27
BRANCH  25  36
ATOM     36  C   UNL     1      -3.107   0.932   4.564  0.00  0.00    -0.001 C 
BRANCH  36  37
ATOM     37  C   UNL     1      -2.453   0.137   5.665  0.00  0.00    +0.089 A 
ATOM     38  C   UNL     1      -1.784  -1.020   5.508  0.00  0.00    +0.042 A 
ATOM     39  C   UNL     1      -1.341  -1.413   6.792  0.00  0.00    +0.041 A 
ATOM     40  C   UNL     1      -1.766  -0.474   7.656  0.00  0.00    +0.195 A 
ATOM     41  O   UNL     1      -2.434   0.466   6.967  0.00  0.00    -0.470 OA
ENDBRANCH  36  37
ENDBRANCH  25  36
ENDBRANCH   1  25
TORSDOF 10
