REMARK  Name = ZINC16904206
REMARK  5 active torsions:
REMARK  status: ('A' for Active; 'I' for Inactive)
REMARK    1  A    between atoms: C_3  and  C_7
REMARK    2  A    between atoms: N_11  and  C_15
REMARK    3  A    between atoms: C_15  and  C_17
REMARK    4  A    between atoms: C_15  and  C_20
REMARK    5  A    between atoms: C_17  and  C_18
REMARK                            x       y       z     vdW  Elec       q    Type
REMARK                         _______ _______ _______ _____ _____    ______ ____
ROOT
ATOM      1  C   UNL     1      -2.581   6.204  -1.320  0.00  0.00    +0.029 C 
ATOM      2  C   UNL     1      -1.656   5.251  -1.593  0.00  0.00    +0.077 C 
ATOM      3  C   UNL     1      -1.776   3.778  -1.540  0.00  0.00    +0.259 C 
ATOM      4  O   UNL     1      -2.813   3.232  -1.215  0.00  0.00    -0.269 OA
ATOM      5  N   UNL     1      -0.696   3.085  -1.860  0.00  0.00    -0.241 N 
ATOM      6  C   UNL     1       0.451   3.694  -2.224  0.00  0.00    +0.121 C 
ATOM      7  S   UNL     1       1.939   2.977  -2.675  0.00  0.00    -0.027 S 
ATOM      8  S   UNL     1       0.042   5.429  -2.123  0.00  0.00    -0.061 S 
ENDROOT
BRANCH   1  11
ATOM      9  C   UNL     1      -0.518   9.332  -1.291  0.00  0.00    +0.020 A 
ATOM     10  C   UNL     1      -0.834   7.986  -1.333  0.00  0.00    +0.011 A 
ATOM     11  C   UNL     1      -2.187   7.619  -1.274  0.00  0.00    -0.006 A 
ATOM     12  C   UNL     1      -3.154   8.625  -1.165  0.00  0.00    +0.118 A 
ATOM     13  N   UNL     1      -2.799   9.892  -1.123  0.00  0.00    -0.263 NA
ATOM     14  C   UNL     1      -1.534  10.264  -1.182  0.00  0.00    +0.111 A 
ENDBRANCH   1  11
BRANCH   5  15
ATOM     15  C   UNL     1      -0.747   1.621  -1.822  0.00  0.00    +0.206 C 
BRANCH  15  16
ATOM     16  C   UNL     1      -0.451   1.073  -3.194  0.00  0.00    +0.377 C 
ATOM     17  O   UNL     1      -0.221   1.827  -4.109  0.00  0.00    -0.244 OA
ATOM     18  O   UNL     1      -0.444  -0.254  -3.399  0.00  0.00    -0.244 OA
ENDBRANCH  15  16
BRANCH  15  19
ATOM     19  C   UNL     1       0.293   1.099  -0.829  0.00  0.00    +0.159 C 
BRANCH  19  20
ATOM     20  C   UNL     1      -0.073   1.547   0.563  0.00  0.00    +0.358 C 
ATOM     21  O   UNL     1      -1.063   2.215   0.742  0.00  0.00    -0.246 OA
ATOM     22  O   UNL     1       0.703   1.204   1.604  0.00  0.00    -0.246 OA
ENDBRANCH  19  20
ENDBRANCH  15  19
ENDBRANCH   5  15
TORSDOF 5
