REMARK  Name = ZINC02303194
REMARK  7 active torsions:
REMARK  status: ('A' for Active; 'I' for Inactive)
REMARK    1  A    between atoms: C_4  and  O_7
REMARK    2  A    between atoms: O_7  and  C_8
REMARK    3  A    between atoms: C_8  and  C_9
REMARK    4  A    between atoms: C_9  and  C_10
REMARK    5  A    between atoms: C_10  and  N_11
REMARK    6  A    between atoms: C_13  and  C_20
REMARK    7  A    between atoms: N_27  and  C_30
REMARK                            x       y       z     vdW  Elec       q    Type
REMARK                         _______ _______ _______ _____ _____    ______ ____
ROOT
ATOM      1  N   UNL     1       8.718  -1.089  -0.406  0.00  0.00    -0.346 N 
ATOM      2  C   UNL     1       9.514  -1.603   0.549  0.00  0.00    +0.094 A 
ATOM      3  C   UNL     1      10.835  -1.305   0.262  0.00  0.00    +0.001 A 
ATOM      4  C   UNL     1      10.816  -0.533  -0.998  0.00  0.00    +0.007 A 
ATOM      5  C   UNL     1       9.466  -0.436  -1.367  0.00  0.00    +0.050 A 
ATOM      6  C   UNL     1       9.126   0.241  -2.534  0.00  0.00    +0.026 A 
ATOM      7  C   UNL     1      10.113   0.805  -3.314  0.00  0.00    +0.002 A 
ATOM      8  C   UNL     1      11.446   0.706  -2.948  0.00  0.00    +0.001 A 
ATOM      9  C   UNL     1      11.802   0.045  -1.791  0.00  0.00    +0.010 A 
ENDROOT
BRANCH   3  10
ATOM     10  C   UNL     1      11.969  -1.665   1.018  0.00  0.00    +0.028 C 
ATOM     11  C   UNL     1      11.977  -1.469   2.393  0.00  0.00    +0.100 C 
ATOM     12  C   UNL     1      10.916  -0.700   3.066  0.00  0.00    +0.257 C 
ATOM     13  O   UNL     1       9.999  -0.213   2.432  0.00  0.00    -0.270 OA
ATOM     14  N   UNL     1      10.986  -0.555   4.406  0.00  0.00    -0.235 N 
ATOM     15  C   UNL     1      11.995  -1.081   5.115  0.00  0.00    +0.320 C 
ATOM     16  O   UNL     1      12.002  -0.909   6.319  0.00  0.00    -0.251 OA
ATOM     17  N   UNL     1      12.995  -1.785   4.568  0.00  0.00    -0.190 N 
ATOM     18  C   UNL     1      13.051  -2.016   3.240  0.00  0.00    +0.263 C 
ATOM     19  O   UNL     1      13.964  -2.657   2.756  0.00  0.00    -0.269 OA
ATOM     20  H   UNL     1      10.293  -0.056   4.865  0.00  0.00    +0.159 HD
BRANCH  17  21
ATOM     21  C   UNL     1      14.005  -2.295   5.395  0.00  0.00    +0.046 A 
ATOM     22  C   UNL     1      13.886  -3.569   5.934  0.00  0.00    +0.025 A 
ATOM     23  C   UNL     1      14.886  -4.072   6.744  0.00  0.00    +0.017 A 
ATOM     24  C   UNL     1      16.000  -3.302   7.028  0.00  0.00    +0.018 A 
ATOM     25  C   UNL     1      16.119  -2.030   6.496  0.00  0.00    +0.017 A 
ATOM     26  C   UNL     1      15.124  -1.525   5.681  0.00  0.00    +0.025 A 
ATOM     27 BR   UNL     1      17.363  -3.990   8.143  0.00  0.00    -0.050 Br
ENDBRANCH  17  21
ENDBRANCH   3  10
BRANCH   1  28
ATOM     28  C   UNL     1       7.259  -1.210  -0.428  0.00  0.00    +0.125 C 
BRANCH  28  29
ATOM     29  C   UNL     1       6.859  -2.408  -1.293  0.00  0.00    +0.062 C 
BRANCH  29  30
ATOM     30  C   UNL     1       5.335  -2.534  -1.315  0.00  0.00    +0.231 C 
BRANCH  30  31
ATOM     31  O   UNL     1       4.962  -3.653  -2.123  0.00  0.00    -0.492 OA
BRANCH  31  35
ATOM     32  C   UNL     1       0.927  -4.423  -2.505  0.00  0.00    +0.000 A 
ATOM     33  C   UNL     1       1.356  -3.356  -1.738  0.00  0.00    +0.004 A 
ATOM     34  C   UNL     1       2.706  -3.096  -1.608  0.00  0.00    +0.045 A 
ATOM     35  C   UNL     1       3.632  -3.907  -2.248  0.00  0.00    +0.121 A 
ATOM     36  C   UNL     1       3.199  -4.977  -3.017  0.00  0.00    +0.045 A 
ATOM     37  C   UNL     1       1.848  -5.233  -3.144  0.00  0.00    +0.004 A 
ENDBRANCH  31  35
ENDBRANCH  30  31
ENDBRANCH  29  30
ENDBRANCH  28  29
ENDBRANCH   1  28
TORSDOF 7
