REMARK  Name = ZINC40569395
REMARK  8 active torsions:
REMARK  status: ('A' for Active; 'I' for Inactive)
REMARK    1  A    between atoms: C_1  and  C_2
REMARK    2  A    between atoms: C_2  and  C_3
REMARK    3  A    between atoms: C_3  and  C_4
REMARK    4  A    between atoms: N_10  and  C_11
REMARK    5  A    between atoms: C_11  and  C_12
REMARK    6  A    between atoms: C_18  and  C_26
REMARK    7  A    between atoms: C_20  and  C_24
REMARK    8  A    between atoms: C_21  and  N_23
REMARK                            x       y       z     vdW  Elec       q    Type
REMARK                         _______ _______ _______ _____ _____    ______ ____
ROOT
ATOM      1  C   UNL     1       0.629  -2.251   1.325  0.00  0.00    +0.026 A 
ATOM      2  C   UNL     1       1.610  -3.101   0.952  0.00  0.00    +0.068 A 
ATOM      3  C   UNL     1       1.411  -4.492   1.062  0.00  0.00    +0.141 A 
ATOM      4  C   UNL     1       0.209  -4.958   1.551  0.00  0.00    +0.072 A 
ATOM      5  C   UNL     1      -0.779  -4.040   1.926  0.00  0.00    +0.259 A 
ATOM      6  O   UNL     1      -1.848  -4.438   2.362  0.00  0.00    -0.267 OA
ATOM      7  N   UNL     1      -0.550  -2.718   1.812  0.00  0.00    -0.309 N 
ATOM      8  C   UNL     1      -0.046  -6.435   1.684  0.00  0.00    +0.103 C 
ATOM      9  C   UNL     1       1.250  -7.193   1.610  0.00  0.00    +0.098 C 
ATOM     10  C   UNL     1       2.374  -6.616   1.125  0.00  0.00    +0.199 C 
ATOM     11  O   UNL     1       2.390  -5.344   0.689  0.00  0.00    -0.441 OA
ENDROOT
BRANCH   8  12
ATOM     12  C   UNL     1      -0.951  -6.887   0.567  0.00  0.00    -0.033 A 
ATOM     13  C   UNL     1      -0.553  -6.737  -0.749  0.00  0.00    +0.006 A 
ATOM     14  C   UNL     1      -1.383  -7.151  -1.774  0.00  0.00    +0.022 A 
ATOM     15  C   UNL     1      -2.611  -7.717  -1.484  0.00  0.00    +0.059 A 
ATOM     16  C   UNL     1      -3.009  -7.868  -0.167  0.00  0.00    +0.060 A 
ATOM     17  C   UNL     1      -2.176  -7.458   0.858  0.00  0.00    +0.026 A 
ATOM     18 CL   UNL     1      -4.551  -8.578   0.199  0.00  0.00    -0.082 Cl
ATOM     19 CL   UNL     1      -3.653  -8.237  -2.772  0.00  0.00    -0.082 Cl
ENDBRANCH   8  12
BRANCH  10  20
ATOM     20  N   UNL     1       3.533  -7.350   1.078  0.00  0.00    -0.328 N 
ATOM     21  H   UNL     1       3.538  -8.269   1.389  0.00  0.00    +0.145 HD
ATOM     22  H   UNL     1       4.347  -6.951   0.734  0.00  0.00    +0.145 HD
ENDBRANCH  10  20
BRANCH   9  23
ATOM     23  C   UNL     1       1.295  -8.552   2.061  0.00  0.00    +0.101 C 
ATOM     24  N   UNL     1       1.332  -9.629   2.418  0.00  0.00    -0.191 NA
ENDBRANCH   9  23
BRANCH   1  25
ATOM     25  C   UNL     1       0.847  -0.765   1.205  0.00  0.00    +0.053 C 
BRANCH  25  27
ATOM     26  C   UNL     1       0.491   1.235  -0.250  0.00  0.00    +0.004 C 
ATOM     27  C   UNL     1       0.361  -0.287  -0.165  0.00  0.00    +0.003 C 
ENDBRANCH  25  27
ENDBRANCH   1  25
BRANCH   7  28
ATOM     28  C   UNL     1      -1.591  -1.769   2.214  0.00  0.00    +0.156 C 
BRANCH  28  29
ATOM     29  C   UNL     1      -1.371  -1.356   3.670  0.00  0.00    +0.138 C 
ATOM     30  C   UNL     1      -2.496  -0.397   4.134  0.00  0.00    +0.035 C 
ATOM     31  C   UNL     1      -2.469  -0.631   5.669  0.00  0.00    +0.031 C 
ATOM     32  C   UNL     1      -2.102  -2.128   5.766  0.00  0.00    +0.160 C 
ATOM     33  O   UNL     1      -1.471  -2.500   4.533  0.00  0.00    -0.375 OA
ENDBRANCH  28  29
ENDBRANCH   7  28
TORSDOF 7
