REMARK  Name = ZINC39637287
REMARK  6 active torsions:
REMARK  status: ('A' for Active; 'I' for Inactive)
REMARK    1  A    between atoms: C_1  and  C_2
REMARK    2  A    between atoms: C_7  and  N_12
REMARK    3  A    between atoms: C_9  and  C_11
REMARK    4  A    between atoms: C_13  and  C_15
REMARK    5  A    between atoms: C_26  and  C_28
REMARK    6  A    between atoms: C_28  and  C_34
REMARK                            x       y       z     vdW  Elec       q    Type
REMARK                         _______ _______ _______ _____ _____    ______ ____
ROOT
ATOM      1  C   UNL     1       1.387  -0.323   6.084  0.00  0.00    +0.100 C 
ATOM      2  C   UNL     1       0.777  -1.662   6.554  0.00  0.00    +0.121 C 
ATOM      3  N   UNL     1       0.813  -1.591   8.034  0.00  0.00    -0.300 N 
ATOM      4  C   UNL     1       0.455  -0.186   8.344  0.00  0.00    +0.115 C 
ATOM      5  C   UNL     1       1.173   0.643   7.261  0.00  0.00    -0.004 C 
ATOM      6  C   UNL     1       0.298   1.817   6.830  0.00  0.00    -0.010 C 
ATOM      7  C   UNL     1       0.148   2.793   8.000  0.00  0.00    -0.082 C 
ATOM      8  N   UNL     1       1.473   3.271   8.414  0.00  0.00    +0.379 N 
ATOM      9  C   UNL     1       2.276   2.148   8.915  0.00  0.00    -0.082 C 
ATOM     10  C   UNL     1       2.516   1.145   7.784  0.00  0.00    -0.010 C 
ATOM     11  C   UNL     1       1.105  -2.580   8.901  0.00  0.00    +0.222 C 
ATOM     12  O   UNL     1       1.012  -2.387  10.095  0.00  0.00    -0.275 OA
ATOM     13  H   UNL     1       1.940   3.690   7.625  0.00  0.00    -0.086 HD
ATOM     14  H   UNL     1       1.367   3.959   9.144  0.00  0.00    -0.086 HD
ENDROOT
BRANCH  11  15
ATOM     15  C   UNL     1       1.548  -3.926   8.388  0.00  0.00    +0.044 C 
ATOM     16  C   UNL     1       0.501  -4.470   7.414  0.00  0.00    +0.016 C 
ATOM     17  C   UNL     1      -0.841  -4.615   8.135  0.00  0.00    +0.001 C 
ATOM     18  C   UNL     1      -0.686  -5.583   9.309  0.00  0.00    +0.000 C 
ATOM     19  C   UNL     1       0.360  -5.039  10.284  0.00  0.00    +0.001 C 
ATOM     20  C   UNL     1       1.702  -4.894   9.563  0.00  0.00    +0.016 C 
ATOM     21  C   UNL     1       2.889  -3.781   7.667  0.00  0.00    +0.021 C 
ENDBRANCH  11  15
BRANCH   1  23
ATOM     22  N   UNL     1       1.268   1.073   4.045  0.00  0.00    -0.312 N 
ATOM     23  C   UNL     1       0.670   0.179   4.857  0.00  0.00    +0.218 C 
ATOM     24  O   UNL     1      -0.445  -0.222   4.600  0.00  0.00    -0.275 OA
ATOM     25  H   UNL     1       2.160   1.393   4.251  0.00  0.00    +0.149 HD
BRANCH  22  31
ATOM     26  C   UNL     1      -1.106   3.556   1.516  0.00  0.00    +0.008 C 
ATOM     27  C   UNL     1       0.391   3.445   1.222  0.00  0.00    -0.009 C 
ATOM     28  C   UNL     1       0.613   2.467   0.067  0.00  0.00    +0.003 C 
ATOM     29  C   UNL     1       0.066   1.091   0.451  0.00  0.00    +0.002 C 
ATOM     30  C   UNL     1       0.794   0.582   1.697  0.00  0.00    +0.022 C 
ATOM     31  C   UNL     1       0.572   1.560   2.852  0.00  0.00    +0.076 C 
ATOM     32  C   UNL     1       1.119   2.936   2.468  0.00  0.00    +0.009 C 
ATOM     33  C   UNL     1       0.897   3.914   3.624  0.00  0.00    +0.009 C 
ENDBRANCH  22  31
ENDBRANCH   1  23
TORSDOF 3
