REMARK  Name = ZINC19805640
REMARK  10 active torsions:
REMARK  status: ('A' for Active; 'I' for Inactive)
REMARK    1  A    between atoms: C_1  and  C_2
REMARK    2  A    between atoms: C_5  and  C_9
REMARK    3  A    between atoms: C_6  and  C_8
REMARK    4  A    between atoms: C_9  and  C_11
REMARK    5  A    between atoms: C_11  and  S_12
REMARK    6  A    between atoms: S_12  and  C_13
REMARK    7  A    between atoms: C_14  and  C_27
REMARK    8  A    between atoms: C_15  and  C_22
REMARK    9  A    between atoms: C_16  and  C_20
REMARK   10  A    between atoms: C_17  and  N_19
REMARK                            x       y       z     vdW  Elec       q    Type
REMARK                         _______ _______ _______ _____ _____    ______ ____
ROOT
ATOM      1  C   UNL     1      -0.176   1.405  -1.255  0.00  0.00    +0.117 A 
ATOM      2  C   UNL     1       0.981   2.160  -1.522  0.00  0.00    +0.093 A 
ATOM      3  C   UNL     1       2.204   1.485  -1.732  0.00  0.00    +0.029 A 
ATOM      4  C   UNL     1       2.202   0.073  -1.664  0.00  0.00    +0.101 A 
ATOM      5  C   UNL     1       0.994  -0.593  -1.391  0.00  0.00    +0.136 A 
ATOM      6  N   UNL     1      -0.128   0.082  -1.200  0.00  0.00    -0.224 NA
ENDROOT
BRANCH   3   7
ATOM      7  C   UNL     1       3.440   2.228  -2.015  0.00  0.00    +0.022 A 
ATOM      8  C   UNL     1       4.216   2.227  -3.162  0.00  0.00    +0.016 A 
ATOM      9  C   UNL     1       5.334   3.028  -3.162  0.00  0.00    +0.008 A 
ATOM     10  C   UNL     1       5.625   3.759  -2.056  0.00  0.00    +0.046 A 
ATOM     11  S   UNL     1       4.337   3.360  -0.967  0.00  0.00    -0.097 S 
ENDBRANCH   3   7
BRANCH   5  12
ATOM     12  N   UNL     1       0.979  -1.972  -1.321  0.00  0.00    -0.342 N 
ATOM     13  H   UNL     1       0.038  -2.502  -1.109  0.00  0.00    +0.144 HD
ATOM     14  H   UNL     1       1.907  -2.541  -1.479  0.00  0.00    +0.144 HD
ENDBRANCH   5  12
BRANCH   4  15
ATOM     15  C   UNL     1       3.411  -0.667  -1.869  0.00  0.00    +0.103 C 
ATOM     16  N   UNL     1       4.370  -1.254  -2.032  0.00  0.00    -0.191 NA
ENDBRANCH   4  15
BRANCH   2  17
ATOM     17  C   UNL     1       0.920   3.590  -1.579  0.00  0.00    +0.102 C 
ATOM     18  N   UNL     1       0.871   4.724  -1.623  0.00  0.00    -0.191 NA
ENDBRANCH   2  17
BRANCH   1  19
ATOM     19  S   UNL     1      -1.711   2.230  -0.997  0.00  0.00    -0.097 S 
BRANCH  19  20
ATOM     20  C   UNL     1      -2.791   0.804  -0.719  0.00  0.00    +0.155 C 
BRANCH  20  21
ATOM     21  C   UNL     1      -4.199   1.282  -0.469  0.00  0.00    +0.174 C 
ATOM     22  O   UNL     1      -4.447   2.468  -0.478  0.00  0.00    -0.291 OA
BRANCH  21  27
ATOM     23  C   UNL     1      -8.389  -2.525   0.531  0.00  0.00    +0.044 C 
ATOM     24  C   UNL     1      -7.291  -1.527   0.269  0.00  0.00    -0.050 A 
ATOM     25  C   UNL     1      -6.028  -1.970  -0.084  0.00  0.00    +0.004 A 
ATOM     26  C   UNL     1      -5.018  -1.064  -0.325  0.00  0.00    +0.012 A 
ATOM     27  C   UNL     1      -5.272   0.307  -0.213  0.00  0.00    +0.021 A 
ATOM     28  C   UNL     1      -6.549   0.747   0.148  0.00  0.00    -0.040 A 
ATOM     29  C   UNL     1      -7.550  -0.172   0.382  0.00  0.00    +0.007 A 
ATOM     30  C   UNL     1      -6.832   2.221   0.277  0.00  0.00    +0.044 C 
ENDBRANCH  21  27
ENDBRANCH  20  21
ENDBRANCH  19  20
ENDBRANCH   1  19
TORSDOF 8
