REMARK  Name = ZINC62827435
REMARK  5 active torsions:
REMARK  status: ('A' for Active; 'I' for Inactive)
REMARK    1  A    between atoms: C_1  and  C_2
REMARK    2  A    between atoms: C_2  and  C_4
REMARK    3  A    between atoms: C_2  and  N_10
REMARK    4  A    between atoms: N_13  and  C_14
REMARK    5  A    between atoms: C_15  and  C_19
REMARK                            x       y       z     vdW  Elec       q    Type
REMARK                         _______ _______ _______ _____ _____    ______ ____
ROOT
ATOM      1  N   UNL     1      -1.372  -0.511   0.012  0.00  0.00    -0.293 N 
ATOM      2  C   UNL     1      -2.051  -0.643  -1.145  0.00  0.00    +0.305 C 
ATOM      3  O   UNL     1      -1.522  -0.341  -2.197  0.00  0.00    -0.252 OA
ATOM      4  N   UNL     1      -3.315  -1.109  -1.135  0.00  0.00    -0.263 N 
ATOM      5  H   UNL     1      -1.794  -0.752   0.852  0.00  0.00    +0.151 HD
ATOM      6  H   UNL     1      -3.737  -1.350  -0.295  0.00  0.00    +0.157 HD
ENDROOT
BRANCH   4   7
ATOM      7  C   UNL     1      -4.012  -1.244  -2.324  0.00  0.00    +0.087 A 
ATOM      8  C   UNL     1      -5.314  -1.699  -2.505  0.00  0.00    +0.092 A 
ATOM      9  C   UNL     1      -5.798  -1.740  -3.868  0.00  0.00    +0.024 A 
ATOM     10  C   UNL     1      -4.931  -1.331  -4.811  0.00  0.00    +0.048 A 
ATOM     11  S   UNL     1      -3.483  -0.890  -3.876  0.00  0.00    -0.081 S 
BRANCH   8  12
ATOM     12  C   UNL     1      -6.123  -2.102  -1.413  0.00  0.00    +0.389 C 
ATOM     13  O   UNL     1      -7.266  -2.497  -1.610  0.00  0.00    -0.241 OA
ATOM     14  O   UNL     1      -5.679  -2.054  -0.272  0.00  0.00    -0.241 OA
ENDBRANCH   8  12
ENDBRANCH   4   7
BRANCH   1  16
ATOM     15  C   UNL     1      -0.019   1.526   0.010  0.00  0.00    +0.033 C 
ATOM     16  C   UNL     1       0.002  -0.004   0.002  0.00  0.00    +0.102 C 
BRANCH  16  17
ATOM     17  C   UNL     1       0.731  -0.503   1.223  0.00  0.00    -0.027 A 
ATOM     18  C   UNL     1       0.081  -0.558   2.442  0.00  0.00    +0.005 A 
ATOM     19  C   UNL     1       0.749  -1.016   3.562  0.00  0.00    +0.000 A 
ATOM     20  C   UNL     1       2.068  -1.420   3.463  0.00  0.00    +0.000 A 
ATOM     21  C   UNL     1       2.718  -1.365   2.244  0.00  0.00    +0.000 A 
ATOM     22  C   UNL     1       2.048  -0.911   1.123  0.00  0.00    +0.005 A 
ENDBRANCH  16  17
ENDBRANCH   1  16
TORSDOF 4
