REMARK  Name = ZINC39675867
REMARK  8 active torsions:
REMARK  status: ('A' for Active; 'I' for Inactive)
REMARK    1  A    between atoms: C_1  and  N_2
REMARK    2  A    between atoms: N_2  and  C_3
REMARK    3  A    between atoms: N_2  and  C_4
REMARK    4  A    between atoms: C_4  and  C_6
REMARK    5  A    between atoms: C_4  and  C_32
REMARK    6  A    between atoms: C_6  and  N_7
REMARK    7  A    between atoms: C_8  and  C_10
REMARK    8  A    between atoms: C_21  and  C_23
REMARK                            x       y       z     vdW  Elec       q    Type
REMARK                         _______ _______ _______ _____ _____    ______ ____
ROOT
ATOM      1  C   UNL     1       3.804  -3.795  -1.732  0.00  0.00    +0.100 C 
ATOM      2  C   UNL     1       3.117  -3.054  -2.901  0.00  0.00    +0.121 C 
ATOM      3  N   UNL     1       3.070  -4.050  -3.998  0.00  0.00    -0.296 N 
ATOM      4  C   UNL     1       2.748  -5.329  -3.322  0.00  0.00    +0.115 C 
ATOM      5  C   UNL     1       3.559  -5.287  -2.011  0.00  0.00    -0.004 C 
ATOM      6  C   UNL     1       4.887  -6.017  -2.188  0.00  0.00    -0.010 C 
ATOM      7  C   UNL     1       4.619  -7.508  -2.408  0.00  0.00    -0.082 C 
ATOM      8  N   UNL     1       3.890  -8.051  -1.256  0.00  0.00    +0.379 N 
ATOM      9  C   UNL     1       2.574  -7.409  -1.147  0.00  0.00    -0.082 C 
ATOM     10  C   UNL     1       2.756  -5.913  -0.875  0.00  0.00    -0.010 C 
ATOM     11  C   UNL     1       3.273  -3.840  -5.314  0.00  0.00    +0.248 C 
ATOM     12  O   UNL     1       3.109  -4.747  -6.108  0.00  0.00    -0.270 OA
ATOM     13  H   UNL     1       3.768  -9.046  -1.375  0.00  0.00    -0.086 HD
ATOM     14  H   UNL     1       4.417  -7.878  -0.413  0.00  0.00    -0.086 HD
ENDROOT
BRANCH  11  15
ATOM     15  C   UNL     1       3.694  -2.516  -5.789  0.00  0.00    +0.052 A 
ATOM     16  C   UNL     1       3.258  -1.382  -5.181  0.00  0.00    +0.059 A 
ATOM     17  S   UNL     1       3.967  -0.120  -6.028  0.00  0.00    -0.096 S 
ATOM     18  C   UNL     1       4.883  -1.032  -7.240  0.00  0.00    +0.020 A 
ATOM     19  C   UNL     1       4.600  -2.376  -6.931  0.00  0.00    +0.001 A 
ATOM     20  C   UNL     1       5.202  -3.363  -7.735  0.00  0.00    +0.010 A 
ATOM     21  C   UNL     1       6.031  -3.006  -8.769  0.00  0.00    +0.001 A 
ATOM     22  C   UNL     1       6.298  -1.673  -9.050  0.00  0.00    +0.001 A 
ATOM     23  C   UNL     1       5.713  -0.683  -8.284  0.00  0.00    +0.015 A 
ENDBRANCH  11  15
BRANCH   1  25
ATOM     24  N   UNL     1       3.910  -3.426   0.712  0.00  0.00    -0.316 N 
ATOM     25  C   UNL     1       3.178  -3.397  -0.420  0.00  0.00    +0.218 C 
ATOM     26  O   UNL     1       2.016  -3.051  -0.382  0.00  0.00    -0.275 OA
ATOM     27  H   UNL     1       4.839  -3.703   0.682  0.00  0.00    +0.149 HD
BRANCH  24  28
ATOM     28  C   UNL     1       3.302  -3.039   1.987  0.00  0.00    +0.093 C 
BRANCH  28  29
ATOM     29  C   UNL     1       4.300  -3.277   3.122  0.00  0.00    -0.021 C 
BRANCH  29  30
ATOM     30  C   UNL     1       4.591  -4.752   3.233  0.00  0.00    -0.059 A 
ATOM     31  C   UNL     1       3.699  -5.585   3.883  0.00  0.00    +0.002 A 
ATOM     32  C   UNL     1       3.965  -6.937   3.986  0.00  0.00    +0.000 A 
ATOM     33  C   UNL     1       5.123  -7.457   3.438  0.00  0.00    +0.000 A 
ATOM     34  C   UNL     1       6.015  -6.624   2.788  0.00  0.00    +0.000 A 
ATOM     35  C   UNL     1       5.746  -5.272   2.682  0.00  0.00    +0.002 A 
ENDBRANCH  29  30
BRANCH  29  37
ATOM     36  C   UNL     1       4.673  -3.058   5.481  0.00  0.00    -0.096 C 
ATOM     37  N   UNL     1       3.730  -2.793   4.386  0.00  0.00    +0.382 N 
ATOM     38  C   UNL     1       3.484  -1.348   4.290  0.00  0.00    -0.096 C 
ATOM     39  H   UNL     1       2.861  -3.271   4.568  0.00  0.00    -0.082 HD
ENDBRANCH  29  37
ENDBRANCH  28  29
ENDBRANCH  24  28
ENDBRANCH   1  25
TORSDOF 6
