REMARK  Name = ZINC36341942
REMARK  17 active torsions:
REMARK  status: ('A' for Active; 'I' for Inactive)
REMARK    1  A    between atoms: C_1  and  C_2
REMARK    2  A    between atoms: C_2  and  C_3
REMARK    3  A    between atoms: C_3  and  C_4
REMARK    4  A    between atoms: C_4  and  C_5
REMARK    5  A    between atoms: C_5  and  C_7
REMARK    6  A    between atoms: C_5  and  O_34
REMARK    7  A    between atoms: C_7  and  N_8
REMARK    8  A    between atoms: N_8  and  C_9
REMARK    9  A    between atoms: N_8  and  C_30
REMARK   10  A    between atoms: C_9  and  C_10
REMARK   11  A    between atoms: C_11  and  C_29
REMARK   12  A    between atoms: N_13  and  C_23
REMARK   13  A    between atoms: C_14  and  O_15
REMARK   14  A    between atoms: O_15  and  C_16
REMARK   15  A    between atoms: C_30  and  C_31
REMARK   16  A    between atoms: C_31  and  C_32
REMARK   17  A    between atoms: C_31  and  C_33
REMARK                            x       y       z     vdW  Elec       q    Type
REMARK                         _______ _______ _______ _____ _____    ______ ____
ROOT
ATOM      1  C   UNL     1       2.629  -6.540   5.864  0.00  0.00    +0.021 A 
ATOM      2  C   UNL     1       3.969  -6.443   6.253  0.00  0.00    +0.065 A 
ATOM      3  N   UNL     1       4.015  -6.345   7.557  0.00  0.00    -0.168 NA
ATOM      4  N   UNL     1       2.704  -6.375   8.049  0.00  0.00    -0.200 N 
ATOM      5  C   UNL     1       1.863  -6.490   6.986  0.00  0.00    +0.225 A 
ATOM      6  C   UNL     1       5.158  -6.451   5.327  0.00  0.00    +0.068 C 
ENDROOT
BRANCH   4   7
ATOM      7  C   UNL     1       2.325  -6.295   9.397  0.00  0.00    +0.069 A 
ATOM      8  C   UNL     1       1.215  -5.547   9.764  0.00  0.00    +0.028 A 
ATOM      9  C   UNL     1       0.844  -5.470  11.092  0.00  0.00    +0.002 A 
ATOM     10  C   UNL     1       1.578  -6.138  12.056  0.00  0.00    +0.000 A 
ATOM     11  C   UNL     1       2.684  -6.884  11.693  0.00  0.00    +0.002 A 
ATOM     12  C   UNL     1       3.057  -6.969  10.366  0.00  0.00    +0.028 A 
ENDBRANCH   4   7
BRANCH   1  13
ATOM     13  C   UNL     1       2.123  -6.670   4.450  0.00  0.00    -0.036 C 
BRANCH  13  14
ATOM     14  N   UNL     1       1.896  -5.333   3.886  0.00  0.00    +0.384 N 
ATOM     15  H   UNL     1       1.275  -4.815   4.490  0.00  0.00    -0.081 HD
BRANCH  14  16
ATOM     16  C   UNL     1       1.291  -5.460   2.554  0.00  0.00    -0.047 C 
BRANCH  16  17
ATOM     17  C   UNL     1      -0.103  -6.078   2.683  0.00  0.00    +0.098 C 
BRANCH  17  18
ATOM     18  O   UNL     1      -0.924  -5.236   3.495  0.00  0.00    -0.394 OA
ATOM     19  H   UNL     1      -1.101  -4.368   3.107  0.00  0.00    +0.210 HD
ENDBRANCH  17  18
BRANCH  17  20
ATOM     20  C   UNL     1      -0.730  -6.217   1.294  0.00  0.00    +0.029 C 
BRANCH  20  21
ATOM     21  C   UNL     1      -2.069  -6.948   1.410  0.00  0.00    +0.002 C 
BRANCH  21  23
ATOM     22  C   UNL     1      -4.035  -7.818   0.138  0.00  0.00    +0.004 C 
ATOM     23  C   UNL     1      -2.696  -7.087   0.022  0.00  0.00    -0.003 C 
ENDBRANCH  21  23
ENDBRANCH  20  21
ENDBRANCH  17  20
ENDBRANCH  16  17
ENDBRANCH  14  16
BRANCH  14  24
ATOM     24  C   UNL     1       3.177  -4.623   3.777  0.00  0.00    -0.075 C 
BRANCH  24  25
ATOM     25  C   UNL     1       2.926  -3.185   3.318  0.00  0.00    -0.034 C 
ATOM     26  C   UNL     1       2.135  -2.437   4.393  0.00  0.00    +0.005 C 
ATOM     27  C   UNL     1       4.265  -2.482   3.088  0.00  0.00    +0.005 C 
ENDBRANCH  24  25
ENDBRANCH  14  24
ENDBRANCH  13  14
ENDBRANCH   1  13
BRANCH   5  28
ATOM     28  O   UNL     1       0.508  -6.548   7.037  0.00  0.00    -0.438 OA
BRANCH  28  29
ATOM     29  C   UNL     1      -0.072  -7.763   7.221  0.00  0.00    +0.130 A 
ATOM     30  C   UNL     1       0.715  -8.880   7.463  0.00  0.00    +0.048 A 
ATOM     31  C   UNL     1       0.123 -10.114   7.650  0.00  0.00    +0.023 A 
ATOM     32  C   UNL     1      -1.254 -10.237   7.595  0.00  0.00    +0.041 A 
ATOM     33  C   UNL     1      -2.041  -9.125   7.353  0.00  0.00    +0.023 A 
ATOM     34  C   UNL     1      -1.453  -7.888   7.171  0.00  0.00    +0.048 A 
ATOM     35 CL   UNL     1      -1.995 -11.789   7.830  0.00  0.00    -0.084 Cl
ENDBRANCH  28  29
ENDBRANCH   5  28
TORSDOF 13
