REMARK  Name = ZINC31809041
REMARK  6 active torsions:
REMARK  status: ('A' for Active; 'I' for Inactive)
REMARK    1  A    between atoms: C_1  and  C_2
REMARK    2  A    between atoms: C_10  and  O_18
REMARK    3  A    between atoms: N_21  and  C_22
REMARK    4  A    between atoms: C_22  and  C_23
REMARK    5  A    between atoms: C_23  and  C_24
REMARK    6  A    between atoms: C_23  and  C_25
REMARK                            x       y       z     vdW  Elec       q    Type
REMARK                         _______ _______ _______ _____ _____    ______ ____
ROOT
ATOM      1  C   UNL     1      -0.018   1.503   0.010  0.00  0.00    +0.044 C 
ATOM      2  C   UNL     1       0.002  -0.004   0.002  0.00  0.00    -0.050 A 
ATOM      3  C   UNL     1       0.005  -0.673  -1.205  0.00  0.00    +0.005 A 
ATOM      4  C   UNL     1       0.024  -2.057  -1.277  0.00  0.00    +0.024 A 
ATOM      5  C   UNL     1       0.039  -2.759  -0.071  0.00  0.00    +0.041 A 
ATOM      6  C   UNL     1       0.036  -2.068   1.148  0.00  0.00    -0.006 A 
ATOM      7  C   UNL     1       0.023  -0.691   1.211  0.00  0.00    +0.010 A 
ATOM      8  C   UNL     1       0.053  -3.111   2.218  0.00  0.00    +0.112 C 
ATOM      9  C   UNL     1       1.299  -2.989   3.094  0.00  0.00    +0.121 C 
ATOM     10  C   UNL     1       1.125  -1.938   4.152  0.00  0.00    +0.191 C 
ATOM     11  N   UNL     1      -0.017  -1.658   4.706  0.00  0.00    -0.198 NA
ATOM     12  C   UNL     1      -1.143  -2.304   4.287  0.00  0.00    +0.156 A 
ATOM     13  C   UNL     1      -1.165  -3.019   3.094  0.00  0.00    +0.036 A 
ATOM     14  C   UNL     1      -2.430  -3.553   2.945  0.00  0.00    +0.141 A 
ATOM     15  N   UNL     1      -3.161  -3.185   3.972  0.00  0.00    -0.180 NA
ATOM     16  N   UNL     1      -2.377  -2.392   4.825  0.00  0.00    -0.260 N 
ATOM     17  H   UNL     1      -2.670  -1.981   5.654  0.00  0.00    +0.191 HD
ATOM     18  C   UNL     1       0.066  -4.424   1.467  0.00  0.00    +0.235 C 
ATOM     19  O   UNL     1       0.080  -5.534   1.955  0.00  0.00    -0.274 OA
ATOM     20  N   UNL     1       0.059  -4.125   0.151  0.00  0.00    -0.270 N 
ENDROOT
BRANCH  10  21
ATOM     21  O   UNL     1       2.213  -1.247   4.551  0.00  0.00    -0.495 OA
ATOM     22  H   UNL     1       2.032  -0.587   5.234  0.00  0.00    +0.293 HD
ENDBRANCH  10  21
BRANCH  20  23
ATOM     23  C   UNL     1       0.069  -5.128  -0.917  0.00  0.00    +0.116 C 
BRANCH  23  24
ATOM     24  C   UNL     1       1.515  -5.457  -1.293  0.00  0.00    +0.001 C 
ATOM     25  C   UNL     1       1.529  -6.593  -2.318  0.00  0.00    +0.009 C 
ATOM     26  C   UNL     1       2.181  -4.218  -1.895  0.00  0.00    +0.009 C 
ENDBRANCH  23  24
ENDBRANCH  20  23
TORSDOF 3
