REMARK  Name = ZINC35485086
REMARK  3 active torsions:
REMARK  status: ('A' for Active; 'I' for Inactive)
REMARK    1  A    between atoms: C_4  and  C_7
REMARK    2  A    between atoms: C_8  and  C_13
REMARK    3  A    between atoms: C_24  and  C_26
REMARK                            x       y       z     vdW  Elec       q    Type
REMARK                         _______ _______ _______ _____ _____    ______ ____
ROOT
ATOM      1  C   UNL     1       3.031  -2.719   1.413  0.00  0.00    +0.030 C 
ATOM      2  C   UNL     1       3.397  -3.915   1.881  0.00  0.00    +0.079 C 
ATOM      3  C   UNL     1       2.568  -4.944   2.630  0.00  0.00    +0.302 C 
ATOM      4  N   UNL     1       3.308  -6.138   2.979  0.00  0.00    -0.247 N 
ATOM      5  C   UNL     1       4.601  -6.238   2.637  0.00  0.00    +0.281 C 
ATOM      6  O   UNL     1       5.353  -7.168   2.858  0.00  0.00    -0.262 OA
ATOM      7  S   UNL     1       4.983  -4.723   1.784  0.00  0.00    -0.028 S 
ATOM      8  N   UNL     1       1.403  -5.295   1.805  0.00  0.00    -0.186 N 
ATOM      9  C   UNL     1       0.426  -4.261   1.396  0.00  0.00    +0.138 C 
ATOM     10  C   UNL     1      -0.780  -5.095   0.943  0.00  0.00    +0.086 C 
ATOM     11  C   UNL     1      -0.231  -6.506   0.871  0.00  0.00    +0.069 C 
ATOM     12  N   UNL     1       0.973  -6.525   1.343  0.00  0.00    -0.183 NA
ATOM     13  C   UNL     1       0.138  -3.438   2.624  0.00  0.00    +0.017 A 
ATOM     14  C   UNL     1      -0.978  -2.623   2.645  0.00  0.00    +0.009 A 
ATOM     15  C   UNL     1      -1.253  -1.845   3.753  0.00  0.00    +0.001 A 
ATOM     16  C   UNL     1      -0.405  -1.882   4.845  0.00  0.00    +0.004 A 
ATOM     17  C   UNL     1       0.704  -2.700   4.831  0.00  0.00    +0.046 A 
ATOM     18  C   UNL     1       0.985  -3.496   3.721  0.00  0.00    +0.131 A 
ATOM     19  O   UNL     1       2.043  -4.328   3.815  0.00  0.00    -0.446 OA
ATOM     20  H   UNL     1       2.872  -6.860   3.458  0.00  0.00    +0.155 HD
ENDROOT
BRANCH   1  22
ATOM     21  C   UNL     1       3.808  -0.579   0.191  0.00  0.00    +0.100 A 
ATOM     22  C   UNL     1       3.966  -1.935   0.581  0.00  0.00    +0.021 A 
ATOM     23  C   UNL     1       5.139  -2.381   0.045  0.00  0.00    +0.113 A 
ATOM     24  N   UNL     1       5.692  -1.360  -0.646  0.00  0.00    -0.284 N 
ATOM     25  H   UNL     1       6.531  -1.392  -1.132  0.00  0.00    +0.188 HD
ATOM     26  N   UNL     1       4.846  -0.249  -0.547  0.00  0.00    -0.173 NA
BRANCH  21  30
ATOM     27  C   UNL     1       0.552   1.957   1.210  0.00  0.00    +0.000 A 
ATOM     28  C   UNL     1       1.827   2.483   1.100  0.00  0.00    +0.001 A 
ATOM     29  C   UNL     1       2.888   1.665   0.769  0.00  0.00    +0.010 A 
ATOM     30  C   UNL     1       2.673   0.305   0.547  0.00  0.00    +0.003 A 
ATOM     31  C   UNL     1       1.386  -0.219   0.659  0.00  0.00    +0.010 A 
ATOM     32  C   UNL     1       0.333   0.609   0.990  0.00  0.00    +0.001 A 
ENDBRANCH  21  30
ENDBRANCH   1  22
BRANCH  11  33
ATOM     33  C   UNL     1      -0.958  -7.676   0.344  0.00  0.00    -0.002 A 
ATOM     34  C   UNL     1      -2.258  -7.533  -0.146  0.00  0.00    +0.010 A 
ATOM     35  C   UNL     1      -2.932  -8.632  -0.636  0.00  0.00    +0.001 A 
ATOM     36  C   UNL     1      -2.323  -9.874  -0.644  0.00  0.00    +0.000 A 
ATOM     37  C   UNL     1      -1.036 -10.024  -0.159  0.00  0.00    +0.001 A 
ATOM     38  C   UNL     1      -0.347  -8.933   0.328  0.00  0.00    +0.010 A 
ENDBRANCH  11  33
TORSDOF 3
