REMARK  Name = ZINC02269313
REMARK  6 active torsions:
REMARK  status: ('A' for Active; 'I' for Inactive)
REMARK    1  A    between atoms: C_1  and  C_2
REMARK    2  A    between atoms: C_2  and  C_3
REMARK    3  A    between atoms: C_6  and  N_9
REMARK    4  A    between atoms: C_23  and  C_32
REMARK    5  A    between atoms: N_25  and  C_26
REMARK    6  A    between atoms: C_33  and  C_35
REMARK                            x       y       z     vdW  Elec       q    Type
REMARK                         _______ _______ _______ _____ _____    ______ ____
ROOT
ATOM      1  N   UNL     1       0.277   7.577  -1.258  0.00  0.00    -0.297 N 
ATOM      2  C   UNL     1       0.631   6.284  -1.597  0.00  0.00    +0.164 C 
ATOM      3  N   UNL     1       0.415   5.844  -2.812  0.00  0.00    -0.227 NA
ATOM      4  C   UNL     1       0.749   4.582  -3.183  0.00  0.00    +0.087 A 
ATOM      5  C   UNL     1       0.502   4.147  -4.491  0.00  0.00    +0.030 A 
ATOM      6  C   UNL     1       0.841   2.867  -4.865  0.00  0.00    +0.002 A 
ATOM      7  C   UNL     1       1.426   2.000  -3.954  0.00  0.00    +0.002 A 
ATOM      8  C   UNL     1       1.676   2.410  -2.661  0.00  0.00    +0.025 A 
ATOM      9  C   UNL     1       1.343   3.699  -2.263  0.00  0.00    +0.062 A 
ATOM     10  N   UNL     1       1.589   4.121  -0.970  0.00  0.00    -0.268 N 
ATOM     11  C   UNL     1       1.251   5.401  -0.591  0.00  0.00    +0.169 C 
ATOM     12  N   UNL     1       1.466   5.844   0.623  0.00  0.00    -0.209 NA
ATOM     13  C   UNL     1       2.026   5.118   1.614  0.00  0.00    +0.164 A 
ATOM     14  C   UNL     1       2.423   3.809   1.397  0.00  0.00    +0.045 A 
ATOM     15  C   UNL     1       2.959   3.317   2.577  0.00  0.00    +0.068 A 
ATOM     16  N   UNL     1       2.903   4.260   3.487  0.00  0.00    -0.169 NA
ATOM     17  N   UNL     1       2.325   5.403   2.920  0.00  0.00    -0.214 N 
ATOM     18  C   UNL     1       3.513   1.930   2.781  0.00  0.00    +0.068 C 
ATOM     19  C   UNL     1       2.208   3.226   0.018  0.00  0.00    +0.153 C 
ATOM     20  H   UNL     1       0.364   7.878  -0.340  0.00  0.00    +0.154 HD
ENDROOT
BRANCH   1  24
ATOM     21  C   UNL     1      -1.164  10.176  -4.175  0.00  0.00    -0.048 A 
ATOM     22  C   UNL     1      -1.629  10.270  -2.876  0.00  0.00    +0.005 A 
ATOM     23  C   UNL     1      -1.154   9.410  -1.906  0.00  0.00    +0.023 A 
ATOM     24  C   UNL     1      -0.207   8.448  -2.237  0.00  0.00    +0.032 A 
ATOM     25  C   UNL     1       0.262   8.360  -3.541  0.00  0.00    +0.023 A 
ATOM     26  C   UNL     1      -0.222   9.219  -4.507  0.00  0.00    +0.005 A 
BRANCH  21  28
ATOM     27  C   UNL     1      -0.806  12.368  -5.278  0.00  0.00    +0.009 C 
ATOM     28  C   UNL     1      -1.686  11.116  -5.230  0.00  0.00    +0.032 C 
ENDBRANCH  21  28
ENDBRANCH   1  24
BRANCH  17  29
ATOM     29  C   UNL     1       2.093   6.620   3.572  0.00  0.00    +0.068 A 
ATOM     30  C   UNL     1       2.223   7.817   2.880  0.00  0.00    +0.028 A 
ATOM     31  C   UNL     1       1.988   9.015   3.525  0.00  0.00    +0.002 A 
ATOM     32  C   UNL     1       1.635   9.025   4.862  0.00  0.00    +0.000 A 
ATOM     33  C   UNL     1       1.510   7.835   5.555  0.00  0.00    +0.002 A 
ATOM     34  C   UNL     1       1.738   6.633   4.915  0.00  0.00    +0.028 A 
ENDBRANCH  17  29
BRANCH  19  35
ATOM     35  C   UNL     1       1.338   2.003   0.155  0.00  0.00    +0.015 A 
ATOM     36  C   UNL     1       1.698   0.696   0.169  0.00  0.00    +0.013 A 
ATOM     37  C   UNL     1       0.717  -0.268   0.308  0.00  0.00    +0.008 A 
ATOM     38  C   UNL     1      -0.576   0.122   0.425  0.00  0.00    +0.045 A 
ATOM     39  S   UNL     1      -0.435   1.900   0.342  0.00  0.00    -0.099 S 
ENDBRANCH  19  35
TORSDOF 4
