REMARK  Name = ZINC21818342
REMARK  7 active torsions:
REMARK  status: ('A' for Active; 'I' for Inactive)
REMARK    1  A    between atoms: C_4  and  C_7
REMARK    2  A    between atoms: C_7  and  N_8
REMARK    3  A    between atoms: N_8  and  C_9
REMARK    4  A    between atoms: C_9  and  C_11
REMARK    5  A    between atoms: C_9  and  C_17
REMARK    6  A    between atoms: N_19  and  C_20
REMARK    7  A    between atoms: C_23  and  N_27
REMARK                            x       y       z     vdW  Elec       q    Type
REMARK                         _______ _______ _______ _____ _____    ______ ____
ROOT
ATOM      1  C   UNL     1       1.141   3.608   0.007  0.00  0.00    +0.048 C 
ENDROOT
BRANCH   1   2
ATOM      2  C   UNL     1       1.159   2.101  -0.011  0.00  0.00    -0.053 A 
ATOM      3  C   UNL     1      -0.029   1.395  -0.004  0.00  0.00    +0.002 A 
ATOM      4  C   UNL     1      -0.012   0.013  -0.021  0.00  0.00    +0.000 A 
ATOM      5  C   UNL     1       1.193  -0.663  -0.046  0.00  0.00    +0.000 A 
ATOM      6  C   UNL     1       2.382   0.043  -0.053  0.00  0.00    +0.000 A 
ATOM      7  C   UNL     1       2.365   1.425  -0.036  0.00  0.00    +0.002 A 
ENDBRANCH   1   2
BRANCH   1   8
ATOM      8  C   UNL     1       1.400   4.097   1.409  0.00  0.00    +0.207 C 
ATOM      9  O   UNL     1       2.359   4.803   1.637  0.00  0.00    -0.277 OA
ATOM     10  N   UNL     1       0.566   3.749   2.408  0.00  0.00    -0.285 N 
ATOM     11  H   UNL     1      -0.344   3.170   2.189  0.00  0.00    +0.155 HD
BRANCH  10  12
ATOM     12  C   UNL     1       0.857   4.124   3.725  0.00  0.00    +0.052 A 
ATOM     13  C   UNL     1       1.478   5.339   3.981  0.00  0.00    +0.027 A 
ATOM     14  C   UNL     1       1.764   5.706   5.282  0.00  0.00    +0.034 A 
ATOM     15  C   UNL     1       1.433   4.865   6.329  0.00  0.00    +0.128 A 
ATOM     16  C   UNL     1       0.814   3.655   6.078  0.00  0.00    +0.054 A 
ATOM     17  C   UNL     1       0.520   3.283   4.779  0.00  0.00    +0.064 A 
ATOM     18 CL   UNL     1      -0.263   1.766   4.465  0.00  0.00    -0.082 Cl
BRANCH  15  19
ATOM     19  N   UNL     1       1.741   5.263   7.721  0.00  0.00    +0.056 N 
ATOM     20  O   UNL     1       2.285   6.330   7.943  0.00  0.00    -0.126 OA
ATOM     21  O   UNL     1       1.450   4.524   8.644  0.00  0.00    -0.126 OA
ENDBRANCH  15  19
ENDBRANCH  10  12
ENDBRANCH   1   8
BRANCH   1  22
ATOM     22  N   UNL     1       2.184   4.121  -0.891  0.00  0.00    +0.392 N 
ATOM     23  H   UNL     1       3.053   3.448  -0.844  0.00  0.00    -0.084 HD
ATOM     24  H   UNL     1       2.479   5.125  -0.552  0.00  0.00    -0.084 HD
BRANCH  22  25
ATOM     25  C   UNL     1       1.698   4.195  -2.276  0.00  0.00    -0.045 C 
BRANCH  25  29
ATOM     26  C   UNL     1       4.801   5.696  -4.798  0.00  0.00    +0.000 A 
ATOM     27  C   UNL     1       4.682   4.335  -4.584  0.00  0.00    +0.000 A 
ATOM     28  C   UNL     1       3.678   3.849  -3.767  0.00  0.00    +0.002 A 
ATOM     29  C   UNL     1       2.793   4.724  -3.165  0.00  0.00    -0.064 A 
ATOM     30  C   UNL     1       2.908   6.084  -3.384  0.00  0.00    +0.002 A 
ATOM     31  C   UNL     1       3.916   6.570  -4.196  0.00  0.00    +0.000 A 
ENDBRANCH  25  29
ENDBRANCH  22  25
ENDBRANCH   1  22
TORSDOF 7
