REMARK  Name = ZINC35842879
REMARK  3 active torsions:
REMARK  status: ('A' for Active; 'I' for Inactive)
REMARK    1  A    between atoms: C_6  and  C_7
REMARK    2  A    between atoms: C_19  and  N_22
REMARK    3  A    between atoms: N_25  and  C_26
REMARK                            x       y       z     vdW  Elec       q    Type
REMARK                         _______ _______ _______ _____ _____    ______ ____
ROOT
ATOM      1  C   UNL     1      -1.186  -0.735   0.070  0.00  0.00    +0.247 C 
ATOM      2  O   UNL     1      -0.142  -0.142  -0.117  0.00  0.00    -0.270 OA
ATOM      3  N   UNL     1      -1.189  -2.079   0.175  0.00  0.00    -0.296 N 
ATOM      4  C   UNL     1      -2.485  -2.752   0.269  0.00  0.00    +0.109 C 
ATOM      5  C   UNL     1      -2.857  -3.247  -1.114  0.00  0.00    +0.038 C 
ATOM      6  C   UNL     1      -2.250  -4.630  -1.366  0.00  0.00    +0.108 C 
ATOM      7  N   UNL     1      -0.874  -4.743  -0.861  0.00  0.00    -0.315 N 
ATOM      8  C   UNL     1       0.127  -3.704  -1.034  0.00  0.00    +0.125 C 
ATOM      9  C   UNL     1       0.067  -2.745   0.181  0.00  0.00    +0.127 C 
ATOM     10  C   UNL     1      -0.511  -5.904  -0.184  0.00  0.00    +0.099 A 
ATOM     11  C   UNL     1       0.738  -5.984   0.424  0.00  0.00    +0.043 A 
ATOM     12  C   UNL     1       1.088  -7.142   1.095  0.00  0.00    +0.028 A 
ATOM     13  C   UNL     1       0.170  -8.190   1.135  0.00  0.00    +0.051 A 
ATOM     14  C   UNL     1      -1.056  -8.039   0.506  0.00  0.00    +0.107 A 
ATOM     15  N   UNL     1      -1.360  -6.917  -0.121  0.00  0.00    -0.348 N 
ATOM     16  H   UNL     1      -2.226  -6.835  -0.549  0.00  0.00    +0.167 HD
ENDROOT
BRANCH   1  22
ATOM     17  C   UNL     1      -2.549   1.101   1.059  0.00  0.00    +0.014 A 
ATOM     18  C   UNL     1      -3.734   1.799   1.160  0.00  0.00    +0.021 A 
ATOM     19  C   UNL     1      -4.827   1.428   0.395  0.00  0.00    +0.041 A 
ATOM     20  C   UNL     1      -4.738   0.354  -0.475  0.00  0.00    +0.021 A 
ATOM     21  C   UNL     1      -3.559  -0.352  -0.585  0.00  0.00    +0.014 A 
ATOM     22  C   UNL     1      -2.453   0.018   0.183  0.00  0.00    +0.037 A 
ATOM     23 CL   UNL     1      -6.316   2.312   0.528  0.00  0.00    -0.084 Cl
ENDBRANCH   1  22
BRANCH  13  24
ATOM     24  N   UNL     1       0.482  -9.382   1.803  0.00  0.00    -0.268 N 
ATOM     25  C   UNL     1       1.335  -9.366   2.846  0.00  0.00    +0.308 C 
ATOM     26  O   UNL     1       1.762  -8.308   3.267  0.00  0.00    -0.252 OA
ATOM     27  N   UNL     1       1.714 -10.523   3.424  0.00  0.00    -0.269 N 
ATOM     28  H   UNL     1       0.085 -10.218   1.514  0.00  0.00    +0.156 HD
ATOM     29  H   UNL     1       1.431 -11.370   3.045  0.00  0.00    +0.156 HD
BRANCH  27  30
ATOM     30  C   UNL     1       2.518 -10.503   4.571  0.00  0.00    +0.038 A 
ATOM     31  C   UNL     1       3.464 -11.498   4.774  0.00  0.00    +0.026 A 
ATOM     32  C   UNL     1       4.257 -11.477   5.906  0.00  0.00    +0.043 A 
ATOM     33  C   UNL     1       4.108 -10.464   6.837  0.00  0.00    +0.159 A 
ATOM     34  C   UNL     1       3.164  -9.469   6.637  0.00  0.00    +0.160 A 
ATOM     35  C   UNL     1       2.373  -9.484   5.503  0.00  0.00    +0.064 A 
ATOM     36  F   UNL     1       3.020  -8.481   7.548  0.00  0.00    -0.202 F 
ATOM     37  F   UNL     1       4.884 -10.445   7.943  0.00  0.00    -0.202 F 
ENDBRANCH  27  30
ENDBRANCH  13  24
TORSDOF 3
