REMARK  Name = ZINC27753953
REMARK  7 active torsions:
REMARK  status: ('A' for Active; 'I' for Inactive)
REMARK    1  A    between atoms: C_1  and  C_2
REMARK    2  A    between atoms: C_5  and  C_8
REMARK    3  A    between atoms: C_8  and  O_30
REMARK    4  A    between atoms: C_9  and  C_24
REMARK    5  A    between atoms: C_11  and  C_17
REMARK    6  A    between atoms: C_20  and  O_23
REMARK    7  A    between atoms: C_24  and  C_26
REMARK                            x       y       z     vdW  Elec       q    Type
REMARK                         _______ _______ _______ _____ _____    ______ ____
ROOT
ATOM      1  C   UNL     1      -2.528   0.735  -0.006  0.00  0.00    +0.172 C 
ATOM      2  C   UNL     1      -3.040   0.777   1.437  0.00  0.00    +0.144 C 
ATOM      3  C   UNL     1      -2.012   0.087   2.340  0.00  0.00    +0.120 C 
ATOM      4  N   UNL     1      -1.766  -1.266   1.841  0.00  0.00    -0.292 N 
ATOM      5  C   UNL     1      -1.890  -1.563   0.539  0.00  0.00    +0.302 C 
ATOM      6  O   UNL     1      -1.664  -2.701   0.175  0.00  0.00    -0.253 OA
ATOM      7  N   UNL     1      -2.254  -0.654  -0.380  0.00  0.00    -0.267 N 
ATOM      8  H   UNL     1      -1.472  -2.065   2.538  0.00  0.00    +0.151 HD
ATOM      9  H   UNL     1      -2.345  -0.969  -1.430  0.00  0.00    +0.153 HD
ENDROOT
BRANCH   1  14
ATOM     10  C   UNL     1       2.328   3.839  -0.438  0.00  0.00    +0.044 C 
ATOM     11  C   UNL     1       1.061   3.030  -0.322  0.00  0.00    -0.050 A 
ATOM     12  C   UNL     1       1.130   1.665  -0.114  0.00  0.00    +0.004 A 
ATOM     13  C   UNL     1      -0.032   0.923  -0.008  0.00  0.00    +0.008 A 
ATOM     14  C   UNL     1      -1.262   1.545  -0.116  0.00  0.00    +0.003 A 
ATOM     15  C   UNL     1      -1.330   2.910  -0.318  0.00  0.00    +0.008 A 
ATOM     16  C   UNL     1      -0.169   3.652  -0.424  0.00  0.00    +0.004 A 
ENDBRANCH   1  14
BRANCH   3  17
ATOM     17  C   UNL     1      -2.545   0.016   3.748  0.00  0.00    -0.026 A 
ATOM     18  C   UNL     1      -3.406  -1.004   4.109  0.00  0.00    +0.009 A 
ATOM     19  C   UNL     1      -3.891  -1.075   5.400  0.00  0.00    +0.046 A 
ATOM     20  C   UNL     1      -3.524  -0.116   6.332  0.00  0.00    +0.117 A 
ATOM     21  C   UNL     1      -2.664   0.910   5.966  0.00  0.00    +0.046 A 
ATOM     22  C   UNL     1      -2.177   0.974   4.675  0.00  0.00    +0.009 A 
BRANCH  20  23
ATOM     23  O   UNL     1      -4.005  -0.180   7.601  0.00  0.00    -0.507 OA
ATOM     24  H   UNL     1      -3.712   0.581   8.340  0.00  0.00    +0.292 HD
ENDBRANCH  20  23
ENDBRANCH   3  17
BRANCH   2  25
ATOM     25  C   UNL     1      -4.361   0.057   1.527  0.00  0.00    +0.245 C 
ATOM     26  O   UNL     1      -4.485  -1.040   1.038  0.00  0.00    -0.287 OA
BRANCH  25  27
ATOM     27  C   UNL     1      -5.527   0.707   2.227  0.00  0.00    +0.451 C 
ATOM     28  F   UNL     1      -6.610  -0.178   2.248  0.00  0.00    -0.163 F 
ATOM     29  F   UNL     1      -5.162   1.028   3.539  0.00  0.00    -0.163 F 
ATOM     30  F   UNL     1      -5.890   1.873   1.544  0.00  0.00    -0.163 F 
ENDBRANCH  25  27
ENDBRANCH   2  25
BRANCH   1  31
ATOM     31  O   UNL     1      -3.519   1.278  -0.881  0.00  0.00    -0.367 OA
ATOM     32  H   UNL     1      -4.515   0.815  -0.938  0.00  0.00    +0.212 HD
ENDBRANCH   1  31
TORSDOF 6
