REMARK  Name = ZINC12524241
REMARK  7 active torsions:
REMARK  status: ('A' for Active; 'I' for Inactive)
REMARK    1  A    between atoms: C_1  and  C_2
REMARK    2  A    between atoms: C_2  and  N_3
REMARK    3  A    between atoms: N_3  and  C_4
REMARK    4  A    between atoms: N_3  and  C_6
REMARK    5  A    between atoms: C_4  and  C_5
REMARK    6  A    between atoms: C_11  and  C_24
REMARK    7  A    between atoms: N_13  and  C_14
REMARK                            x       y       z     vdW  Elec       q    Type
REMARK                         _______ _______ _______ _____ _____    ______ ____
ROOT
ATOM      1  C   UNL     1       2.886  -0.713   0.096  0.00  0.00    +0.033 A 
ATOM      2  C   UNL     1       3.898  -0.501  -0.843  0.00  0.00    +0.024 A 
ATOM      3  C   UNL     1       5.200  -0.743  -0.521  0.00  0.00    +0.013 A 
ATOM      4  C   UNL     1       5.529  -1.217   0.759  0.00  0.00    +0.018 A 
ATOM      5  C   UNL     1       6.876  -1.506   1.093  0.00  0.00    +0.030 A 
ATOM      6  C   UNL     1       7.129  -2.158   2.292  0.00  0.00    +0.097 A 
ATOM      7  C   UNL     1       5.966  -2.533   3.119  0.00  0.00    +0.212 A 
ATOM      8  N   UNL     1       6.028  -3.538   3.966  0.00  0.00    -0.325 N 
ATOM      9  O   UNL     1       4.830  -1.803   2.975  0.00  0.00    -0.438 OA
ATOM     10  C   UNL     1       4.514  -1.403   1.718  0.00  0.00    +0.139 A 
ATOM     11  C   UNL     1       3.196  -1.155   1.376  0.00  0.00    +0.070 A 
ATOM     12  H   UNL     1       6.816  -4.103   3.992  0.00  0.00    +0.169 HD
ENDROOT
BRANCH   8  13
ATOM     13  C   UNL     1       4.981  -3.785   4.811  0.00  0.00    +0.042 A 
ATOM     14  C   UNL     1       4.366  -2.733   5.494  0.00  0.00    +0.027 A 
ATOM     15  C   UNL     1       3.311  -2.990   6.343  0.00  0.00    +0.017 A 
ATOM     16  C   UNL     1       2.860  -4.287   6.520  0.00  0.00    +0.018 A 
ATOM     17  C   UNL     1       3.464  -5.335   5.846  0.00  0.00    +0.017 A 
ATOM     18  C   UNL     1       4.517  -5.091   4.989  0.00  0.00    +0.027 A 
ATOM     19 BR   UNL     1       1.412  -4.629   7.687  0.00  0.00    -0.050 Br
ENDBRANCH   8  13
BRANCH   6  20
ATOM     20  C   UNL     1       8.503  -2.464   2.720  0.00  0.00    +0.247 C 
ATOM     21  O   UNL     1       8.706  -2.926   3.828  0.00  0.00    -0.270 OA
ATOM     22  N   UNL     1       9.537  -2.233   1.887  0.00  0.00    -0.325 N 
ATOM     23  H   UNL     1       9.383  -1.800   1.032  0.00  0.00    +0.145 HD
ATOM     24  H   UNL     1      10.434  -2.501   2.140  0.00  0.00    +0.145 HD
ENDBRANCH   6  20
BRANCH   1  25
ATOM     25  N   UNL     1       1.562  -0.475  -0.251  0.00  0.00    -0.330 N 
BRANCH  25  27
ATOM     26  C   UNL     1       1.246   1.521  -1.628  0.00  0.00    +0.024 C 
ATOM     27  C   UNL     1       1.230  -0.008  -1.599  0.00  0.00    +0.102 C 
ENDBRANCH  25  27
BRANCH  25  28
ATOM     28  C   UNL     1       0.497  -0.690   0.732  0.00  0.00    +0.102 C 
ATOM     29  C   UNL     1      -0.004  -2.132   0.634  0.00  0.00    +0.024 C 
ENDBRANCH  25  28
ENDBRANCH   1  25
TORSDOF 5
