REMARK  Name = ZINC08614382
REMARK  12 active torsions:
REMARK  status: ('A' for Active; 'I' for Inactive)
REMARK    1  A    between atoms: C_1  and  C_2
REMARK    2  A    between atoms: C_2  and  C_4
REMARK    3  A    between atoms: C_4  and  C_5
REMARK    4  A    between atoms: C_5  and  O_7
REMARK    5  A    between atoms: O_7  and  C_8
REMARK    6  A    between atoms: C_20  and  O_41
REMARK    7  A    between atoms: C_31  and  C_37
REMARK    8  A    between atoms: C_33  and  O_35
REMARK    9  A    between atoms: O_35  and  C_36
REMARK   10  A    between atoms: C_37  and  O_39
REMARK   11  A    between atoms: O_39  and  C_40
REMARK   12  A    between atoms: O_41  and  C_42
REMARK                            x       y       z     vdW  Elec       q    Type
REMARK                         _______ _______ _______ _____ _____    ______ ____
ROOT
ATOM      1  C   UNL     1       3.794   0.701   4.943  0.00  0.00    +0.206 C 
ATOM      2  C   UNL     1       3.190   1.401   3.738  0.00  0.00    +0.049 C 
ATOM      3  C   UNL     1       4.125   1.282   2.533  0.00  0.00    -0.020 C 
ATOM      4  C   UNL     1       3.471   1.960   1.324  0.00  0.00    -0.074 C 
ATOM      5  C   UNL     1       1.434   2.002  -0.001  0.00  0.00    -0.073 C 
ATOM      6  C   UNL     1      -0.018   1.504   0.010  0.00  0.00    +0.019 C 
ATOM      7  C   UNL     1       0.002  -0.004   0.002  0.00  0.00    -0.022 A 
ATOM      8  C   UNL     1      -1.068  -0.933  -0.292  0.00  0.00    +0.003 A 
ATOM      9  C   UNL     1      -2.409  -0.754  -0.646  0.00  0.00    +0.014 A 
ATOM     10  C   UNL     1      -3.153  -1.888  -0.856  0.00  0.00    +0.046 A 
ATOM     11  C   UNL     1      -2.611  -3.161  -0.726  0.00  0.00    +0.122 A 
ATOM     12  C   UNL     1      -1.283  -3.365  -0.375  0.00  0.00    +0.071 A 
ATOM     13  C   UNL     1      -0.507  -2.229  -0.156  0.00  0.00    +0.050 A 
ATOM     14  N   UNL     1       0.804  -2.072   0.194  0.00  0.00    -0.359 N 
ATOM     15  H   UNL     1       1.430  -2.796   0.353  0.00  0.00    +0.166 HD
ATOM     16  C   UNL     1       1.101  -0.739   0.288  0.00  0.00    +0.007 A 
ATOM     17  C   UNL     1       2.428  -0.119   0.651  0.00  0.00    -0.020 C 
ATOM     18  C   UNL     1       3.040  -0.861   1.841  0.00  0.00    -0.005 C 
ATOM     19  C   UNL     1       4.367  -0.194   2.213  0.00  0.00    +0.006 C 
ATOM     20  C   UNL     1       4.966  -0.900   3.428  0.00  0.00    +0.133 C 
ATOM     21  C   UNL     1       4.011  -0.779   4.618  0.00  0.00    +0.172 C 
ATOM     22  N   UNL     1       2.185   1.283   1.057  0.00  0.00    +0.386 N 
ATOM     23  H   UNL     1       1.625   1.286   1.918  0.00  0.00    -0.081 HD
ENDROOT
BRANCH  21  24
ATOM     24  O   UNL     1       2.760  -1.384   4.289  0.00  0.00    -0.375 OA
ATOM     25  C   UNL     1       2.068  -1.937   5.411  0.00  0.00    +0.194 C 
ENDBRANCH  21  24
BRANCH  20  26
ATOM     26  C   UNL     1       5.180  -2.357   3.106  0.00  0.00    +0.313 C 
ATOM     27  O   UNL     1       4.884  -2.784   2.015  0.00  0.00    -0.250 OA
BRANCH  26  28
ATOM     28  O   UNL     1       5.701  -3.179   4.030  0.00  0.00    -0.468 OA
ATOM     29  C   UNL     1       5.880  -4.569   3.651  0.00  0.00    +0.280 C 
ENDBRANCH  26  28
ENDBRANCH  20  26
BRANCH  11  30
ATOM     30  O   UNL     1      -3.406  -4.241  -0.949  0.00  0.00    -0.495 OA
ATOM     31  C   UNL     1      -4.765  -3.983  -1.307  0.00  0.00    +0.277 C 
ENDBRANCH  11  30
BRANCH   1  32
ATOM     32  O   UNL     1       2.896   0.821   6.078  0.00  0.00    -0.458 OA
BRANCH  32  33
ATOM     33  C   UNL     1       3.058   1.890   6.872  0.00  0.00    +0.315 C 
ATOM     34  O   UNL     1       3.921   2.700   6.628  0.00  0.00    -0.250 OA
BRANCH  33  35
ATOM     35  C   UNL     1       2.163   2.082   8.070  0.00  0.00    +0.194 C 
BRANCH  35  37
ATOM     36  C   UNL     1       1.803   3.770  10.028  0.00  0.00    +0.086 C 
ATOM     37  C   UNL     1       2.550   3.349   8.788  0.00  0.00    +0.141 C 
ATOM     38  O   UNL     1       3.458   4.026   8.371  0.00  0.00    -0.297 OA
ENDBRANCH  35  37
ENDBRANCH  33  35
ENDBRANCH  32  33
ENDBRANCH   1  32
TORSDOF 8
