REMARK  Name = ZINC02436182
REMARK  10 active torsions:
REMARK  status: ('A' for Active; 'I' for Inactive)
REMARK    1  A    between atoms: C_1  and  C_2
REMARK    2  A    between atoms: C_2  and  O_3
REMARK    3  A    between atoms: O_3  and  C_4
REMARK    4  A    between atoms: C_4  and  C_6
REMARK    5  A    between atoms: C_9  and  N_12
REMARK    6  A    between atoms: C_13  and  N_36
REMARK    7  A    between atoms: C_14  and  C_25
REMARK    8  A    between atoms: N_27  and  C_28
REMARK    9  A    between atoms: C_28  and  C_29
REMARK   10  A    between atoms: C_29  and  C_30
REMARK                            x       y       z     vdW  Elec       q    Type
REMARK                         _______ _______ _______ _____ _____    ______ ____
ROOT
ATOM      1  N   UNL     1      -4.939   3.965   0.049  0.00  0.00    -0.280 N 
ATOM      2  C   UNL     1      -5.842   3.924   1.071  0.00  0.00    +0.117 A 
ATOM      3  C   UNL     1      -6.949   4.710   0.771  0.00  0.00    +0.104 A 
ATOM      4  C   UNL     1      -6.704   5.289  -0.560  0.00  0.00    +0.123 A 
ATOM      5  C   UNL     1      -5.393   4.779  -0.971  0.00  0.00    +0.166 A 
ATOM      6  N   UNL     1      -4.902   5.125  -2.142  0.00  0.00    -0.225 NA
ATOM      7  C   UNL     1      -5.597   5.946  -2.940  0.00  0.00    +0.092 A 
ATOM      8  C   UNL     1      -5.077   6.326  -4.191  0.00  0.00    +0.030 A 
ATOM      9  C   UNL     1      -5.789   7.161  -4.995  0.00  0.00    +0.002 A 
ATOM     10  C   UNL     1      -7.033   7.650  -4.599  0.00  0.00    +0.002 A 
ATOM     11  C   UNL     1      -7.568   7.305  -3.397  0.00  0.00    +0.030 A 
ATOM     12  C   UNL     1      -6.861   6.443  -2.538  0.00  0.00    +0.090 A 
ATOM     13  N   UNL     1      -7.379   6.097  -1.353  0.00  0.00    -0.241 NA
ENDROOT
BRANCH   1  17
ATOM     14  C   UNL     1      -1.302   1.931   0.019  0.00  0.00    +0.059 A 
ATOM     15  C   UNL     1      -1.322   3.329   0.032  0.00  0.00    +0.017 A 
ATOM     16  C   UNL     1      -2.526   3.997   0.038  0.00  0.00    +0.027 A 
ATOM     17  C   UNL     1      -3.720   3.284   0.039  0.00  0.00    +0.050 A 
ATOM     18  C   UNL     1      -3.703   1.893   0.030  0.00  0.00    +0.027 A 
ATOM     19  C   UNL     1      -2.504   1.217   0.021  0.00  0.00    +0.017 A 
BRANCH  14  20
ATOM     20  C   UNL     1      -0.014   1.211   0.009  0.00  0.00    +0.339 C 
ATOM     21  O   UNL     1       0.002  -0.004   0.002  0.00  0.00    -0.245 OA
BRANCH  20  22
ATOM     22  O   UNL     1       1.143   1.900   0.001  0.00  0.00    -0.461 OA
BRANCH  22  24
ATOM     23  C   UNL     1       3.572   2.075  -0.021  0.00  0.00    +0.048 C 
ATOM     24  C   UNL     1       2.372   1.126  -0.015  0.00  0.00    +0.229 C 
ENDBRANCH  22  24
ENDBRANCH  20  22
ENDBRANCH  14  20
ENDBRANCH   1  17
BRANCH   3  25
ATOM     25  C   UNL     1      -8.125   4.920   1.613  0.00  0.00    +0.250 C 
ATOM     26  O   UNL     1      -8.146   5.839   2.411  0.00  0.00    -0.270 OA
ATOM     27  N   UNL     1      -9.186   4.096   1.505  0.00  0.00    -0.311 N 
ATOM     28  H   UNL     1      -9.169   3.364   0.869  0.00  0.00    +0.149 HD
BRANCH  27  29
ATOM     29  C   UNL     1     -10.365   4.306   2.348  0.00  0.00    +0.109 C 
BRANCH  29  30
ATOM     30  C   UNL     1     -11.417   3.241   2.029  0.00  0.00    +0.049 C 
BRANCH  30  31
ATOM     31  C   UNL     1     -12.630   3.457   2.897  0.00  0.00    -0.072 C 
ATOM     32  C   UNL     1     -13.611   4.147   2.409  0.00  0.00    -0.028 C 
ATOM     33  C   UNL     1     -14.876   4.453   3.154  0.00  0.00    +0.027 C 
ATOM     34  C   UNL     1     -15.023   3.513   4.352  0.00  0.00    +0.004 C 
ATOM     35  C   UNL     1     -13.705   3.517   5.137  0.00  0.00    +0.005 C 
ATOM     36  C   UNL     1     -12.628   2.855   4.271  0.00  0.00    +0.030 C 
ENDBRANCH  30  31
ENDBRANCH  29  30
ENDBRANCH  27  29
ENDBRANCH   3  25
BRANCH   2  37
ATOM     37  N   UNL     1      -5.680   3.210   2.229  0.00  0.00    -0.343 N 
ATOM     38  H   UNL     1      -4.877   2.683   2.366  0.00  0.00    +0.144 HD
ATOM     39  H   UNL     1      -6.369   3.230   2.912  0.00  0.00    +0.144 HD
ENDBRANCH   2  37
TORSDOF 9
