REMARK  Name = ZINC43251265
REMARK  8 active torsions:
REMARK  status: ('A' for Active; 'I' for Inactive)
REMARK    1  A    between atoms: C_1  and  C_2
REMARK    2  A    between atoms: C_2  and  C_3
REMARK    3  A    between atoms: C_3  and  C_5
REMARK    4  A    between atoms: C_3  and  N_21
REMARK    5  A    between atoms: C_5  and  C_7
REMARK    6  A    between atoms: C_5  and  S_13
REMARK    7  A    between atoms: C_8  and  C_12
REMARK    8  A    between atoms: S_13  and  C_14
REMARK                            x       y       z     vdW  Elec       q    Type
REMARK                         _______ _______ _______ _____ _____    ______ ____
ROOT
ATOM      1  C   UNL     1       0.860  -2.084  -1.156  0.00  0.00    +0.108 C 
ENDROOT
BRANCH   1   2
ATOM      2  C   UNL     1       1.660  -2.479   0.058  0.00  0.00    +0.007 A 
ATOM      3  C   UNL     1       1.225  -2.966   1.246  0.00  0.00    -0.039 A 
ATOM      4  C   UNL     1       2.151  -3.264   2.228  0.00  0.00    +0.011 A 
ATOM      5  C   UNL     1       3.466  -3.059   1.975  0.00  0.00    +0.046 A 
ATOM      6  S   UNL     1       3.428  -2.434   0.303  0.00  0.00    -0.100 S 
ATOM      7  C   UNL     1      -0.246  -3.180   1.491  0.00  0.00    +0.044 C 
ENDBRANCH   1   2
BRANCH   1   8
ATOM      8  C   UNL     1       0.803  -0.558  -1.255  0.00  0.00    +0.069 C 
BRANCH   8   9
ATOM      9  N   UNL     1       0.120  -0.173  -2.498  0.00  0.00    -0.326 NA
ATOM     10  H   UNL     1       0.571  -0.585  -3.301  0.00  0.00    +0.119 HD
ATOM     11  H   UNL     1      -0.857  -0.421  -2.465  0.00  0.00    +0.119 HD
ENDBRANCH   8   9
BRANCH   8  13
ATOM     12  C   UNL     1       0.085   1.531  -0.089  0.00  0.00    +0.005 C 
ATOM     13  C   UNL     1       0.035   0.002  -0.057  0.00  0.00    +0.016 C 
ENDBRANCH   8  13
ENDBRANCH   1   8
BRANCH   1  14
ATOM     14  S   UNL     1       1.649  -2.757  -2.645  0.00  0.00    -0.076 S 
BRANCH  14  15
ATOM     15  C   UNL     1       1.439  -4.500  -2.488  0.00  0.00    +0.192 A 
ATOM     16  N   UNL     1       1.829  -5.290  -3.477  0.00  0.00    -0.230 NA
ATOM     17  C   UNL     1       1.688  -6.604  -3.394  0.00  0.00    +0.119 A 
ATOM     18  C   UNL     1       1.124  -7.152  -2.258  0.00  0.00    +0.092 A 
ATOM     19  C   UNL     1       0.723  -6.295  -1.233  0.00  0.00    +0.274 A 
ATOM     20  N   UNL     1       0.899  -4.988  -1.380  0.00  0.00    -0.183 NA
ATOM     21  O   UNL     1       0.166  -6.791  -0.102  0.00  0.00    -0.266 OA
ENDBRANCH  14  15
ENDBRANCH   1  14
TORSDOF 6
