REMARK  Name = ZINC20837372
REMARK  10 active torsions:
REMARK  status: ('A' for Active; 'I' for Inactive)
REMARK    1  A    between atoms: C_1  and  C_2
REMARK    2  A    between atoms: C_2  and  C_27
REMARK    3  A    between atoms: N_3  and  N_4
REMARK    4  A    between atoms: C_7  and  S_10
REMARK    5  A    between atoms: S_10  and  C_11
REMARK    6  A    between atoms: C_11  and  C_12
REMARK    7  A    between atoms: C_12  and  C_13
REMARK    8  A    between atoms: N_15  and  C_16
REMARK    9  A    between atoms: C_19  and  O_22
REMARK   10  A    between atoms: O_22  and  C_23
REMARK                            x       y       z     vdW  Elec       q    Type
REMARK                         _______ _______ _______ _____ _____    ______ ____
ROOT
ATOM      1  N   UNL     1      -3.166   4.764   3.565  0.00  0.00    -0.205 N 
ATOM      2  C   UNL     1      -4.306   5.549   3.453  0.00  0.00    +0.232 A 
ATOM      3  N   UNL     1      -5.043   6.048   4.490  0.00  0.00    -0.186 NA
ATOM      4  C   UNL     1      -6.080   6.765   3.964  0.00  0.00    +0.210 A 
ATOM      5  N   UNL     1      -5.988   6.712   2.657  0.00  0.00    -0.144 NA
ATOM      6  N   UNL     1      -4.861   5.946   2.334  0.00  0.00    -0.245 N 
ATOM      7  H   UNL     1      -2.782   4.492   4.559  0.00  0.00    +0.177 HD
ATOM      8  H   UNL     1      -4.418   5.659   1.368  0.00  0.00    +0.192 HD
ENDROOT
BRANCH   1  11
ATOM      9  C   UNL     1      -0.928   3.222   3.878  0.00  0.00    +0.063 C 
ATOM     10  C   UNL     1      -1.455   3.595   2.517  0.00  0.00    +0.040 C 
ATOM     11  N   UNL     1      -2.506   4.319   2.413  0.00  0.00    -0.189 NA
BRANCH  10  12
ATOM     12  C   UNL     1      -0.745   3.116   1.277  0.00  0.00    +0.011 C 
ATOM     13  C   UNL     1      -0.725   1.586   1.259  0.00  0.00    +0.016 C 
ATOM     14  C   UNL     1      -0.003   1.100   0.000  0.00  0.00    -0.010 C 
ATOM     15  C   UNL     1      -0.738   1.615  -1.239  0.00  0.00    +0.007 C 
ATOM     16  C   UNL     1      -0.757   3.145  -1.222  0.00  0.00    -0.010 C 
ATOM     17  C   UNL     1      -1.479   3.631   0.037  0.00  0.00    +0.016 C 
ATOM     18  C   UNL     1       0.678   3.673  -1.223  0.00  0.00    +0.007 C 
ATOM     19  C   UNL     1       1.413   3.159   0.017  0.00  0.00    -0.010 C 
ATOM     20  C   UNL     1       1.432   1.629  -0.001  0.00  0.00    +0.007 C 
ATOM     21  C   UNL     1       0.691   3.645   1.275  0.00  0.00    +0.016 C 
ENDBRANCH  10  12
ENDBRANCH   1  11
BRANCH   4  22
ATOM     22  S   UNL     1      -7.323   7.614   4.881  0.00  0.00    -0.084 S 
BRANCH  22  23
ATOM     23  C   UNL     1      -8.382   8.352   3.607  0.00  0.00    +0.086 C 
BRANCH  23  24
ATOM     24  C   UNL     1      -9.518   9.129   4.275  0.00  0.00    +0.107 C 
BRANCH  24  25
ATOM     25  C   UNL     1     -10.398   9.742   3.216  0.00  0.00    +0.218 C 
ATOM     26  O   UNL     1     -10.141   9.574   2.042  0.00  0.00    -0.275 OA
ATOM     27  N   UNL     1     -11.470  10.477   3.573  0.00  0.00    -0.285 N 
ATOM     28  H   UNL     1     -11.746  10.567   4.633  0.00  0.00    +0.155 HD
BRANCH  27  29
ATOM     29  C   UNL     1     -12.231  11.127   2.593  0.00  0.00    +0.034 A 
ATOM     30  C   UNL     1     -12.806  12.361   2.865  0.00  0.00    +0.027 A 
ATOM     31  C   UNL     1     -13.552  13.004   1.897  0.00  0.00    +0.048 A 
ATOM     32  C   UNL     1     -13.737  12.411   0.656  0.00  0.00    +0.130 A 
ATOM     33  C   UNL     1     -13.168  11.175   0.386  0.00  0.00    +0.048 A 
ATOM     34  C   UNL     1     -12.417  10.534   1.351  0.00  0.00    +0.027 A 
BRANCH  32  35
ATOM     35  O   UNL     1     -14.477  13.041  -0.295  0.00  0.00    -0.406 OA
BRANCH  35  36
ATOM     36  C   UNL     1     -15.033  14.311   0.052  0.00  0.00    +0.575 C 
ATOM     37  F   UNL     1     -14.002  15.199   0.377  0.00  0.00    -0.133 F 
ATOM     38  F   UNL     1     -15.758  14.815  -1.033  0.00  0.00    -0.133 F 
ATOM     39  F   UNL     1     -15.884  14.162   1.153  0.00  0.00    -0.133 F 
ENDBRANCH  35  36
ENDBRANCH  32  35
ENDBRANCH  27  29
ENDBRANCH  24  25
ENDBRANCH  23  24
ENDBRANCH  22  23
ENDBRANCH   4  22
TORSDOF 9
