REMARK  Name = ZINC20882789
REMARK  3 active torsions:
REMARK  status: ('A' for Active; 'I' for Inactive)
REMARK    1  A    between atoms: C_1  and  C_2
REMARK    2  A    between atoms: C_6  and  C_8
REMARK    3  A    between atoms: C_13  and  C_18
REMARK                            x       y       z     vdW  Elec       q    Type
REMARK                         _______ _______ _______ _____ _____    ______ ____
ROOT
ATOM      1  C   UNL     1      -0.070   5.347   0.032  0.00  0.00    +0.136 C 
ATOM      2  C   UNL     1      -0.000   5.817   1.465  0.00  0.00    +0.036 C 
ATOM      3  C   UNL     1       1.043   6.426   2.048  0.00  0.00    +0.017 C 
ATOM      4  C   UNL     1       0.972   6.862   3.502  0.00  0.00    +0.059 C 
ATOM      5  C   UNL     1       0.084   5.903   4.292  0.00  0.00    +0.032 C 
ATOM      6  C   UNL     1      -1.311   5.927   3.656  0.00  0.00    +0.088 C 
ATOM      7  C   UNL     1      -1.181   5.561   2.208  0.00  0.00    +0.163 C 
ATOM      8  O   UNL     1      -2.120   5.025   1.652  0.00  0.00    -0.292 OA
ATOM      9  N   UNL     1       2.212   6.718   1.422  0.00  0.00    -0.316 N 
ATOM     10  C   UNL     1       2.924   5.840   0.614  0.00  0.00    +0.052 A 
ATOM     11  C   UNL     1       4.207   5.425   0.924  0.00  0.00    +0.025 A 
ATOM     12  C   UNL     1       4.905   4.644   0.019  0.00  0.00    +0.002 A 
ATOM     13  C   UNL     1       4.324   4.281  -1.183  0.00  0.00    +0.002 A 
ATOM     14  C   UNL     1       3.033   4.676  -1.484  0.00  0.00    +0.025 A 
ATOM     15  C   UNL     1       2.325   5.443  -0.572  0.00  0.00    +0.049 A 
ATOM     16  N   UNL     1       1.006   5.825  -0.809  0.00  0.00    -0.331 N 
ATOM     17  H   UNL     1       2.663   7.715   1.536  0.00  0.00    +0.152 HD
ATOM     18  H   UNL     1       0.788   6.500  -1.650  0.00  0.00    +0.147 HD
ENDROOT
BRANCH   1  24
ATOM     19  C   UNL     1      -2.333   0.988  -0.928  0.00  0.00    +0.044 C 
ATOM     20  C   UNL     1      -1.133   1.755  -0.436  0.00  0.00    -0.050 A 
ATOM     21  C   UNL     1      -0.013   1.076   0.008  0.00  0.00    +0.003 A 
ATOM     22  C   UNL     1       1.090   1.779   0.454  0.00  0.00    +0.001 A 
ATOM     23  C   UNL     1       1.071   3.162   0.461  0.00  0.00    +0.006 A 
ATOM     24  C   UNL     1      -0.050   3.840   0.023  0.00  0.00    -0.023 A 
ATOM     25  C   UNL     1      -1.153   3.137  -0.424  0.00  0.00    +0.009 A 
ENDBRANCH   1  24
BRANCH   5  26
ATOM     26  C   UNL     1       0.000   6.350   5.728  0.00  0.00    -0.043 A 
ATOM     27  C   UNL     1      -0.504   7.601   6.034  0.00  0.00    +0.005 A 
ATOM     28  C   UNL     1      -0.587   8.010   7.351  0.00  0.00    +0.020 A 
ATOM     29  C   UNL     1      -0.154   7.172   8.364  0.00  0.00    +0.041 A 
ATOM     30  C   UNL     1       0.356   5.923   8.057  0.00  0.00    +0.020 A 
ATOM     31  C   UNL     1       0.433   5.513   6.739  0.00  0.00    +0.005 A 
ATOM     32 CL   UNL     1      -0.252   7.688  10.019  0.00  0.00    -0.084 Cl
ENDBRANCH   5  26
TORSDOF 2
