REMARK  Name = ZINC40752229
REMARK  5 active torsions:
REMARK  status: ('A' for Active; 'I' for Inactive)
REMARK    1  A    between atoms: C_5  and  C_7
REMARK    2  A    between atoms: C_7  and  N_8
REMARK    3  A    between atoms: C_10  and  N_26
REMARK    4  A    between atoms: C_11  and  O_15
REMARK    5  A    between atoms: O_15  and  C_16
REMARK                            x       y       z     vdW  Elec       q    Type
REMARK                         _______ _______ _______ _____ _____    ______ ____
ROOT
ATOM      1  N   UNL     1       1.679  -2.693   1.284  0.00  0.00    -0.323 N 
ATOM      2  C   UNL     1       1.738  -4.058   1.534  0.00  0.00    +0.147 A 
ATOM      3  C   UNL     1       1.886  -4.534   2.840  0.00  0.00    +0.128 A 
ATOM      4  C   UNL     1       1.939  -5.913   3.035  0.00  0.00    +0.246 A 
ATOM      5  N   UNL     1       1.847  -6.718   1.981  0.00  0.00    -0.199 NA
ATOM      6  C   UNL     1       1.709  -6.229   0.765  0.00  0.00    +0.227 A 
ATOM      7  N   UNL     1       1.649  -4.933   0.536  0.00  0.00    -0.219 NA
ATOM      8  H   UNL     1       1.745  -2.062   2.017  0.00  0.00    +0.148 HD
ENDROOT
BRANCH   3   9
ATOM      9  N   UNL     1       1.979  -3.648   3.924  0.00  0.00    -0.351 N 
ATOM     10  H   UNL     1       1.941  -2.691   3.773  0.00  0.00    +0.143 HD
ATOM     11  H   UNL     1       2.082  -3.993   4.825  0.00  0.00    +0.143 HD
ENDBRANCH   3   9
BRANCH   1  12
ATOM     12  C   UNL     1       1.518  -2.206  -0.089  0.00  0.00    +0.139 C 
BRANCH  12  17
ATOM     13  C   UNL     1       0.241   1.346  -0.164  0.00  0.00    +0.000 A 
ATOM     14  C   UNL     1       1.419   2.065  -0.084  0.00  0.00    +0.001 A 
ATOM     15  C   UNL     1       2.630   1.403  -0.006  0.00  0.00    +0.020 A 
ATOM     16  C   UNL     1       2.662   0.019  -0.008  0.00  0.00    +0.046 A 
ATOM     17  C   UNL     1       1.483  -0.700  -0.087  0.00  0.00    -0.012 A 
ATOM     18  C   UNL     1       0.273  -0.036  -0.165  0.00  0.00    +0.006 A 
ATOM     19 CL   UNL     1       4.182  -0.814   0.090  0.00  0.00    -0.083 Cl
ENDBRANCH  12  17
ENDBRANCH   1  12
BRANCH   4  20
ATOM     20  O   UNL     1       2.082  -6.427   4.283  0.00  0.00    -0.434 OA
BRANCH  20  21
ATOM     21  C   UNL     1       2.023  -7.776   4.428  0.00  0.00    +0.156 A 
ATOM     22  C   UNL     1       0.833  -8.386   4.753  0.00  0.00    +0.048 A 
ATOM     23  C   UNL     1       0.757  -9.768   4.905  0.00  0.00    +0.004 A 
ATOM     24  C   UNL     1       1.857 -10.552   4.735  0.00  0.00    +0.010 A 
ATOM     25  C   UNL     1       3.089  -9.967   4.402  0.00  0.00    +0.004 A 
ATOM     26  C   UNL     1       3.179  -8.562   4.240  0.00  0.00    +0.113 A 
ATOM     27  N   UNL     1       4.348  -8.002   3.918  0.00  0.00    -0.251 NA
ATOM     28  C   UNL     1       5.426  -8.728   3.743  0.00  0.00    +0.111 A 
ATOM     29  C   UNL     1       5.407 -10.114   3.881  0.00  0.00    +0.020 A 
ATOM     30  C   UNL     1       4.246 -10.749   4.221  0.00  0.00    +0.011 A 
ENDBRANCH  20  21
ENDBRANCH   4  20
TORSDOF 5
