REMARK  Name = ZINC43741404
REMARK  10 active torsions:
REMARK  status: ('A' for Active; 'I' for Inactive)
REMARK    1  A    between atoms: C_1  and  C_2
REMARK    2  A    between atoms: C_2  and  C_4
REMARK    3  A    between atoms: C_10  and  C_42
REMARK    4  A    between atoms: N_22  and  O_23
REMARK    5  A    between atoms: O_23  and  C_24
REMARK    6  A    between atoms: C_24  and  C_25
REMARK    7  A    between atoms: N_27  and  C_28
REMARK    8  A    between atoms: C_28  and  C_29
REMARK    9  A    between atoms: C_32  and  C_35
REMARK   10  A    between atoms: C_40  and  C_41
REMARK                            x       y       z     vdW  Elec       q    Type
REMARK                         _______ _______ _______ _____ _____    ______ ____
ROOT
ATOM      1  C   UNL     1      -0.000  -0.750  -1.307  0.00  0.00    +0.061 C 
ATOM      2  C   UNL     1       1.450  -0.946  -1.816  0.00  0.00    +0.012 C 
ATOM      3  C   UNL     1       1.713  -2.476  -1.812  0.00  0.00    +0.005 C 
ATOM      4  C   UNL     1       0.712  -2.994  -0.774  0.00  0.00    -0.001 C 
ATOM      5  C   UNL     1      -0.555  -2.158  -1.112  0.00  0.00    -0.019 C 
ATOM      6  C   UNL     1      -1.536  -2.346   0.029  0.00  0.00    +0.008 C 
ATOM      7  C   UNL     1      -1.947  -3.827   0.037  0.00  0.00    +0.005 C 
ATOM      8  C   UNL     1      -0.737  -4.745   0.181  0.00  0.00    +0.002 C 
ATOM      9  C   UNL     1       0.342  -4.461  -0.886  0.00  0.00    -0.003 C 
ATOM     10  C   UNL     1       1.576  -5.333  -0.651  0.00  0.00    +0.008 C 
ATOM     11  C   UNL     1       1.206  -6.814  -0.790  0.00  0.00    +0.031 C 
ATOM     12  C   UNL     1       0.062  -7.094   0.169  0.00  0.00    -0.062 C 
ATOM     13  C   UNL     1       0.185  -8.087   1.039  0.00  0.00    +0.026 C 
ATOM     14  C   UNL     1      -0.907  -8.335   2.001  0.00  0.00    +0.080 C 
ATOM     15  N   UNL     1      -1.104  -9.500   2.531  0.00  0.00    -0.089 NA
ATOM     16  C   UNL     1      -1.785  -7.142   2.332  0.00  0.00    +0.059 C 
ATOM     17  C   UNL     1      -2.277  -6.552   1.011  0.00  0.00    +0.017 C 
ATOM     18  C   UNL     1      -1.181  -6.202   0.052  0.00  0.00    -0.007 C 
ATOM     19  C   UNL     1      -1.743  -6.359  -1.362  0.00  0.00    +0.016 C 
ATOM     20  C   UNL     1      -1.173  -2.658  -2.419  0.00  0.00    +0.012 C 
ENDROOT
BRANCH   1  22
ATOM     21  C   UNL     1      -1.201   0.807   0.409  0.00  0.00    +0.086 C 
ATOM     22  C   UNL     1       0.002  -0.004   0.002  0.00  0.00    +0.134 C 
ATOM     23  O   UNL     1       0.968  -0.056   0.725  0.00  0.00    -0.297 OA
ENDBRANCH   1  22
BRANCH  15  24
ATOM     24  O   UNL     1      -2.164  -9.690   3.450  0.00  0.00    -0.384 OA
BRANCH  24  25
ATOM     25  C   UNL     1      -2.264 -11.023   3.955  0.00  0.00    +0.358 C 
BRANCH  25  26
ATOM     26  C   UNL     1      -3.420 -11.110   4.918  0.00  0.00    +0.254 C 
ATOM     27  O   UNL     1      -4.092 -10.128   5.149  0.00  0.00    -0.272 OA
ATOM     28  N   UNL     1      -3.707 -12.280   5.523  0.00  0.00    -0.308 N 
ATOM     29  H   UNL     1      -3.169 -13.066   5.338  0.00  0.00    +0.149 HD
BRANCH  28  30
ATOM     30  C   UNL     1      -4.830 -12.365   6.459  0.00  0.00    +0.139 C 
BRANCH  30  31
ATOM     31  C   UNL     1      -4.936 -13.771   6.992  0.00  0.00    -0.030 A 
ATOM     32  C   UNL     1      -5.712 -14.703   6.326  0.00  0.00    +0.006 A 
ATOM     33  C   UNL     1      -5.813 -15.991   6.808  0.00  0.00    +0.015 A 
ATOM     34  C   UNL     1      -5.129 -16.354   7.971  0.00  0.00    +0.063 A 
ATOM     35  C   UNL     1      -4.347 -15.408   8.637  0.00  0.00    +0.015 A 
ATOM     36  C   UNL     1      -4.251 -14.124   8.141  0.00  0.00    +0.006 A 
BRANCH  34  37
ATOM     37  C   UNL     1      -5.233 -17.730   8.493  0.00  0.00    +0.387 C 
ATOM     38  O   UNL     1      -5.918 -18.556   7.907  0.00  0.00    -0.241 OA
ATOM     39  O   UNL     1      -4.633 -18.045   9.511  0.00  0.00    -0.241 OA
ENDBRANCH  34  37
ENDBRANCH  30  31
ENDBRANCH  28  30
ENDBRANCH  25  26
ENDBRANCH  24  25
ENDBRANCH  15  24
TORSDOF 7
