REMARK  Name = ZINC19349675
REMARK  4 active torsions:
REMARK  status: ('A' for Active; 'I' for Inactive)
REMARK    1  A    between atoms: C_5  and  C_7
REMARK    2  A    between atoms: C_7  and  C_8
REMARK    3  A    between atoms: N_13  and  C_14
REMARK    4  A    between atoms: C_14  and  C_16
REMARK                            x       y       z     vdW  Elec       q    Type
REMARK                         _______ _______ _______ _____ _____    ______ ____
ROOT
ATOM      1  C   UNL     1       3.642   2.661  -0.034  0.00  0.00    +0.013 A 
ATOM      2  C   UNL     1       2.580   3.503  -0.001  0.00  0.00    +0.095 A 
ATOM      3  N   UNL     1       1.368   2.985   0.003  0.00  0.00    -0.342 N 
ATOM      4  C   UNL     1       1.182   1.679  -0.014  0.00  0.00    +0.163 A 
ATOM      5  S   UNL     1       2.811   1.079  -0.051  0.00  0.00    -0.057 S 
ATOM      6  N   UNL     1      -0.011   0.967  -0.009  0.00  0.00    -0.152 NA
ATOM      7  H   UNL     1       0.488   3.645   0.019  0.00  0.00    +0.167 HD
ENDROOT
BRANCH   6   8
ATOM      8  C   UNL     1      -1.187   1.624   0.017  0.00  0.00    +0.275 C 
ATOM      9  O   UNL     1      -1.206   2.835   0.130  0.00  0.00    -0.268 OA
BRANCH   8  10
ATOM     10  C   UNL     1      -2.449   0.876  -0.093  0.00  0.00    +0.103 A 
ATOM     11  C   UNL     1      -3.665   1.546  -0.189  0.00  0.00    +0.023 A 
ATOM     12  C   UNL     1      -4.847   0.807  -0.291  0.00  0.00    -0.027 A 
ATOM     13  C   UNL     1      -4.803  -0.551  -0.297  0.00  0.00    +0.022 A 
ATOM     14  N   UNL     1      -3.615  -1.207  -0.203  0.00  0.00    -0.325 N 
ATOM     15  H   UNL     1      -3.593  -2.307  -0.204  0.00  0.00    +0.169 HD
ATOM     16  C   UNL     1      -2.450  -0.543  -0.108  0.00  0.00    +0.261 A 
ATOM     17  O   UNL     1      -1.401  -1.157  -0.030  0.00  0.00    -0.267 OA
ATOM     18  C   UNL     1      -6.205  -1.114  -0.416  0.00  0.00    +0.054 C 
ATOM     19  C   UNL     1      -7.069   0.061  -0.920  0.00  0.00    +0.011 C 
ATOM     20  C   UNL     1      -6.280   1.284  -0.407  0.00  0.00    +0.037 C 
ENDBRANCH   8  10
ENDBRANCH   6   8
BRANCH   1  21
ATOM     21  C   UNL     1       5.116   2.973  -0.050  0.00  0.00    +0.080 C 
BRANCH  21  26
ATOM     22  C   UNL     1       6.770   2.042   3.214  0.00  0.00    +0.000 A 
ATOM     23  C   UNL     1       6.572   3.188   3.961  0.00  0.00    +0.001 A 
ATOM     24  C   UNL     1       5.903   4.265   3.411  0.00  0.00    +0.020 A 
ATOM     25  C   UNL     1       5.436   4.198   2.110  0.00  0.00    +0.044 A 
ATOM     26  C   UNL     1       5.630   3.049   1.365  0.00  0.00    -0.024 A 
ATOM     27  C   UNL     1       6.300   1.972   1.916  0.00  0.00    +0.005 A 
ATOM     28 CL   UNL     1       4.602   5.553   1.416  0.00  0.00    -0.083 Cl
ENDBRANCH  21  26
ENDBRANCH   1  21
TORSDOF 4
