REMARK  Name = ZINC36576487
REMARK  9 active torsions:
REMARK  status: ('A' for Active; 'I' for Inactive)
REMARK    1  A    between atoms: C_1  and  O_2
REMARK    2  A    between atoms: O_2  and  C_3
REMARK    3  A    between atoms: C_3  and  C_5
REMARK    4  A    between atoms: C_5  and  C_6
REMARK    5  A    between atoms: C_6  and  C_8
REMARK    6  A    between atoms: C_6  and  N_12
REMARK    7  A    between atoms: C_8  and  O_10
REMARK    8  A    between atoms: O_10  and  C_11
REMARK    9  A    between atoms: C_24  and  C_26
REMARK                            x       y       z     vdW  Elec       q    Type
REMARK                         _______ _______ _______ _____ _____    ______ ____
ROOT
ATOM      1  N   UNL     1      -5.681  -2.137  -0.010  0.00  0.00    -0.286 N 
ATOM      2  C   UNL     1      -4.838  -2.018  -1.055  0.00  0.00    +0.304 C 
ATOM      3  O   UNL     1      -3.640  -2.138  -0.886  0.00  0.00    -0.253 OA
ATOM      4  N   UNL     1      -5.323  -1.765  -2.287  0.00  0.00    -0.273 N 
ATOM      5  C   UNL     1      -4.434  -1.749  -3.458  0.00  0.00    +0.116 C 
ATOM      6  C   UNL     1      -4.408  -0.334  -4.050  0.00  0.00    +0.074 C 
ATOM      7  C   UNL     1      -5.819   0.188  -4.120  0.00  0.00    +0.040 A 
ATOM      8  C   UNL     1      -6.864  -0.319  -3.431  0.00  0.00    +0.062 A 
ATOM      9  N   UNL     1      -7.950   0.395  -3.738  0.00  0.00    -0.348 N 
ATOM     10  C   UNL     1      -7.621   1.326  -4.595  0.00  0.00    +0.171 A 
ATOM     11  N   UNL     1      -6.298   1.227  -4.859  0.00  0.00    -0.349 N 
ATOM     12  H   UNL     1      -5.786   1.790  -5.461  0.00  0.00    +0.166 HD
ATOM     13  C   UNL     1      -6.759  -1.504  -2.494  0.00  0.00    +0.157 C 
ATOM     14  H   UNL     1      -6.629  -1.971  -0.131  0.00  0.00    +0.151 HD
ATOM     15  H   UNL     1      -8.840   0.247  -3.382  0.00  0.00    +0.167 HD
ENDROOT
BRANCH  13  16
ATOM     16  C   UNL     1      -7.416  -2.711  -3.111  0.00  0.00    -0.003 A 
ATOM     17  C   UNL     1      -7.010  -3.159  -4.354  0.00  0.00    +0.009 A 
ATOM     18  C   UNL     1      -7.612  -4.266  -4.921  0.00  0.00    +0.020 A 
ATOM     19  C   UNL     1      -8.622  -4.927  -4.244  0.00  0.00    +0.042 A 
ATOM     20  C   UNL     1      -9.029  -4.479  -3.001  0.00  0.00    +0.040 A 
ATOM     21  C   UNL     1      -8.422  -3.374  -2.432  0.00  0.00    +0.048 A 
ATOM     22 CL   UNL     1      -8.928  -2.815  -0.868  0.00  0.00    -0.083 Cl
ATOM     23 CL   UNL     1      -9.379  -6.317  -4.957  0.00  0.00    -0.083 Cl
ENDBRANCH  13  16
BRANCH   1  24
ATOM     24  C   UNL     1      -5.166  -2.518   1.307  0.00  0.00    +0.194 C 
BRANCH  24  25
ATOM     25  C   UNL     1      -4.675  -1.290   2.029  0.00  0.00    +0.328 C 
ATOM     26  O   UNL     1      -4.749  -0.207   1.498  0.00  0.00    -0.249 OA
BRANCH  25  27
ATOM     27  O   UNL     1      -4.157  -1.399   3.262  0.00  0.00    -0.467 OA
ATOM     28  C   UNL     1      -3.712  -0.193   3.888  0.00  0.00    +0.280 C 
ENDBRANCH  25  27
ENDBRANCH  24  25
BRANCH  24  29
ATOM     29  C   UNL     1      -6.282  -3.177   2.120  0.00  0.00    +0.154 C 
BRANCH  29  30
ATOM     30  C   UNL     1      -6.688  -4.470   1.462  0.00  0.00    +0.309 C 
ATOM     31  O   UNL     1      -6.141  -4.828   0.446  0.00  0.00    -0.251 OA
BRANCH  30  33
ATOM     32  C   UNL     1      -7.992  -6.437   1.326  0.00  0.00    +0.280 C 
ATOM     33  O   UNL     1      -7.658  -5.223   2.004  0.00  0.00    -0.468 OA
ENDBRANCH  30  33
ENDBRANCH  29  30
ENDBRANCH  24  29
ENDBRANCH   1  24
TORSDOF 7
