REMARK  Name = ZINC15868945
REMARK  10 active torsions:
REMARK  status: ('A' for Active; 'I' for Inactive)
REMARK    1  A    between atoms: C_1  and  C_2
REMARK    2  A    between atoms: C_2  and  N_3
REMARK    3  A    between atoms: C_7  and  C_9
REMARK    4  A    between atoms: C_9  and  N_10
REMARK    5  A    between atoms: N_10  and  C_11
REMARK    6  A    between atoms: N_10  and  S_22
REMARK    7  A    between atoms: C_11  and  C_12
REMARK    8  A    between atoms: C_12  and  S_13
REMARK    9  A    between atoms: S_13  and  N_16
REMARK   10  A    between atoms: S_22  and  C_25
REMARK                            x       y       z     vdW  Elec       q    Type
REMARK                         _______ _______ _______ _____ _____    ______ ____
ROOT
ATOM      1  N   UNL     1      -1.558  -2.032  -2.519  0.00  0.00    -0.177 NA
ENDROOT
BRANCH   1   2
ATOM      2  S   UNL     1      -2.439  -0.734  -3.049  0.00  0.00    +0.061 S 
ATOM      3  O   UNL     1      -2.404  -0.772  -4.469  0.00  0.00    -0.153 OA
ATOM      4  O   UNL     1      -3.657  -0.743  -2.317  0.00  0.00    -0.153 OA
BRANCH   2   5
ATOM      5  C   UNL     1      -1.570   0.720  -2.563  0.00  0.00    +0.106 A 
ATOM      6  C   UNL     1      -1.865   1.335  -1.361  0.00  0.00    +0.029 A 
ATOM      7  C   UNL     1      -1.182   2.474  -0.988  0.00  0.00    +0.006 A 
ATOM      8  C   UNL     1      -0.199   3.008  -1.812  0.00  0.00    -0.044 A 
ATOM      9  C   UNL     1       0.099   2.393  -3.006  0.00  0.00    -0.042 A 
ATOM     10  C   UNL     1      -0.589   1.244  -3.378  0.00  0.00    +0.032 A 
ATOM     11  C   UNL     1       1.163   2.907  -3.940  0.00  0.00    +0.035 C 
ATOM     12  C   UNL     1       1.510   4.357  -3.613  0.00  0.00    +0.005 C 
ATOM     13  C   UNL     1       1.808   4.457  -2.113  0.00  0.00    +0.005 C 
ATOM     14  C   UNL     1       0.502   4.258  -1.347  0.00  0.00    +0.035 C 
ENDBRANCH   2   5
ENDBRANCH   1   2
BRANCH   1  15
ATOM     15  C   UNL     1      -1.911  -2.691  -1.259  0.00  0.00    +0.094 C 
BRANCH  15  20
ATOM     16  N   UNL     1      -0.378  -1.140  -0.121  0.00  0.00    +0.382 N 
ATOM     17  C   UNL     1      -0.539  -0.759   1.298  0.00  0.00    -0.078 C 
ATOM     18  C   UNL     1      -1.575  -1.763   1.863  0.00  0.00    -0.020 C 
ATOM     19  C   UNL     1      -1.184  -3.067   1.120  0.00  0.00    -0.016 C 
ATOM     20  C   UNL     1      -0.750  -2.559  -0.271  0.00  0.00    -0.053 C 
ATOM     21  H   UNL     1      -0.981  -0.569  -0.695  0.00  0.00    -0.081 HD
BRANCH  16  23
ATOM     22  C   UNL     1       1.365   0.540  -0.487  0.00  0.00    -0.017 C 
ATOM     23  C   UNL     1       1.020  -0.950  -0.529  0.00  0.00    -0.082 C 
ENDBRANCH  16  23
ENDBRANCH  15  20
ENDBRANCH   1  15
BRANCH   1  24
ATOM     24  C   UNL     1      -0.426  -2.521  -3.309  0.00  0.00    +0.133 C 
BRANCH  24  25
ATOM     25  C   UNL     1      -0.890  -3.668  -4.209  0.00  0.00    +0.202 C 
BRANCH  25  26
ATOM     26  S   UNL     1       0.512  -4.273  -5.188  0.00  0.00    +0.033 S 
ATOM     27  O   UNL     1       0.919  -3.285  -6.124  0.00  0.00    -0.158 OA
ATOM     28  O   UNL     1       1.464  -4.904  -4.342  0.00  0.00    -0.158 OA
BRANCH  26  29
ATOM     29  N   UNL     1      -0.110  -5.499  -6.111  0.00  0.00    -0.185 NA
ATOM     30  C   UNL     1      -0.122  -6.885  -5.619  0.00  0.00    +0.090 C 
ATOM     31  C   UNL     1      -1.537  -7.449  -5.788  0.00  0.00    -0.065 C 
ATOM     32  N   UNL     1      -1.959  -7.298  -7.187  0.00  0.00    +0.381 N 
ATOM     33  C   UNL     1      -2.057  -5.874  -7.529  0.00  0.00    -0.065 C 
ATOM     34  C   UNL     1      -0.673  -5.231  -7.443  0.00  0.00    +0.090 C 
ATOM     35  H   UNL     1      -1.283  -7.742  -7.790  0.00  0.00    -0.086 HD
ATOM     36  H   UNL     1      -2.858  -7.737  -7.314  0.00  0.00    -0.086 HD
ENDBRANCH  26  29
ENDBRANCH  25  26
ENDBRANCH  24  25
ENDBRANCH   1  24
TORSDOF 9
