REMARK  Name = ZINC12594974
REMARK  11 active torsions:
REMARK  status: ('A' for Active; 'I' for Inactive)
REMARK    1  A    between atoms: C_1  and  C_2
REMARK    2  A    between atoms: C_2  and  O_3
REMARK    3  A    between atoms: O_3  and  C_4
REMARK    4  A    between atoms: C_4  and  C_6
REMARK    5  A    between atoms: C_7  and  N_17
REMARK    6  A    between atoms: C_9  and  C_11
REMARK    7  A    between atoms: C_18  and  C_20
REMARK    8  A    between atoms: C_20  and  N_53
REMARK    9  A    between atoms: C_21  and  N_53
REMARK   10  A    between atoms: C_22  and  C_23
REMARK   11  A    between atoms: C_22  and  N_53
REMARK                            x       y       z     vdW  Elec       q    Type
REMARK                         _______ _______ _______ _____ _____    ______ ____
ROOT
ATOM      1  C   UNL     1       1.344  -0.604  -0.236  0.00  0.00    +0.118 A 
ATOM      2  C   UNL     1       0.098   0.003  -0.076  0.00  0.00    +0.055 A 
ATOM      3  C   UNL     1      -1.014  -0.800  -0.011  0.00  0.00    +0.040 A 
ATOM      4  C   UNL     1      -0.852  -2.170  -0.102  0.00  0.00    +0.022 A 
ATOM      5  S   UNL     1       0.916  -2.336  -0.282  0.00  0.00    -0.080 S 
ENDROOT
BRANCH   4   6
ATOM      6  C   UNL     1      -1.882  -3.230  -0.059  0.00  0.00    -0.011 A 
ATOM      7  C   UNL     1      -3.228  -2.893   0.096  0.00  0.00    +0.009 A 
ATOM      8  C   UNL     1      -4.184  -3.887   0.130  0.00  0.00    +0.001 A 
ATOM      9  C   UNL     1      -3.811  -5.215   0.022  0.00  0.00    +0.000 A 
ATOM     10  C   UNL     1      -2.478  -5.555  -0.126  0.00  0.00    +0.001 A 
ATOM     11  C   UNL     1      -1.512  -4.572  -0.167  0.00  0.00    +0.009 A 
ENDBRANCH   4   6
BRANCH   2  12
ATOM     12  N   UNL     1      -0.017   1.391   0.010  0.00  0.00    -0.286 N 
ATOM     13  C   UNL     1      -1.077   1.943   0.633  0.00  0.00    +0.201 C 
ATOM     14  O   UNL     1      -1.879   1.236   1.206  0.00  0.00    -0.278 OA
ATOM     15  H   UNL     1       0.665   1.959  -0.383  0.00  0.00    +0.155 HD
BRANCH  13  16
ATOM     16  C   UNL     1      -1.266   3.438   0.618  0.00  0.00    +0.019 C 
BRANCH  16  18
ATOM     17  C   UNL     1      -2.341   3.465   2.787  0.00  0.00    -0.095 C 
ATOM     18  N   UNL     1      -2.506   3.769   1.350  0.00  0.00    +0.386 N 
ATOM     19  H   UNL     1      -3.276   3.202   0.976  0.00  0.00    -0.081 HD
BRANCH  18  20
ATOM     20  C   UNL     1      -2.832   5.199   1.170  0.00  0.00    -0.043 C 
BRANCH  20  21
ATOM     21  C   UNL     1      -4.205   5.460   1.736  0.00  0.00    -0.064 A 
ATOM     22  C   UNL     1      -5.321   5.323   0.932  0.00  0.00    +0.004 A 
ATOM     23  C   UNL     1      -6.580   5.557   1.451  0.00  0.00    +0.038 A 
ATOM     24  C   UNL     1      -6.723   5.939   2.774  0.00  0.00    +0.123 A 
ATOM     25  C   UNL     1      -5.604   6.082   3.577  0.00  0.00    +0.038 A 
ATOM     26  C   UNL     1      -4.346   5.842   3.057  0.00  0.00    +0.004 A 
ATOM     27  F   UNL     1      -7.953   6.173   3.281  0.00  0.00    -0.205 F 
ENDBRANCH  20  21
ENDBRANCH  18  20
ENDBRANCH  16  18
ENDBRANCH  13  16
ENDBRANCH   2  12
BRANCH   1  28
ATOM     28  C   UNL     1       2.619  -0.001  -0.334  0.00  0.00    +0.348 C 
ATOM     29  O   UNL     1       2.726   1.211  -0.280  0.00  0.00    -0.244 OA
BRANCH  28  30
ATOM     30  O   UNL     1       3.719  -0.769  -0.487  0.00  0.00    -0.461 OA
BRANCH  30  32
ATOM     31  C   UNL     1       6.096  -1.120  -0.748  0.00  0.00    +0.048 C 
ATOM     32  C   UNL     1       4.975  -0.093  -0.579  0.00  0.00    +0.229 C 
ENDBRANCH  30  32
ENDBRANCH  28  30
ENDBRANCH   1  28
TORSDOF 9
