REMARK  Name = ZINC32713938
REMARK  13 active torsions:
REMARK  status: ('A' for Active; 'I' for Inactive)
REMARK    1  A    between atoms: C_1  and  C_2
REMARK    2  A    between atoms: C_2  and  C_3
REMARK    3  A    between atoms: C_3  and  C_4
REMARK    4  A    between atoms: C_4  and  C_5
REMARK    5  A    between atoms: C_8  and  C_11
REMARK    6  A    between atoms: C_11  and  C_13
REMARK    7  A    between atoms: C_11  and  N_16
REMARK    8  A    between atoms: C_13  and  C_14
REMARK    9  A    between atoms: C_13  and  C_15
REMARK   10  A    between atoms: C_17  and  C_19
REMARK   11  A    between atoms: C_19  and  C_20
REMARK   12  A    between atoms: C_23  and  S_25
REMARK   13  A    between atoms: S_25  and  N_28
REMARK                            x       y       z     vdW  Elec       q    Type
REMARK                         _______ _______ _______ _____ _____    ______ ____
ROOT
ATOM      1  N   UNL     1      -2.948   4.392   4.659  0.00  0.00    -0.308 N 
ATOM      2  C   UNL     1      -3.956   4.964   5.347  0.00  0.00    +0.218 C 
ATOM      3  O   UNL     1      -4.673   4.284   6.051  0.00  0.00    -0.275 OA
ATOM      4  H   UNL     1      -2.298   5.008   4.021  0.00  0.00    +0.149 HD
ENDROOT
BRANCH   1   5
ATOM      5  C   UNL     1      -2.717   2.949   4.763  0.00  0.00    +0.106 C 
BRANCH   5   9
ATOM      6  C   UNL     1      -0.718   1.572   1.248  0.00  0.00    -0.047 A 
ATOM      7  C   UNL     1      -0.360   2.779   1.819  0.00  0.00    +0.004 A 
ATOM      8  C   UNL     1      -1.010   3.227   2.953  0.00  0.00    +0.006 A 
ATOM      9  C   UNL     1      -2.012   2.463   3.523  0.00  0.00    -0.027 A 
ATOM     10  C   UNL     1      -2.366   1.254   2.955  0.00  0.00    +0.006 A 
ATOM     11  C   UNL     1      -1.719   0.808   1.818  0.00  0.00    +0.004 A 
BRANCH   6  12
ATOM     12  C   UNL     1      -0.013   1.086   0.008  0.00  0.00    +0.035 C 
BRANCH  12  13
ATOM     13  C   UNL     1      -0.753   1.593  -1.232  0.00  0.00    +0.004 C 
BRANCH  13  15
ATOM     14  C   UNL     1      -0.777   1.606  -3.730  0.00  0.00    +0.004 C 
ATOM     15  C   UNL     1      -0.037   1.099  -2.490  0.00  0.00    -0.003 C 
ENDBRANCH  13  15
ENDBRANCH  12  13
ENDBRANCH   6  12
ENDBRANCH   5   9
BRANCH   5  16
ATOM     16  C   UNL     1      -1.851   2.658   5.990  0.00  0.00    +0.008 C 
ATOM     17  C   UNL     1      -2.567   3.151   7.249  0.00  0.00    +0.009 C 
ATOM     18  C   UNL     1      -1.609   1.151   6.098  0.00  0.00    +0.009 C 
ENDBRANCH   5  16
ENDBRANCH   1   5
BRANCH   2  19
ATOM     19  C   UNL     1      -4.194   6.448   5.240  0.00  0.00    +0.138 C 
BRANCH  19  20
ATOM     20  C   UNL     1      -5.371   6.832   6.099  0.00  0.00    +0.000 A 
ATOM     21  C   UNL     1      -5.391   7.211   7.401  0.00  0.00    +0.013 A 
ATOM     22  C   UNL     1      -6.602   7.521   7.990  0.00  0.00    +0.036 A 
ATOM     23  C   UNL     1      -7.734   7.436   7.250  0.00  0.00    +0.142 A 
ATOM     24  S   UNL     1      -7.101   6.912   5.665  0.00  0.00    -0.073 S 
BRANCH  23  25
ATOM     25  S   UNL     1      -9.399   7.765   7.726  0.00  0.00    +0.062 S 
ATOM     26  O   UNL     1     -10.228   7.027   6.839  0.00  0.00    -0.153 OA
ATOM     27  O   UNL     1      -9.457   7.603   9.136  0.00  0.00    -0.153 OA
BRANCH  25  28
ATOM     28  N   UNL     1      -9.688   9.367   7.421  0.00  0.00    -0.203 NA
ATOM     29  H   UNL     1     -10.721   9.614   7.706  0.00  0.00    +0.144 HD
ATOM     30  H   UNL     1      -9.545   9.567   6.349  0.00  0.00    +0.144 HD
ENDBRANCH  25  28
ENDBRANCH  23  25
ENDBRANCH  19  20
ENDBRANCH   2  19
TORSDOF 10
