REMARK  Name = ZINC63159503
REMARK  8 active torsions:
REMARK  status: ('A' for Active; 'I' for Inactive)
REMARK    1  A    between atoms: C_7  and  C_10
REMARK    2  A    between atoms: C_10  and  C_11
REMARK    3  A    between atoms: C_11  and  C_12
REMARK    4  A    between atoms: C_12  and  C_13
REMARK    5  A    between atoms: N_15  and  C_16
REMARK    6  A    between atoms: C_19  and  S_22
REMARK    7  A    between atoms: S_22  and  N_25
REMARK    8  A    between atoms: N_25  and  C_26
REMARK                            x       y       z     vdW  Elec       q    Type
REMARK                         _______ _______ _______ _____ _____    ______ ____
ROOT
ATOM      1  C   UNL     1      -1.652  -6.800  -4.443  0.00  0.00    +0.033 A 
ATOM      2  C   UNL     1      -0.925  -6.176  -5.449  0.00  0.00    +0.025 A 
ATOM      3  C   UNL     1      -1.036  -6.616  -6.753  0.00  0.00    +0.030 A 
ATOM      4  C   UNL     1      -1.869  -7.676  -7.058  0.00  0.00    +0.105 A 
ATOM      5  C   UNL     1      -2.594  -8.299  -6.059  0.00  0.00    +0.030 A 
ATOM      6  C   UNL     1      -2.484  -7.868  -4.752  0.00  0.00    +0.025 A 
ENDROOT
BRANCH   1   9
ATOM      7  C   UNL     1      -1.598  -7.242  -2.106  0.00  0.00    +0.217 C 
ATOM      8  O   UNL     1      -1.826  -8.411  -2.333  0.00  0.00    -0.275 OA
ATOM      9  N   UNL     1      -1.542  -6.356  -3.120  0.00  0.00    -0.285 N 
ATOM     10  H   UNL     1      -1.426  -5.411  -2.934  0.00  0.00    +0.155 HD
BRANCH   7  11
ATOM     11  C   UNL     1      -1.376  -6.779  -0.689  0.00  0.00    +0.096 C 
BRANCH  11  12
ATOM     12  C   UNL     1      -1.492  -7.973   0.261  0.00  0.00    +0.014 C 
BRANCH  12  13
ATOM     13  C   UNL     1      -1.266  -7.503   1.700  0.00  0.00    +0.033 C 
BRANCH  13  20
ATOM     14  C   UNL     1       1.856 -10.328   3.525  0.00  0.00    +0.001 A 
ATOM     15  C   UNL     1       1.306 -11.309   4.361  0.00  0.00    +0.002 A 
ATOM     16  C   UNL     1      -0.019 -11.403   4.600  0.00  0.00    +0.026 A 
ATOM     17  C   UNL     1      -0.926 -10.489   3.997  0.00  0.00    +0.043 A 
ATOM     18  N   UNL     1      -2.230 -10.376   4.070  0.00  0.00    -0.380 N 
ATOM     19  C   UNL     1      -2.649  -9.244   3.235  0.00  0.00    +0.144 C 
ATOM     20  C   UNL     1      -1.381  -8.679   2.636  0.00  0.00    -0.042 C 
ATOM     21  C   UNL     1      -0.370  -9.443   3.109  0.00  0.00    -0.001 A 
ATOM     22  C   UNL     1       1.083  -9.409   2.902  0.00  0.00    +0.010 A 
ATOM     23  H   UNL     1      -2.820 -10.945   4.588  0.00  0.00    +0.160 HD
ENDBRANCH  13  20
ENDBRANCH  12  13
ENDBRANCH  11  12
ENDBRANCH   7  11
ENDBRANCH   1   9
BRANCH   4  24
ATOM     24  S   UNL     1      -2.007  -8.234  -8.724  0.00  0.00    +0.059 S 
ATOM     25  O   UNL     1      -3.265  -8.887  -8.830  0.00  0.00    -0.153 OA
ATOM     26  O   UNL     1      -1.646  -7.137  -9.551  0.00  0.00    -0.153 OA
BRANCH  24  27
ATOM     27  N   UNL     1      -0.850  -9.398  -8.948  0.00  0.00    -0.185 NA
ATOM     28  H   UNL     1      -0.122  -9.244  -9.570  0.00  0.00    +0.148 HD
BRANCH  27  29
ATOM     29  C   UNL     1      -0.926 -10.659  -8.206  0.00  0.00    +0.099 C 
ATOM     30  C   UNL     1      -1.623 -11.720  -9.073  0.00  0.00    +0.044 C 
ATOM     31  C   UNL     1      -1.412 -13.108  -8.403  0.00  0.00    +0.167 C 
ATOM     32  S   UNL     1       0.345 -12.961  -7.869  0.00  0.00    -0.029 S 
ATOM     33  O   UNL     1       1.184 -13.484  -8.890  0.00  0.00    -0.174 OA
ATOM     34  O   UNL     1       0.468 -13.454  -6.542  0.00  0.00    -0.174 OA
ATOM     35  C   UNL     1       0.504 -11.129  -7.846  0.00  0.00    +0.186 C 
ENDBRANCH  27  29
ENDBRANCH  24  27
ENDBRANCH   4  24
TORSDOF 8
