REMARK  Name = ZINC00709625
REMARK  10 active torsions:
REMARK  status: ('A' for Active; 'I' for Inactive)
REMARK    1  A    between atoms: C_1  and  C_2
REMARK    2  A    between atoms: C_3  and  C_34
REMARK    3  A    between atoms: C_4  and  C_25
REMARK    4  A    between atoms: C_10  and  C_15
REMARK    5  A    between atoms: C_18  and  O_23
REMARK    6  A    between atoms: C_19  and  O_21
REMARK    7  A    between atoms: O_21  and  C_22
REMARK    8  A    between atoms: O_23  and  C_24
REMARK    9  A    between atoms: C_34  and  O_36
REMARK   10  A    between atoms: O_36  and  C_37
REMARK                            x       y       z     vdW  Elec       q    Type
REMARK                         _______ _______ _______ _____ _____    ______ ____
ROOT
ATOM      1  C   UNL     1       4.978   2.682   2.428  0.00  0.00    +0.061 C 
ATOM      2  C   UNL     1       4.259   2.306   1.158  0.00  0.00    +0.016 C 
ATOM      3  C   UNL     1       3.418   1.257   1.152  0.00  0.00    +0.065 C 
ATOM      4  C   UNL     1       2.681   0.857  -0.092  0.00  0.00    +0.092 C 
ATOM      5  C   UNL     1       3.319   1.462  -1.317  0.00  0.00    +0.024 C 
ATOM      6  C   UNL     1       4.164   2.509  -1.209  0.00  0.00    +0.016 C 
ATOM      7  N   UNL     1       4.466   3.034   0.019  0.00  0.00    -0.321 N 
ATOM      8  C   UNL     1       4.791   3.131  -2.432  0.00  0.00    +0.059 C 
ATOM      9  C   UNL     1       4.985   2.062  -3.510  0.00  0.00    +0.032 C 
ATOM     10  C   UNL     1       3.620   1.447  -3.836  0.00  0.00    +0.088 C 
ATOM     11  C   UNL     1       3.013   0.903  -2.571  0.00  0.00    +0.162 C 
ATOM     12  O   UNL     1       2.244  -0.035  -2.634  0.00  0.00    -0.292 OA
ATOM     13  H   UNL     1       4.880   4.051   0.084  0.00  0.00    +0.152 HD
ENDROOT
BRANCH   4  14
ATOM     14  C   UNL     1       1.253   1.329   0.006  0.00  0.00    -0.032 A 
ATOM     15  C   UNL     1       0.980   2.678   0.144  0.00  0.00    +0.008 A 
ATOM     16  C   UNL     1      -0.328   3.116   0.234  0.00  0.00    +0.050 A 
ATOM     17  C   UNL     1      -1.369   2.204   0.187  0.00  0.00    +0.166 A 
ATOM     18  C   UNL     1      -1.095   0.846   0.042  0.00  0.00    +0.167 A 
ATOM     19  C   UNL     1       0.219   0.413  -0.042  0.00  0.00    +0.054 A 
ATOM     20  O   UNL     1      -2.276   0.161   0.028  0.00  0.00    -0.453 OA
ATOM     21  C   UNL     1      -3.256   1.070   0.565  0.00  0.00    +0.466 C 
ATOM     22  O   UNL     1      -2.722   2.371   0.254  0.00  0.00    -0.453 OA
ENDBRANCH   4  14
BRANCH   9  23
ATOM     23  C   UNL     1       5.565   2.693  -4.749  0.00  0.00    -0.040 A 
ATOM     24  C   UNL     1       4.872   3.695  -5.402  0.00  0.00    +0.008 A 
ATOM     25  C   UNL     1       5.403   4.280  -6.537  0.00  0.00    +0.049 A 
ATOM     26  C   UNL     1       6.627   3.855  -7.028  0.00  0.00    +0.161 A 
ATOM     27  C   UNL     1       7.322   2.843  -6.374  0.00  0.00    +0.162 A 
ATOM     28  C   UNL     1       6.787   2.264  -5.234  0.00  0.00    +0.053 A 
BRANCH  27  29
ATOM     29  O   UNL     1       8.524   2.423  -6.852  0.00  0.00    -0.491 OA
ATOM     30  C   UNL     1       9.181   1.380  -6.128  0.00  0.00    +0.277 C 
ENDBRANCH  27  29
BRANCH  26  31
ATOM     31  O   UNL     1       7.147   4.426  -8.147  0.00  0.00    -0.491 OA
ATOM     32  C   UNL     1       6.378   5.460  -8.766  0.00  0.00    +0.277 C 
ENDBRANCH  26  31
ENDBRANCH   9  23
BRANCH   3  33
ATOM     33  C   UNL     1       3.226   0.515   2.341  0.00  0.00    +0.337 C 
ATOM     34  O   UNL     1       3.908   0.750   3.321  0.00  0.00    -0.245 OA
BRANCH  33  35
ATOM     35  O   UNL     1       2.287  -0.453   2.388  0.00  0.00    -0.465 OA
ATOM     36  C   UNL     1       2.148  -1.162   3.621  0.00  0.00    +0.280 C 
ENDBRANCH  33  35
ENDBRANCH   3  33
TORSDOF 6
