REMARK  Name = ZINC14466082
REMARK  6 active torsions:
REMARK  status: ('A' for Active; 'I' for Inactive)
REMARK    1  A    between atoms: C_1  and  C_2
REMARK    2  A    between atoms: C_4  and  C_35
REMARK    3  A    between atoms: C_6  and  N_8
REMARK    4  A    between atoms: N_8  and  S_9
REMARK    5  A    between atoms: S_9  and  C_12
REMARK    6  A    between atoms: C_25  and  C_28
REMARK                            x       y       z     vdW  Elec       q    Type
REMARK                         _______ _______ _______ _____ _____    ______ ____
ROOT
ATOM      1  C   UNL     1      -1.268   1.454  -0.071  0.00  0.00    +0.109 A 
ATOM      2  C   UNL     1      -0.078   0.750  -0.062  0.00  0.00    +0.030 A 
ATOM      3  C   UNL     1       1.117   1.426  -0.210  0.00  0.00    +0.025 A 
ATOM      4  C   UNL     1       1.121   2.808  -0.359  0.00  0.00    +0.031 A 
ATOM      5  C   UNL     1      -0.070   3.517  -0.364  0.00  0.00    -0.018 A 
ATOM      6  C   UNL     1      -1.265   2.826  -0.215  0.00  0.00    +0.034 A 
ATOM      7  C   UNL     1      -0.116   5.003  -0.527  0.00  0.00    +0.049 C 
ATOM      8  C   UNL     1      -0.415   5.693   0.783  0.00  0.00    -0.023 C 
ATOM      9  C   UNL     1       0.252   6.818   0.867  0.00  0.00    -0.030 C 
ATOM     10  C   UNL     1       1.084   7.035  -0.382  0.00  0.00    +0.033 C 
ATOM     11  C   UNL     1       1.234   5.601  -0.970  0.00  0.00    +0.029 C 
ATOM     12  C   UNL     1       2.379   4.918  -0.218  0.00  0.00    +0.106 C 
ATOM     13  N   UNL     1       2.340   3.479  -0.500  0.00  0.00    -0.336 N 
ATOM     14  H   UNL     1       3.139   3.005  -0.778  0.00  0.00    +0.147 HD
ENDROOT
BRANCH  12  15
ATOM     15  C   UNL     1       3.696   5.487  -0.680  0.00  0.00    -0.009 A 
ATOM     16  C   UNL     1       3.764   6.206  -1.858  0.00  0.00    +0.007 A 
ATOM     17  C   UNL     1       4.970   6.733  -2.279  0.00  0.00    +0.000 A 
ATOM     18  C   UNL     1       6.113   6.530  -1.528  0.00  0.00    +0.001 A 
ATOM     19  C   UNL     1       6.048   5.806  -0.353  0.00  0.00    +0.020 A 
ATOM     20  C   UNL     1       4.839   5.284   0.072  0.00  0.00    +0.046 A 
ATOM     21 CL   UNL     1       4.757   4.374   1.548  0.00  0.00    -0.083 Cl
ENDBRANCH  12  15
BRANCH   1  22
ATOM     22  S   UNL     1      -2.796   0.595   0.112  0.00  0.00    +0.072 S 
ATOM     23  O   UNL     1      -3.775   1.355  -0.584  0.00  0.00    -0.150 OA
ATOM     24  O   UNL     1      -2.534  -0.768  -0.191  0.00  0.00    -0.150 OA
BRANCH  22  25
ATOM     25  N   UNL     1      -3.203   0.654   1.716  0.00  0.00    -0.216 N 
ATOM     26  H   UNL     1      -4.021   1.094   1.993  0.00  0.00    +0.174 HD
BRANCH  25  32
ATOM     27  C   UNL     1      -0.476  -3.163   3.181  0.00  0.00    +0.044 C 
ATOM     28  C   UNL     1      -1.030  -1.780   3.407  0.00  0.00    -0.048 A 
ATOM     29  C   UNL     1      -0.711  -1.088   4.561  0.00  0.00    +0.006 A 
ATOM     30  C   UNL     1      -1.217   0.181   4.772  0.00  0.00    -0.048 A 
ATOM     31  C   UNL     1      -2.044   0.762   3.830  0.00  0.00    +0.028 A 
ATOM     32  C   UNL     1      -2.366   0.070   2.670  0.00  0.00    +0.049 A 
ATOM     33  C   UNL     1      -1.860  -1.207   2.463  0.00  0.00    +0.028 A 
ATOM     34  C   UNL     1      -0.867   0.931   6.031  0.00  0.00    +0.044 C 
ENDBRANCH  25  32
ENDBRANCH  22  25
ENDBRANCH   1  22
TORSDOF 4
