REMARK  Name = ZINC08775042
REMARK  6 active torsions:
REMARK  status: ('A' for Active; 'I' for Inactive)
REMARK    1  A    between atoms: C_1  and  N_2
REMARK    2  A    between atoms: N_7  and  C_10
REMARK    3  A    between atoms: N_11  and  C_28
REMARK    4  A    between atoms: C_17  and  C_20
REMARK    5  A    between atoms: C_17  and  N_68
REMARK    6  A    between atoms: C_28  and  C_29
REMARK                            x       y       z     vdW  Elec       q    Type
REMARK                         _______ _______ _______ _____ _____    ______ ____
ROOT
ATOM      1  C   UNL     1       8.933  -2.944   6.022  0.00  0.00    +0.155 C 
ATOM      2  N   UNL     1       8.122  -2.169   6.964  0.00  0.00    -0.280 N 
ATOM      3  C   UNL     1       7.024  -1.457   6.509  0.00  0.00    +0.170 A 
ATOM      4  C   UNL     1       6.270  -0.730   7.425  0.00  0.00    +0.153 A 
ATOM      5  C   UNL     1       6.642  -0.739   8.781  0.00  0.00    +0.282 A 
ATOM      6  O   UNL     1       5.996  -0.109   9.600  0.00  0.00    -0.265 OA
ATOM      7  N   UNL     1       7.722  -1.450   9.165  0.00  0.00    -0.262 N 
ATOM      8  C   UNL     1       8.443  -2.149   8.272  0.00  0.00    +0.333 A 
ATOM      9  O   UNL     1       9.411  -2.780   8.654  0.00  0.00    -0.246 OA
ATOM     10  C   UNL     1       8.113  -1.463  10.576  0.00  0.00    +0.157 C 
ATOM     11  N   UNL     1       5.250  -0.127   6.700  0.00  0.00    -0.302 N 
ATOM     12  C   UNL     1       5.417  -0.500   5.404  0.00  0.00    +0.201 A 
ATOM     13  N   UNL     1       6.467  -1.290   5.308  0.00  0.00    -0.196 NA
ATOM     14  N   UNL     1       4.612  -0.117   4.356  0.00  0.00    -0.301 N 
ATOM     15  C   UNL     1       5.293  -0.314   3.070  0.00  0.00    +0.107 C 
ATOM     16  C   UNL     1       4.430   0.255   1.942  0.00  0.00    +0.016 C 
ATOM     17  C   UNL     1       3.073  -0.454   1.937  0.00  0.00    +0.015 C 
ATOM     18  C   UNL     1       2.405  -0.275   3.303  0.00  0.00    +0.016 C 
ATOM     19  C   UNL     1       3.328  -0.828   4.392  0.00  0.00    +0.107 C 
ENDROOT
BRANCH  17  25
ATOM     20  C   UNL     1       0.946  -0.596   0.789  0.00  0.00    -0.077 C 
ATOM     21  C   UNL     1       0.146  -0.057  -0.399  0.00  0.00    -0.019 C 
ATOM     22  C   UNL     1      -0.113   1.438  -0.198  0.00  0.00    -0.004 C 
ATOM     23  C   UNL     1       1.227   2.164  -0.044  0.00  0.00    -0.019 C 
ATOM     24  C   UNL     1       1.996   1.560   1.134  0.00  0.00    -0.077 C 
ATOM     25  N   UNL     1       2.234   0.126   0.867  0.00  0.00    +0.389 N 
ATOM     26  H   UNL     1       2.724   0.031  -0.030  0.00  0.00    -0.080 HD
ENDBRANCH  17  25
BRANCH  17  27
ATOM     27  C   UNL     1       3.273  -1.922   1.662  0.00  0.00    +0.200 C 
ATOM     28  O   UNL     1       3.270  -2.716   2.579  0.00  0.00    -0.278 OA
ATOM     29  N   UNL     1       3.454  -2.352   0.398  0.00  0.00    -0.330 N 
ATOM     30  H   UNL     1       3.528  -1.712  -0.327  0.00  0.00    +0.145 HD
ATOM     31  H   UNL     1       3.510  -3.303   0.212  0.00  0.00    +0.145 HD
ENDBRANCH  17  27
BRANCH  11  32
ATOM     32  C   UNL     1       4.197   0.742   7.231  0.00  0.00    +0.160 C 
BRANCH  32  33
ATOM     33  C   UNL     1       4.609   2.183   7.074  0.00  0.00    -0.028 A 
ATOM     34  C   UNL     1       5.398   2.785   8.037  0.00  0.00    +0.007 A 
ATOM     35  C   UNL     1       5.781   4.105   7.891  0.00  0.00    +0.020 A 
ATOM     36  C   UNL     1       5.365   4.827   6.787  0.00  0.00    +0.041 A 
ATOM     37  C   UNL     1       4.571   4.226   5.827  0.00  0.00    +0.020 A 
ATOM     38  C   UNL     1       4.194   2.905   5.971  0.00  0.00    +0.007 A 
ATOM     39 CL   UNL     1       5.841   6.487   6.606  0.00  0.00    -0.084 Cl
ENDBRANCH  32  33
ENDBRANCH  11  32
TORSDOF 4
