REMARK  Name = ZINC27755458
REMARK  8 active torsions:
REMARK  status: ('A' for Active; 'I' for Inactive)
REMARK    1  A    between atoms: C_1  and  C_2
REMARK    2  A    between atoms: C_2  and  C_4
REMARK    3  A    between atoms: C_7  and  C_10
REMARK    4  A    between atoms: C_13  and  C_15
REMARK    5  A    between atoms: C_17  and  C_29
REMARK    6  A    between atoms: C_19  and  C_24
REMARK    7  A    between atoms: C_19  and  O_28
REMARK    8  A    between atoms: C_29  and  C_31
REMARK                            x       y       z     vdW  Elec       q    Type
REMARK                         _______ _______ _______ _____ _____    ______ ____
ROOT
ATOM      1  C   UNL     1       0.014  -5.868  -6.987  0.00  0.00    +0.156 C 
ATOM      2  C   UNL     1       1.444  -6.418  -6.964  0.00  0.00    +0.147 C 
ATOM      3  C   UNL     1       1.414  -7.873  -7.446  0.00  0.00    +0.243 C 
ATOM      4  N   UNL     1       0.475  -8.634  -6.619  0.00  0.00    -0.264 N 
ATOM      5  C   UNL     1      -0.586  -8.046  -6.048  0.00  0.00    +0.302 C 
ATOM      6  O   UNL     1      -1.340  -8.725  -5.379  0.00  0.00    -0.253 OA
ATOM      7  N   UNL     1      -0.848  -6.737  -6.185  0.00  0.00    -0.289 N 
ATOM      8  H   UNL     1       0.634  -9.710  -6.456  0.00  0.00    +0.153 HD
ATOM      9  H   UNL     1      -1.732  -6.321  -5.680  0.00  0.00    +0.151 HD
ENDROOT
BRANCH   1  13
ATOM     10  C   UNL     1      -0.006  -2.831  -4.956  0.00  0.00    +0.135 A 
ATOM     11  C   UNL     1      -0.030  -2.269  -6.197  0.00  0.00    +0.050 A 
ATOM     12  C   UNL     1      -0.020  -3.330  -7.122  0.00  0.00    +0.047 A 
ATOM     13  C   UNL     1       0.002  -4.476  -6.410  0.00  0.00    +0.127 A 
ATOM     14  O   UNL     1       0.010  -4.170  -5.103  0.00  0.00    -0.458 OA
BRANCH  10  18
ATOM     15  C   UNL     1      -0.000  -0.731  -1.273  0.00  0.00    +0.017 A 
ATOM     16  C   UNL     1      -0.027  -0.025  -2.483  0.00  0.00    +0.012 A 
ATOM     17  C   UNL     1      -0.023  -0.702  -3.668  0.00  0.00    +0.012 A 
ATOM     18  C   UNL     1      -0.004  -2.101  -3.675  0.00  0.00    +0.017 A 
ATOM     19  C   UNL     1       0.017  -2.807  -2.468  0.00  0.00    +0.012 A 
ATOM     20  C   UNL     1       0.019  -2.132  -1.282  0.00  0.00    +0.012 A 
BRANCH  15  22
ATOM     21  C   UNL     1      -0.018   1.503   0.010  0.00  0.00    +0.091 C 
ATOM     22  C   UNL     1       0.002  -0.004   0.002  0.00  0.00    +0.160 C 
ATOM     23  O   UNL     1       0.020  -0.616   1.049  0.00  0.00    -0.292 OA
ENDBRANCH  15  22
ENDBRANCH  10  18
ENDBRANCH   1  13
BRANCH   3  24
ATOM     24  C   UNL     1       2.813  -8.480  -7.325  0.00  0.00    +0.436 C 
ATOM     25  F   UNL     1       3.224  -8.441  -5.989  0.00  0.00    -0.166 F 
ATOM     26  F   UNL     1       2.784  -9.808  -7.765  0.00  0.00    -0.166 F 
ATOM     27  F   UNL     1       3.709  -7.748  -8.111  0.00  0.00    -0.166 F 
ENDBRANCH   3  24
BRANCH   3  28
ATOM     28  O   UNL     1       0.991  -7.915  -8.811  0.00  0.00    -0.364 OA
ATOM     29  H   UNL     1       0.909  -8.881  -9.331  0.00  0.00    +0.212 HD
ENDBRANCH   3  28
BRANCH   2  30
ATOM     30  C   UNL     1       1.986  -6.362  -5.559  0.00  0.00    +0.173 C 
ATOM     31  O   UNL     1       1.910  -7.336  -4.840  0.00  0.00    -0.292 OA
BRANCH  30  32
ATOM     32  C   UNL     1       2.607  -5.126  -5.060  0.00  0.00    +0.018 A 
ATOM     33  C   UNL     1       2.701  -4.003  -5.889  0.00  0.00    +0.014 A 
ATOM     34  C   UNL     1       3.278  -2.846  -5.413  0.00  0.00    +0.039 A 
ATOM     35  C   UNL     1       3.776  -2.797  -4.119  0.00  0.00    +0.123 A 
ATOM     36  C   UNL     1       3.691  -3.909  -3.295  0.00  0.00    +0.039 A 
ATOM     37  C   UNL     1       3.111  -5.070  -3.756  0.00  0.00    +0.014 A 
ATOM     38  F   UNL     1       4.346  -1.662  -3.661  0.00  0.00    -0.205 F 
ENDBRANCH  30  32
ENDBRANCH   2  30
TORSDOF 7
