REMARK  Name = ZINC32665027
REMARK  11 active torsions:
REMARK  status: ('A' for Active; 'I' for Inactive)
REMARK    1  A    between atoms: C_1  and  C_2
REMARK    2  A    between atoms: C_2  and  C_3
REMARK    3  A    between atoms: C_3  and  N_4
REMARK    4  A    between atoms: N_4  and  C_5
REMARK    5  A    between atoms: N_4  and  C_16
REMARK    6  A    between atoms: C_5  and  C_6
REMARK    7  A    between atoms: C_9  and  C_11
REMARK    8  A    between atoms: C_16  and  C_18
REMARK    9  A    between atoms: C_16  and  C_24
REMARK   10  A    between atoms: N_26  and  C_27
REMARK   11  A    between atoms: C_30  and  C_33
REMARK                            x       y       z     vdW  Elec       q    Type
REMARK                         _______ _______ _______ _____ _____    ______ ____
ROOT
ATOM      1  C   UNL     1      -2.651   3.430   1.280  0.00  0.00    +0.051 C 
ENDROOT
BRANCH   1   2
ATOM      2  C   UNL     1      -3.212   2.032   1.270  0.00  0.00    -0.052 A 
ATOM      3  C   UNL     1      -2.468   0.984   1.779  0.00  0.00    +0.002 A 
ATOM      4  C   UNL     1      -2.985  -0.298   1.773  0.00  0.00    +0.000 A 
ATOM      5  C   UNL     1      -4.242  -0.534   1.250  0.00  0.00    +0.000 A 
ATOM      6  C   UNL     1      -4.985   0.513   0.736  0.00  0.00    +0.000 A 
ATOM      7  C   UNL     1      -4.470   1.796   0.746  0.00  0.00    +0.002 A 
ENDBRANCH   1   2
BRANCH   1   8
ATOM      8  C   UNL     1      -2.824   4.031   2.652  0.00  0.00    +0.208 C 
ATOM      9  O   UNL     1      -1.942   3.921   3.478  0.00  0.00    -0.277 OA
ATOM     10  N   UNL     1      -3.959   4.689   2.961  0.00  0.00    -0.287 N 
ATOM     11  H   UNL     1      -4.788   4.724   2.239  0.00  0.00    +0.155 HD
BRANCH  10  12
ATOM     12  C   UNL     1      -4.081   5.329   4.199  0.00  0.00    +0.033 A 
ATOM     13  C   UNL     1      -3.498   4.773   5.330  0.00  0.00    +0.023 A 
ATOM     14  C   UNL     1      -3.617   5.409   6.550  0.00  0.00    +0.005 A 
ATOM     15  C   UNL     1      -4.325   6.593   6.648  0.00  0.00    -0.050 A 
ATOM     16  C   UNL     1      -4.911   7.147   5.524  0.00  0.00    +0.005 A 
ATOM     17  C   UNL     1      -4.791   6.518   4.301  0.00  0.00    +0.023 A 
ATOM     18  C   UNL     1      -4.457   7.282   7.982  0.00  0.00    +0.044 C 
ENDBRANCH  10  12
ENDBRANCH   1   8
BRANCH   1  19
ATOM     19  N   UNL     1      -1.222   3.387   0.942  0.00  0.00    +0.396 N 
ATOM     20  H   UNL     1      -0.717   2.757   1.689  0.00  0.00    -0.080 HD
BRANCH  19  21
ATOM     21  C   UNL     1      -0.625   4.728   1.004  0.00  0.00    -0.077 C 
BRANCH  21  23
ATOM     22  C   UNL     1      -0.738   7.054   0.099  0.00  0.00    +0.002 C 
ATOM     23  C   UNL     1      -1.339   5.650   0.014  0.00  0.00    -0.022 C 
ENDBRANCH  21  23
ENDBRANCH  19  21
BRANCH  19  24
ATOM     24  C   UNL     1      -1.012   2.777  -0.378  0.00  0.00    +0.022 C 
BRANCH  24  25
ATOM     25  C   UNL     1       0.459   2.525  -0.587  0.00  0.00    +0.202 A 
ATOM     26  N   UNL     1       1.106   1.439  -0.268  0.00  0.00    -0.114 NA
ATOM     27  N   UNL     1       2.345   1.565  -0.592  0.00  0.00    -0.104 NA
ATOM     28  C   UNL     1       2.533   2.748  -1.135  0.00  0.00    +0.284 A 
ATOM     29  O   UNL     1       1.340   3.378  -1.140  0.00  0.00    -0.420 OA
BRANCH  28  30
ATOM     30  C   UNL     1       3.805   3.284  -1.639  0.00  0.00    +0.191 A 
ATOM     31  C   UNL     1       5.006   2.640  -1.628  0.00  0.00    +0.055 A 
ATOM     32  C   UNL     1       5.943   3.518  -2.204  0.00  0.00    +0.042 A 
ATOM     33  C   UNL     1       5.278   4.644  -2.537  0.00  0.00    +0.196 A 
ATOM     34  O   UNL     1       3.987   4.497  -2.199  0.00  0.00    -0.458 OA
ENDBRANCH  28  30
ENDBRANCH  24  25
ENDBRANCH  19  24
ENDBRANCH   1  19
TORSDOF 9
