REMARK  Name = ZINC10076770
REMARK  7 active torsions:
REMARK  status: ('A' for Active; 'I' for Inactive)
REMARK    1  A    between atoms: C_3  and  S_8
REMARK    2  A    between atoms: S_8  and  N_11
REMARK    3  A    between atoms: N_11  and  C_12
REMARK    4  A    between atoms: N_11  and  C_26
REMARK    5  A    between atoms: C_12  and  C_13
REMARK    6  A    between atoms: N_15  and  C_16
REMARK    7  A    between atoms: C_16  and  C_17
REMARK                            x       y       z     vdW  Elec       q    Type
REMARK                         _______ _______ _______ _____ _____    ______ ____
ROOT
ATOM      1  N   UNL     1       9.670  -1.769   1.032  0.00  0.00    -0.165 NA
ENDROOT
BRANCH   1   2
ATOM      2  C   UNL     1      10.520  -0.580   1.130  0.00  0.00    +0.080 C 
ATOM      3  C   UNL     1       9.827   0.472   1.999  0.00  0.00    +0.020 C 
ATOM      4  C   UNL     1      10.714   1.714   2.101  0.00  0.00    +0.002 C 
ATOM      5  C   UNL     1      10.954   2.285   0.702  0.00  0.00    +0.000 C 
ATOM      6  C   UNL     1      11.647   1.234  -0.167  0.00  0.00    +0.002 C 
ATOM      7  C   UNL     1      10.759  -0.008  -0.269  0.00  0.00    +0.020 C 
ENDBRANCH   1   2
BRANCH   1   8
ATOM      8  S   UNL     1      10.228  -3.232   1.571  0.00  0.00    +0.062 S 
ATOM      9  O   UNL     1      11.236  -2.953   2.533  0.00  0.00    -0.153 OA
ATOM     10  O   UNL     1       9.083  -4.018   1.873  0.00  0.00    -0.153 OA
BRANCH   8  13
ATOM     11  C   UNL     1      13.014  -4.426  -1.067  0.00  0.00    +0.040 A 
ATOM     12  C   UNL     1      12.382  -3.811  -0.002  0.00  0.00    +0.031 A 
ATOM     13  C   UNL     1      11.032  -4.016   0.213  0.00  0.00    +0.106 A 
ATOM     14  C   UNL     1      10.313  -4.839  -0.633  0.00  0.00    +0.031 A 
ATOM     15  C   UNL     1      10.941  -5.451  -1.702  0.00  0.00    +0.040 A 
ATOM     16  C   UNL     1      12.294  -5.247  -1.918  0.00  0.00    +0.124 A 
ATOM     17  F   UNL     1      12.910  -5.847  -2.959  0.00  0.00    -0.205 F 
ENDBRANCH   8  13
ENDBRANCH   1   8
BRANCH   1  18
ATOM     18  C   UNL     1       8.326  -1.665   0.457  0.00  0.00    +0.205 C 
BRANCH  18  19
ATOM     19  C   UNL     1       7.355  -1.236   1.526  0.00  0.00    +0.229 C 
ATOM     20  O   UNL     1       7.746  -1.037   2.657  0.00  0.00    -0.274 OA
ATOM     21  N   UNL     1       6.051  -1.073   1.226  0.00  0.00    -0.310 N 
ATOM     22  H   UNL     1       5.738  -1.231   0.322  0.00  0.00    +0.149 HD
BRANCH  21  23
ATOM     23  C   UNL     1       5.107  -0.655   2.265  0.00  0.00    +0.139 C 
BRANCH  23  24
ATOM     24  C   UNL     1       3.725  -0.548   1.674  0.00  0.00    -0.027 A 
ATOM     25  C   UNL     1       2.885  -1.646   1.677  0.00  0.00    +0.009 A 
ATOM     26  C   UNL     1       1.617  -1.553   1.135  0.00  0.00    +0.050 A 
ATOM     27  C   UNL     1       1.183  -0.356   0.589  0.00  0.00    +0.166 A 
ATOM     28  C   UNL     1       2.028   0.751   0.586  0.00  0.00    +0.167 A 
ATOM     29  C   UNL     1       3.298   0.650   1.131  0.00  0.00    +0.054 A 
ATOM     30  O   UNL     1       1.376   1.797  -0.001  0.00  0.00    -0.453 OA
ATOM     31  C   UNL     1      -0.018   1.436   0.010  0.00  0.00    +0.466 C 
ATOM     32  O   UNL     1       0.002  -0.004   0.002  0.00  0.00    -0.453 OA
ENDBRANCH  23  24
ENDBRANCH  21  23
ENDBRANCH  18  19
ENDBRANCH   1  18
TORSDOF 7
