REMARK  Name = ZINC48277175
REMARK  13 active torsions:
REMARK  status: ('A' for Active; 'I' for Inactive)
REMARK    1  A    between atoms: C_1  and  C_2
REMARK    2  A    between atoms: N_5  and  C_11
REMARK    3  A    between atoms: C_7  and  C_10
REMARK    4  A    between atoms: C_16  and  N_17
REMARK    5  A    between atoms: N_20  and  C_21
REMARK    6  A    between atoms: C_21  and  C_22
REMARK    7  A    between atoms: C_22  and  C_24
REMARK    8  A    between atoms: C_22  and  C_28
REMARK    9  A    between atoms: C_24  and  N_25
REMARK   10  A    between atoms: N_25  and  C_26
REMARK   11  A    between atoms: N_25  and  C_27
REMARK   12  A    between atoms: C_28  and  C_30
REMARK   13  A    between atoms: C_28  and  O_36
REMARK                            x       y       z     vdW  Elec       q    Type
REMARK                         _______ _______ _______ _____ _____    ______ ____
ROOT
ATOM      1  N   UNL     1       3.821  -1.530  -3.222  0.00  0.00    -0.268 N 
ATOM      2  C   UNL     1       4.186  -2.263  -4.292  0.00  0.00    +0.304 C 
ATOM      3  O   UNL     1       4.692  -1.722  -5.256  0.00  0.00    -0.253 OA
ATOM      4  N   UNL     1       3.992  -3.597  -4.293  0.00  0.00    -0.299 N 
ATOM      5  H   UNL     1       3.483  -1.969  -2.425  0.00  0.00    +0.156 HD
ATOM      6  H   UNL     1       3.589  -4.029  -3.524  0.00  0.00    +0.150 HD
ENDROOT
BRANCH   1  12
ATOM      7  C   UNL     1       3.048   0.657  -2.520  0.00  0.00    +0.051 A 
ATOM      8  C   UNL     1       3.164   2.039  -2.558  0.00  0.00    +0.025 A 
ATOM      9  C   UNL     1       4.147   2.629  -3.330  0.00  0.00    +0.002 A 
ATOM     10  C   UNL     1       5.016   1.847  -4.067  0.00  0.00    +0.002 A 
ATOM     11  C   UNL     1       4.907   0.469  -4.037  0.00  0.00    +0.025 A 
ATOM     12  C   UNL     1       3.929  -0.132  -3.260  0.00  0.00    +0.056 A 
BRANCH   7  16
ATOM     13  C   UNL     1      -0.266   1.861  -1.351  0.00  0.00    +0.039 C 
ATOM     14  C   UNL     1      -0.334   0.332  -1.343  0.00  0.00    +0.133 C 
ATOM     15  C   UNL     1       0.724  -0.233  -2.297  0.00  0.00    +0.136 C 
ATOM     16  N   UNL     1       2.055   0.057  -1.739  0.00  0.00    -0.324 N 
ATOM     17  C   UNL     1       2.309  -0.303  -0.335  0.00  0.00    +0.136 C 
ATOM     18  C   UNL     1       1.174   0.265   0.523  0.00  0.00    +0.133 C 
ATOM     19  O   UNL     1      -0.082  -0.150  -0.021  0.00  0.00    -0.371 OA
ATOM     20  C   UNL     1       1.308  -0.254   1.956  0.00  0.00    +0.039 C 
ENDBRANCH   7  16
ENDBRANCH   1  12
BRANCH   4  21
ATOM     21  C   UNL     1       4.389  -4.394  -5.456  0.00  0.00    +0.110 C 
BRANCH  21  22
ATOM     22  C   UNL     1       3.890  -5.830  -5.285  0.00  0.00    +0.023 C 
BRANCH  22  23
ATOM     23  C   UNL     1       2.366  -5.860  -5.417  0.00  0.00    -0.072 C 
BRANCH  23  24
ATOM     24  N   UNL     1       1.763  -5.122  -4.299  0.00  0.00    +0.376 N 
ATOM     25  C   UNL     1       0.303  -5.099  -4.458  0.00  0.00    -0.097 C 
ATOM     26  C   UNL     1       2.107  -5.783  -3.034  0.00  0.00    -0.097 C 
ATOM     27  H   UNL     1       2.115  -4.176  -4.292  0.00  0.00    -0.083 HD
ENDBRANCH  23  24
ENDBRANCH  22  23
BRANCH  22  28
ATOM     28  C   UNL     1       4.513  -6.719  -6.363  0.00  0.00    +0.147 C 
BRANCH  28  29
ATOM     29  C   UNL     1       4.131  -8.155  -6.114  0.00  0.00    -0.019 A 
ATOM     30  C   UNL     1       2.963  -8.663  -6.651  0.00  0.00    +0.006 A 
ATOM     31  C   UNL     1       2.612  -9.980  -6.422  0.00  0.00    +0.000 A 
ATOM     32  C   UNL     1       3.430 -10.790  -5.656  0.00  0.00    +0.000 A 
ATOM     33  C   UNL     1       4.598 -10.282  -5.119  0.00  0.00    +0.000 A 
ATOM     34  C   UNL     1       4.951  -8.966  -5.351  0.00  0.00    +0.006 A 
ENDBRANCH  28  29
BRANCH  28  35
ATOM     35  O   UNL     1       4.035  -6.315  -7.648  0.00  0.00    -0.387 OA
ATOM     36  H   UNL     1       3.075  -6.376  -7.747  0.00  0.00    +0.210 HD
ENDBRANCH  28  35
ENDBRANCH  22  28
ENDBRANCH  21  22
ENDBRANCH   4  21
TORSDOF 9
