REMARK  Name = ZINC15730447
REMARK  6 active torsions:
REMARK  status: ('A' for Active; 'I' for Inactive)
REMARK    1  A    between atoms: C_1  and  C_2
REMARK    2  A    between atoms: C_4  and  C_26
REMARK    3  A    between atoms: C_6  and  N_8
REMARK    4  A    between atoms: N_8  and  S_9
REMARK    5  A    between atoms: S_9  and  C_12
REMARK    6  A    between atoms: C_22  and  C_25
REMARK                            x       y       z     vdW  Elec       q    Type
REMARK                         _______ _______ _______ _____ _____    ______ ____
ROOT
ATOM      1  C   UNL     1       1.563  -0.849   0.132  0.00  0.00    +0.110 A 
ATOM      2  C   UNL     1       0.497   0.031   0.175  0.00  0.00    +0.030 A 
ATOM      3  C   UNL     1       0.719   1.393   0.273  0.00  0.00    +0.018 A 
ATOM      4  C   UNL     1       2.018   1.872   0.328  0.00  0.00    +0.029 A 
ATOM      5  C   UNL     1       3.093   0.987   0.286  0.00  0.00    +0.049 A 
ATOM      6  C   UNL     1       2.862  -0.375   0.187  0.00  0.00    +0.053 A 
ATOM      7  N   UNL     1       4.402   1.489   0.348  0.00  0.00    -0.284 N 
ATOM      8  C   UNL     1       4.752   2.351   1.311  0.00  0.00    +0.218 C 
ATOM      9  O   UNL     1       5.819   2.922   1.240  0.00  0.00    -0.275 OA
ATOM     10  C   UNL     1       3.848   2.624   2.476  0.00  0.00    +0.110 C 
ATOM     11  C   UNL     1       2.911   3.804   2.166  0.00  0.00    +0.057 C 
ATOM     12  S   UNL     1       2.333   3.603   0.448  0.00  0.00    -0.120 S 
ATOM     13  C   UNL     1       3.673   5.124   2.307  0.00  0.00    +0.020 C 
ATOM     14  H   UNL     1       5.057   1.210  -0.311  0.00  0.00    +0.155 HD
ENDROOT
BRANCH   1  15
ATOM     15  S   UNL     1       1.267  -2.581   0.004  0.00  0.00    +0.072 S 
ATOM     16  O   UNL     1       2.463  -3.229   0.414  0.00  0.00    -0.150 OA
ATOM     17  O   UNL     1       0.015  -2.825   0.631  0.00  0.00    -0.150 OA
BRANCH  15  18
ATOM     18  N   UNL     1       1.067  -2.927  -1.603  0.00  0.00    -0.216 N 
ATOM     19  H   UNL     1       0.218  -3.269  -1.923  0.00  0.00    +0.174 HD
BRANCH  18  25
ATOM     20  C   UNL     1       3.108  -0.290  -5.214  0.00  0.00    +0.044 C 
ATOM     21  C   UNL     1       3.138  -1.455  -4.259  0.00  0.00    -0.048 A 
ATOM     22  C   UNL     1       4.210  -2.328  -4.268  0.00  0.00    +0.006 A 
ATOM     23  C   UNL     1       4.242  -3.399  -3.393  0.00  0.00    -0.048 A 
ATOM     24  C   UNL     1       3.201  -3.600  -2.508  0.00  0.00    +0.028 A 
ATOM     25  C   UNL     1       2.122  -2.726  -2.496  0.00  0.00    +0.049 A 
ATOM     26  C   UNL     1       2.091  -1.654  -3.380  0.00  0.00    +0.028 A 
ATOM     27  C   UNL     1       5.413  -4.347  -3.406  0.00  0.00    +0.044 C 
ENDBRANCH  18  25
ENDBRANCH  15  18
ENDBRANCH   1  15
TORSDOF 3
