REMARK  Name = ZINC05909578
REMARK  8 active torsions:
REMARK  status: ('A' for Active; 'I' for Inactive)
REMARK    1  A    between atoms: C_1  and  C_2
REMARK    2  A    between atoms: C_2  and  C_18
REMARK    3  A    between atoms: N_3  and  N_4
REMARK    4  A    between atoms: C_8  and  C_11
REMARK    5  A    between atoms: C_21  and  O_26
REMARK    6  A    between atoms: C_23  and  O_24
REMARK    7  A    between atoms: O_24  and  C_25
REMARK    8  A    between atoms: O_26  and  C_27
REMARK                            x       y       z     vdW  Elec       q    Type
REMARK                         _______ _______ _______ _____ _____    ______ ____
ROOT
ATOM      1  N   UNL     1      -0.330  -2.106   0.947  0.00  0.00    -0.124 NA
ATOM      2  C   UNL     1      -0.537  -2.869   2.008  0.00  0.00    +0.192 A 
ATOM      3  N   UNL     1      -0.437  -2.548   3.342  0.00  0.00    -0.332 N 
ATOM      4  H   UNL     1      -0.183  -1.653   3.618  0.00  0.00    +0.168 HD
ATOM      5  C   UNL     1      -0.703  -3.515   4.270  0.00  0.00    +0.055 A 
ATOM      6  C   UNL     1      -1.055  -4.753   3.863  0.00  0.00    +0.075 A 
ATOM      7  S   UNL     1      -1.027  -4.584   2.086  0.00  0.00    -0.056 S 
ENDROOT
BRANCH   5   8
ATOM      8  C   UNL     1      -0.605  -3.207   5.713  0.00  0.00    -0.001 A 
ATOM      9  C   UNL     1      -0.246  -1.925   6.133  0.00  0.00    +0.011 A 
ATOM     10  C   UNL     1      -0.157  -1.643   7.481  0.00  0.00    +0.016 A 
ATOM     11  C   UNL     1      -0.421  -2.630   8.416  0.00  0.00    +0.018 A 
ATOM     12  C   UNL     1      -0.778  -3.903   8.006  0.00  0.00    +0.016 A 
ATOM     13  C   UNL     1      -0.877  -4.195   6.661  0.00  0.00    +0.011 A 
ATOM     14 BR   UNL     1      -0.295  -2.236  10.261  0.00  0.00    -0.050 Br
ENDBRANCH   5   8
BRANCH   1  17
ATOM     15  C   UNL     1       0.250   1.405   0.223  0.00  0.00    +0.068 C 
ATOM     16  C   UNL     1       0.034  -0.077   0.047  0.00  0.00    +0.071 C 
ATOM     17  N   UNL     1      -0.075  -0.850   1.096  0.00  0.00    -0.151 NA
BRANCH  16  18
ATOM     18  C   UNL     1      -0.054  -0.652  -1.303  0.00  0.00    +0.040 A 
ATOM     19  C   UNL     1      -1.251  -1.224  -1.746  0.00  0.00    +0.017 A 
ATOM     20  C   UNL     1      -1.329  -1.761  -3.012  0.00  0.00    +0.046 A 
ATOM     21  C   UNL     1      -0.222  -1.737  -3.852  0.00  0.00    +0.124 A 
ATOM     22  C   UNL     1       0.971  -1.173  -3.422  0.00  0.00    +0.091 A 
ATOM     23  C   UNL     1       1.061  -0.625  -2.155  0.00  0.00    +0.132 A 
BRANCH  23  24
ATOM     24  O   UNL     1       2.226  -0.067  -1.735  0.00  0.00    -0.494 OA
ATOM     25  C   UNL     1       3.300  -0.021  -2.677  0.00  0.00    +0.277 C 
ENDBRANCH  23  24
BRANCH  21  26
ATOM     26  O   UNL     1      -0.307  -2.270  -5.099  0.00  0.00    -0.495 OA
ATOM     27  C   UNL     1      -1.563  -2.836  -5.478  0.00  0.00    +0.277 C 
ENDBRANCH  21  26
ENDBRANCH  16  18
ENDBRANCH   1  17
TORSDOF 5
