REMARK  Name = ZINC34787655
REMARK  6 active torsions:
REMARK  status: ('A' for Active; 'I' for Inactive)
REMARK    1  A    between atoms: C_1  and  C_2
REMARK    2  A    between atoms: C_7  and  C_8
REMARK    3  A    between atoms: N_17  and  C_18
REMARK    4  A    between atoms: C_18  and  C_19
REMARK    5  A    between atoms: C_27  and  C_29
REMARK    6  A    between atoms: C_32  and  N_35
REMARK                            x       y       z     vdW  Elec       q    Type
REMARK                         _______ _______ _______ _____ _____    ______ ____
ROOT
ATOM      1  C   UNL     1       2.689  -3.247   3.811  0.00  0.00    +0.199 C 
ATOM      2  O   UNL     1       2.022  -3.673   4.730  0.00  0.00    -0.278 OA
ATOM      3  N   UNL     1       4.033  -3.334   3.857  0.00  0.00    -0.300 N 
ATOM      4  C   UNL     1       4.855  -2.817   2.754  0.00  0.00    +0.126 C 
ATOM      5  C   UNL     1       5.865  -1.814   3.324  0.00  0.00    +0.127 C 
ATOM      6  N   UNL     1       6.536  -2.428   4.479  0.00  0.00    -0.295 N 
ATOM      7  C   UNL     1       5.715  -2.946   5.582  0.00  0.00    +0.127 C 
ATOM      8  C   UNL     1       4.704  -3.944   5.014  0.00  0.00    +0.126 C 
ATOM      9  C   UNL     1       7.880  -2.516   4.524  0.00  0.00    +0.247 C 
ATOM     10  O   UNL     1       8.427  -2.963   5.514  0.00  0.00    -0.270 OA
ENDROOT
BRANCH   9  11
ATOM     11  C   UNL     1       8.690  -2.068   3.371  0.00  0.00    +0.037 A 
ATOM     12  C   UNL     1       8.489  -0.800   2.824  0.00  0.00    +0.015 A 
ATOM     13  C   UNL     1       9.248  -0.388   1.748  0.00  0.00    +0.033 A 
ATOM     14  C   UNL     1      10.207  -1.228   1.212  0.00  0.00    +0.126 A 
ATOM     15  C   UNL     1      10.411  -2.487   1.750  0.00  0.00    +0.033 A 
ATOM     16  C   UNL     1       9.663  -2.909   2.829  0.00  0.00    +0.015 A 
BRANCH  14  17
ATOM     17  N   UNL     1      11.017  -0.780   0.058  0.00  0.00    +0.056 N 
ATOM     18  O   UNL     1      10.841   0.319  -0.414  0.00  0.00    -0.126 OA
ATOM     19  O   UNL     1      11.856  -1.512  -0.413  0.00  0.00    -0.126 OA
ENDBRANCH  14  17
ENDBRANCH   9  11
BRANCH   1  20
ATOM     20  C   UNL     1       2.015  -2.619   2.619  0.00  0.00    +0.020 C 
BRANCH  20  29
ATOM     21  C   UNL     1      -0.096  -2.143   1.596  0.00  0.00    -0.005 C 
ATOM     22  C   UNL     1      -1.601  -2.075   1.839  0.00  0.00    -0.047 A 
ATOM     23  C   UNL     1      -2.553  -2.024   0.824  0.00  0.00    +0.010 A 
ATOM     24  C   UNL     1      -3.869  -1.968   1.134  0.00  0.00    +0.045 A 
ATOM     25  S   UNL     1      -3.830  -1.985   2.920  0.00  0.00    -0.101 S 
ATOM     26  C   UNL     1      -2.073  -2.063   3.118  0.00  0.00    -0.010 A 
ATOM     27  C   UNL     1      -1.254  -2.105   4.366  0.00  0.00    +0.024 C 
ATOM     28  C   UNL     1       0.206  -1.818   3.973  0.00  0.00    -0.072 C 
ATOM     29  N   UNL     1       0.559  -2.645   2.809  0.00  0.00    +0.393 N 
ATOM     30  H   UNL     1       0.263  -3.595   2.977  0.00  0.00    -0.080 HD
BRANCH  21  37
ATOM     31  C   UNL     1      -0.196  -1.159  -1.119  0.00  0.00    +0.044 C 
ATOM     32  C   UNL     1       0.141  -2.604  -0.853  0.00  0.00    -0.049 A 
ATOM     33  C   UNL     1       0.407  -3.458  -1.907  0.00  0.00    +0.003 A 
ATOM     34  C   UNL     1       0.716  -4.782  -1.663  0.00  0.00    +0.000 A 
ATOM     35  C   UNL     1       0.758  -5.254  -0.364  0.00  0.00    +0.000 A 
ATOM     36  C   UNL     1       0.493  -4.401   0.690  0.00  0.00    +0.002 A 
ATOM     37  C   UNL     1       0.188  -3.075   0.446  0.00  0.00    -0.054 A 
ENDBRANCH  21  37
ENDBRANCH  20  29
ENDBRANCH   1  20
TORSDOF 5
