REMARK  Name = ZINC12522736
REMARK  5 active torsions:
REMARK  status: ('A' for Active; 'I' for Inactive)
REMARK    1  A    between atoms: C_6  and  S_7
REMARK    2  A    between atoms: S_7  and  N_10
REMARK    3  A    between atoms: C_16  and  C_18
REMARK    4  A    between atoms: C_21  and  N_27
REMARK    5  A    between atoms: C_22  and  N_24
REMARK                            x       y       z     vdW  Elec       q    Type
REMARK                         _______ _______ _______ _____ _____    ______ ____
ROOT
ATOM      1  N   UNL     1      -1.736  -2.439  -2.298  0.00  0.00    -0.174 NA
ATOM      2  C   UNL     1      -2.765  -1.480  -2.727  0.00  0.00    +0.128 C 
ATOM      3  C   UNL     1      -2.127  -0.479  -3.698  0.00  0.00    +0.125 C 
ATOM      4  N   UNL     1      -1.385  -1.227  -4.723  0.00  0.00    -0.295 N 
ATOM      5  C   UNL     1      -0.357  -2.185  -4.294  0.00  0.00    +0.125 C 
ATOM      6  C   UNL     1      -0.990  -3.182  -3.323  0.00  0.00    +0.128 C 
ATOM      7  C   UNL     1      -1.643  -1.037  -6.032  0.00  0.00    +0.247 C 
ATOM      8  O   UNL     1      -0.968  -1.599  -6.872  0.00  0.00    -0.270 OA
ENDROOT
BRANCH   7   9
ATOM      9  C   UNL     1      -2.745  -0.147  -6.445  0.00  0.00    +0.039 A 
ATOM     10  C   UNL     1      -2.886   1.113  -5.855  0.00  0.00    +0.015 A 
ATOM     11  C   UNL     1      -3.915   1.941  -6.243  0.00  0.00    +0.026 A 
ATOM     12  C   UNL     1      -4.814   1.525  -7.221  0.00  0.00    +0.055 A 
ATOM     13  C   UNL     1      -4.676   0.271  -7.810  0.00  0.00    +0.147 A 
ATOM     14  C   UNL     1      -3.646  -0.559  -7.431  0.00  0.00    +0.047 A 
BRANCH  13  15
ATOM     15  N   UNL     1      -5.635  -0.168  -8.849  0.00  0.00    +0.058 N 
ATOM     16  O   UNL     1      -5.995  -1.321  -8.891  0.00  0.00    -0.126 OA
ATOM     17  O   UNL     1      -6.058   0.628  -9.655  0.00  0.00    -0.126 OA
ENDBRANCH  13  15
BRANCH  12  18
ATOM     18  N   UNL     1      -5.852   2.364  -7.611  0.00  0.00    -0.356 N 
ATOM     19  H   UNL     1      -5.882   3.279  -7.292  0.00  0.00    +0.142 HD
ATOM     20  H   UNL     1      -6.547   2.033  -8.201  0.00  0.00    +0.142 HD
ENDBRANCH  12  18
ENDBRANCH   7   9
BRANCH   1  21
ATOM     21  S   UNL     1      -1.419  -2.672  -0.690  0.00  0.00    +0.061 S 
ATOM     22  O   UNL     1      -0.844  -3.966  -0.573  0.00  0.00    -0.153 OA
ATOM     23  O   UNL     1      -2.594  -2.295   0.015  0.00  0.00    -0.153 OA
BRANCH  21  29
ATOM     24  C   UNL     1      -0.517  -0.265   0.228  0.00  0.00    +0.030 A 
ATOM     25  C   UNL     1       0.465   0.639   0.587  0.00  0.00    +0.022 A 
ATOM     26  C   UNL     1       1.799   0.287   0.484  0.00  0.00    +0.041 A 
ATOM     27  C   UNL     1       2.149  -0.969   0.022  0.00  0.00    +0.022 A 
ATOM     28  C   UNL     1       1.166  -1.872  -0.336  0.00  0.00    +0.030 A 
ATOM     29  C   UNL     1      -0.167  -1.520  -0.233  0.00  0.00    +0.106 A 
ATOM     30 CL   UNL     1       3.033   1.422   0.934  0.00  0.00    -0.084 Cl
ENDBRANCH  21  29
ENDBRANCH   1  21
TORSDOF 5
