REMARK  Name = ZINC12573352
REMARK  9 active torsions:
REMARK  status: ('A' for Active; 'I' for Inactive)
REMARK    1  A    between atoms: C_1  and  C_2
REMARK    2  A    between atoms: C_4  and  O_9
REMARK    3  A    between atoms: O_9  and  C_10
REMARK    4  A    between atoms: C_10  and  C_11
REMARK    5  A    between atoms: N_13  and  C_14
REMARK    6  A    between atoms: C_14  and  N_16
REMARK    7  A    between atoms: N_16  and  N_17
REMARK    8  A    between atoms: C_18  and  C_20
REMARK    9  A    between atoms: C_24  and  N_26
REMARK                            x       y       z     vdW  Elec       q    Type
REMARK                         _______ _______ _______ _____ _____    ______ ____
ROOT
ATOM      1  C   UNL     1       0.067  -6.592  -5.142  0.00  0.00    +0.153 C 
ATOM      2  S   UNL     1       0.046  -5.543  -6.495  0.00  0.00    -0.017 S 
ENDROOT
BRANCH   1   5
ATOM      3  C   UNL     1       0.049  -4.747  -3.712  0.00  0.00    +0.256 C 
ATOM      4  O   UNL     1       0.034  -4.004  -4.670  0.00  0.00    -0.272 OA
ATOM      5  N   UNL     1       0.067  -6.082  -3.894  0.00  0.00    -0.264 N 
ATOM      6  H   UNL     1       0.079  -6.676  -3.128  0.00  0.00    +0.157 HD
BRANCH   3   7
ATOM      7  C   UNL     1       0.049  -4.176  -2.317  0.00  0.00    +0.324 C 
BRANCH   7   8
ATOM      8  O   UNL     1       0.028  -2.749  -2.386  0.00  0.00    -0.483 OA
BRANCH   8  12
ATOM      9  C   UNL     1      -0.018   1.503   0.010  0.00  0.00    +0.045 C 
ATOM     10  C   UNL     1       0.002  -0.004   0.002  0.00  0.00    -0.033 A 
ATOM     11  C   UNL     1       0.006  -0.688  -1.199  0.00  0.00    +0.050 A 
ATOM     12  C   UNL     1       0.025  -2.075  -1.206  0.00  0.00    +0.122 A 
ATOM     13  C   UNL     1       0.041  -2.772  -0.006  0.00  0.00    +0.047 A 
ATOM     14  C   UNL     1       0.037  -2.085   1.192  0.00  0.00    +0.019 A 
ATOM     15  C   UNL     1       0.023  -0.702   1.196  0.00  0.00    +0.021 A 
ATOM     16 BR   UNL     1       0.025   0.237   2.838  0.00  0.00    -0.050 Br
ENDBRANCH   8  12
ENDBRANCH   7   8
ENDBRANCH   3   7
ENDBRANCH   1   5
BRANCH   1  17
ATOM     17  N   UNL     1       0.085  -7.927  -5.324  0.00  0.00    -0.245 N 
ATOM     18  H   UNL     1       0.085  -8.294  -6.222  0.00  0.00    +0.172 HD
BRANCH  17  19
ATOM     19  N   UNL     1       0.103  -8.785  -4.217  0.00  0.00    -0.231 N 
ATOM     20  C   UNL     1       0.120 -10.120  -4.399  0.00  0.00    +0.260 C 
ATOM     21  O   UNL     1       0.121 -10.580  -5.524  0.00  0.00    -0.269 OA
ATOM     22  H   UNL     1       0.102  -8.418  -3.319  0.00  0.00    +0.173 HD
BRANCH  20  23
ATOM     23  C   UNL     1       0.139 -11.026  -3.231  0.00  0.00    +0.040 A 
ATOM     24  C   UNL     1       0.133 -10.501  -1.937  0.00  0.00    +0.013 A 
ATOM     25  C   UNL     1       0.150 -11.351  -0.851  0.00  0.00    +0.003 A 
ATOM     26  C   UNL     1       0.173 -12.722  -1.042  0.00  0.00    +0.033 A 
ATOM     27  C   UNL     1       0.180 -13.248  -2.321  0.00  0.00    +0.127 A 
ATOM     28  C   UNL     1       0.157 -12.409  -3.416  0.00  0.00    +0.045 A 
BRANCH  27  29
ATOM     29  N   UNL     1       0.206 -14.715  -2.516  0.00  0.00    +0.056 N 
ATOM     30  O   UNL     1       0.221 -15.452  -1.557  0.00  0.00    -0.126 OA
ATOM     31  O   UNL     1       0.212 -15.177  -3.633  0.00  0.00    -0.126 OA
ENDBRANCH  27  29
ENDBRANCH  20  23
ENDBRANCH  17  19
ENDBRANCH   1  17
TORSDOF 8
