REMARK  Name = ZINC00189265
REMARK  5 active torsions:
REMARK  status: ('A' for Active; 'I' for Inactive)
REMARK    1  A    between atoms: C_1  and  C_2
REMARK    2  A    between atoms: C_9  and  N_14
REMARK    3  A    between atoms: C_10  and  C_11
REMARK    4  A    between atoms: C_15  and  C_17
REMARK    5  A    between atoms: C_18  and  C_19
REMARK                            x       y       z     vdW  Elec       q    Type
REMARK                         _______ _______ _______ _____ _____    ______ ____
ROOT
ATOM      1  C   UNL     1      -4.139  -2.532  -4.657  0.00  0.00    +0.008 C 
ATOM      2  C   UNL     1      -3.178  -2.303  -3.489  0.00  0.00    -0.009 C 
ATOM      3  C   UNL     1      -2.513  -0.930  -3.629  0.00  0.00    +0.008 C 
ATOM      4  C   UNL     1      -1.378  -0.796  -2.613  0.00  0.00    +0.037 C 
ATOM      5  C   UNL     1      -1.919  -1.128  -1.228  0.00  0.00    -0.023 A 
ATOM      6  C   UNL     1      -3.069  -1.822  -1.079  0.00  0.00    -0.004 A 
ATOM      7  S   UNL     1      -3.285  -1.969   0.672  0.00  0.00    -0.077 S 
ATOM      8  C   UNL     1      -1.865  -1.129   1.201  0.00  0.00    +0.085 A 
ATOM      9  C   UNL     1      -1.257  -0.754   0.010  0.00  0.00    +0.068 A 
ATOM     10  C   UNL     1      -3.958  -2.342  -2.166  0.00  0.00    +0.046 C 
ENDROOT
BRANCH   9  11
ATOM     11  C   UNL     1       0.002  -0.004   0.002  0.00  0.00    +0.244 C 
ATOM     12  O   UNL     1       1.064  -0.598  -0.011  0.00  0.00    -0.270 OA
ATOM     13  N   UNL     1      -0.016   1.344   0.009  0.00  0.00    -0.325 N 
ATOM     14  H   UNL     1       0.817   1.840   0.004  0.00  0.00    +0.145 HD
ATOM     15  H   UNL     1      -0.863   1.817   0.016  0.00  0.00    +0.145 HD
ENDBRANCH   9  11
BRANCH   8  16
ATOM     16  N   UNL     1      -1.439  -0.889   2.497  0.00  0.00    -0.276 N 
ATOM     17  C   UNL     1      -2.169  -1.334   3.539  0.00  0.00    +0.241 C 
ATOM     18  O   UNL     1      -3.202  -1.948   3.341  0.00  0.00    -0.270 OA
ATOM     19  H   UNL     1      -0.616  -0.400   2.654  0.00  0.00    +0.156 HD
BRANCH  17  20
ATOM     20  C   UNL     1      -1.734  -1.089   4.862  0.00  0.00    +0.068 C 
ATOM     21  C   UNL     1      -2.469  -1.538   5.911  0.00  0.00    +0.020 C 
BRANCH  21  22
ATOM     22  C   UNL     1      -2.034  -1.292   7.236  0.00  0.00    +0.012 A 
ATOM     23  C   UNL     1      -2.633  -1.655   8.436  0.00  0.00    +0.015 A 
ATOM     24  C   UNL     1      -1.987  -1.289   9.590  0.00  0.00    +0.008 A 
ATOM     25  C   UNL     1      -0.822  -0.594   9.508  0.00  0.00    +0.046 A 
ATOM     26  S   UNL     1      -0.577  -0.430   7.800  0.00  0.00    -0.097 S 
ENDBRANCH  21  22
ENDBRANCH  17  20
ENDBRANCH   8  16
TORSDOF 4
