REMARK  Name = ZINC20617554
REMARK  6 active torsions:
REMARK  status: ('A' for Active; 'I' for Inactive)
REMARK    1  A    between atoms: C_1  and  C_2
REMARK    2  A    between atoms: C_6  and  C_17
REMARK    3  A    between atoms: N_8  and  C_9
REMARK    4  A    between atoms: N_19  and  C_20
REMARK    5  A    between atoms: C_27  and  C_30
REMARK    6  A    between atoms: C_30  and  O_31
REMARK                            x       y       z     vdW  Elec       q    Type
REMARK                         _______ _______ _______ _____ _____    ______ ____
ROOT
ATOM      1  C   UNL     1       5.585   1.782   1.003  0.00  0.00    +0.069 C 
ATOM      2  C   UNL     1       5.423   3.173   1.560  0.00  0.00    +0.081 A 
ATOM      3  C   UNL     1       4.411   3.993   1.083  0.00  0.00    +0.159 A 
ATOM      4  C   UNL     1       4.279   5.288   1.621  0.00  0.00    +0.027 A 
ATOM      5  C   UNL     1       3.215   6.168   1.135  0.00  0.00    +0.030 A 
ATOM      6  C   UNL     1       2.226   5.598   0.363  0.00  0.00    +0.098 A 
ATOM      7  C   UNL     1       2.327   4.149   0.097  0.00  0.00    +0.212 A 
ATOM      8  N   UNL     1       1.254   3.432  -0.152  0.00  0.00    -0.325 N 
ATOM      9  O   UNL     1       3.558   3.576   0.123  0.00  0.00    -0.437 OA
ATOM     10  C   UNL     1       5.178   5.696   2.613  0.00  0.00    +0.007 A 
ATOM     11  C   UNL     1       6.153   4.810   3.022  0.00  0.00    +0.117 A 
ATOM     12  N   UNL     1       6.245   3.603   2.496  0.00  0.00    -0.256 NA
ATOM     13  H   UNL     1       0.275   3.924  -0.252  0.00  0.00    +0.169 HD
ENDROOT
BRANCH   8  14
ATOM     14  C   UNL     1       1.354   2.074  -0.286  0.00  0.00    +0.042 A 
ATOM     15  C   UNL     1       1.311   1.253   0.843  0.00  0.00    +0.027 A 
ATOM     16  C   UNL     1       1.412  -0.116   0.701  0.00  0.00    +0.022 A 
ATOM     17  C   UNL     1       1.556  -0.675  -0.558  0.00  0.00    +0.041 A 
ATOM     18  C   UNL     1       1.599   0.134  -1.681  0.00  0.00    +0.022 A 
ATOM     19  C   UNL     1       1.500   1.504  -1.553  0.00  0.00    +0.027 A 
ATOM     20 CL   UNL     1       1.683  -2.398  -0.728  0.00  0.00    -0.084 Cl
ENDBRANCH   8  14
BRANCH   6  21
ATOM     21  C   UNL     1       1.114   6.401  -0.176  0.00  0.00    +0.253 C 
ATOM     22  O   UNL     1       1.055   7.593   0.059  0.00  0.00    -0.270 OA
ATOM     23  N   UNL     1       0.161   5.815  -0.927  0.00  0.00    -0.281 N 
ATOM     24  H   UNL     1       0.167   4.724  -1.070  0.00  0.00    +0.155 HD
BRANCH  23  25
ATOM     25  C   UNL     1      -0.835   6.593  -1.526  0.00  0.00    +0.034 A 
ATOM     26  C   UNL     1      -2.113   6.077  -1.696  0.00  0.00    +0.024 A 
ATOM     27  C   UNL     1      -3.096   6.850  -2.282  0.00  0.00    +0.017 A 
ATOM     28  C   UNL     1      -2.805   8.133  -2.712  0.00  0.00    +0.018 A 
ATOM     29  C   UNL     1      -1.531   8.647  -2.550  0.00  0.00    +0.017 A 
ATOM     30  C   UNL     1      -0.546   7.881  -1.958  0.00  0.00    +0.024 A 
ATOM     31 BR   UNL     1      -4.151   9.185  -3.522  0.00  0.00    -0.050 Br
ENDBRANCH  23  25
ENDBRANCH   6  21
BRANCH  10  32
ATOM     32  C   UNL     1       5.082   7.072   3.221  0.00  0.00    +0.193 C 
BRANCH  32  33
ATOM     33  O   UNL     1       6.109   7.232   4.201  0.00  0.00    -0.390 OA
ATOM     34  H   UNL     1       6.198   8.178   4.755  0.00  0.00    +0.210 HD
ENDBRANCH  32  33
ENDBRANCH  10  32
TORSDOF 5
