REMARK  Name = ZINC36017110
REMARK  11 active torsions:
REMARK  status: ('A' for Active; 'I' for Inactive)
REMARK    1  A    between atoms: C_1  and  C_2
REMARK    2  A    between atoms: C_2  and  N_3
REMARK    3  A    between atoms: N_10  and  C_13
REMARK    4  A    between atoms: C_13  and  C_14
REMARK    5  A    between atoms: C_15  and  C_31
REMARK    6  A    between atoms: C_16  and  C_24
REMARK    7  A    between atoms: N_21  and  C_22
REMARK    8  A    between atoms: C_22  and  C_23
REMARK    9  A    between atoms: C_31  and  O_33
REMARK   10  A    between atoms: O_33  and  C_34
REMARK   11  A    between atoms: C_34  and  C_35
REMARK                            x       y       z     vdW  Elec       q    Type
REMARK                         _______ _______ _______ _____ _____    ______ ____
ROOT
ATOM      1  C   UNL     1       5.144  -5.814  -2.706  0.00  0.00    +0.010 C 
ATOM      2  C   UNL     1       5.969  -6.629  -3.397  0.00  0.00    +0.076 C 
ATOM      3  C   UNL     1       5.729  -8.122  -3.299  0.00  0.00    +0.143 C 
ATOM      4  N   UNL     1       4.608  -8.564  -2.453  0.00  0.00    -0.288 N 
ATOM      5  C   UNL     1       3.872  -7.627  -1.823  0.00  0.00    +0.307 C 
ATOM      6  O   UNL     1       2.944  -7.981  -1.122  0.00  0.00    -0.252 OA
ATOM      7  N   UNL     1       4.132  -6.318  -1.941  0.00  0.00    -0.261 N 
ATOM      8  H   UNL     1       4.404  -9.507  -2.350  0.00  0.00    +0.151 HD
ENDROOT
BRANCH   3   9
ATOM      9  C   UNL     1       5.493  -8.647  -4.692  0.00  0.00    -0.021 A 
ATOM     10  C   UNL     1       4.254  -8.497  -5.286  0.00  0.00    +0.006 A 
ATOM     11  C   UNL     1       4.037  -8.978  -6.564  0.00  0.00    +0.002 A 
ATOM     12  C   UNL     1       5.058  -9.610  -7.248  0.00  0.00    +0.020 A 
ATOM     13  C   UNL     1       6.298  -9.761  -6.654  0.00  0.00    +0.041 A 
ATOM     14  C   UNL     1       6.517  -9.273  -5.377  0.00  0.00    +0.025 A 
ATOM     15 CL   UNL     1       7.582 -10.554  -7.512  0.00  0.00    -0.084 Cl
ENDBRANCH   3   9
BRANCH   7  16
ATOM     16  C   UNL     1       3.279  -5.376  -1.213  0.00  0.00    +0.111 C 
ATOM     17  C   UNL     1       2.031  -5.072  -2.043  0.00  0.00    +0.025 C 
ENDBRANCH   7  16
BRANCH   2  18
ATOM     18  C   UNL     1       7.021  -6.108  -4.186  0.00  0.00    +0.339 C 
ATOM     19  O   UNL     1       7.274  -4.918  -4.153  0.00  0.00    -0.245 OA
BRANCH  18  20
ATOM     20  O   UNL     1       7.744  -6.930  -4.975  0.00  0.00    -0.462 OA
BRANCH  20  21
ATOM     21  C   UNL     1       8.791  -6.335  -5.744  0.00  0.00    +0.229 C 
ATOM     22  C   UNL     1       9.494  -7.415  -6.569  0.00  0.00    +0.048 C 
ENDBRANCH  20  21
ENDBRANCH  18  20
ENDBRANCH   2  18
BRANCH   1  23
ATOM     23  C   UNL     1       5.348  -4.322  -2.776  0.00  0.00    -0.026 C 
BRANCH  23  31
ATOM     24  N   UNL     1      10.491  -3.484  -1.409  0.00  0.00    -0.300 N 
ATOM     25  C   UNL     1       9.754  -2.515  -0.831  0.00  0.00    +0.302 C 
ATOM     26  O   UNL     1      10.181  -1.377  -0.778  0.00  0.00    -0.253 OA
ATOM     27  N   UNL     1       8.545  -2.806  -0.312  0.00  0.00    -0.287 N 
ATOM     28  C   UNL     1       7.708  -1.705   0.204  0.00  0.00    +0.107 C 
ATOM     29  C   UNL     1       6.234  -1.896  -0.195  0.00  0.00    +0.000 C 
ATOM     30  C   UNL     1       6.160  -2.414  -1.615  0.00  0.00    -0.077 C 
ATOM     31  N   UNL     1       6.093  -3.874  -1.592  0.00  0.00    +0.384 N 
ATOM     32  C   UNL     1       7.346  -4.527  -1.580  0.00  0.00    -0.059 C 
ATOM     33  C   UNL     1       8.111  -4.188  -0.286  0.00  0.00    +0.091 C 
ATOM     34  H   UNL     1      10.185  -4.404  -1.387  0.00  0.00    +0.150 HD
ATOM     35  H   UNL     1       5.579  -4.156  -0.771  0.00  0.00    -0.081 HD
BRANCH  24  37
ATOM     36  C   UNL     1      12.387  -4.421  -2.637  0.00  0.00    +0.024 C 
ATOM     37  C   UNL     1      11.755  -3.149  -2.069  0.00  0.00    +0.102 C 
ENDBRANCH  24  37
ENDBRANCH  23  31
ENDBRANCH   1  23
TORSDOF 8
