REMARK  Name = ZINC27573771
REMARK  10 active torsions:
REMARK  status: ('A' for Active; 'I' for Inactive)
REMARK    1  A    between atoms: C_1  and  C_2
REMARK    2  A    between atoms: N_5  and  C_8
REMARK    3  A    between atoms: C_8  and  C_10
REMARK    4  A    between atoms: C_8  and  C_31
REMARK    5  A    between atoms: C_10  and  N_11
REMARK    6  A    between atoms: C_12  and  C_14
REMARK    7  A    between atoms: C_14  and  C_16
REMARK    8  A    between atoms: C_14  and  N_19
REMARK    9  A    between atoms: C_16  and  C_17
REMARK   10  A    between atoms: C_16  and  C_18
REMARK                            x       y       z     vdW  Elec       q    Type
REMARK                         _______ _______ _______ _____ _____    ______ ____
ROOT
ATOM      1  N   UNL     1       8.265   3.210  -0.455  0.00  0.00    -0.315 N 
ATOM      2  C   UNL     1       7.133   2.520  -0.211  0.00  0.00    +0.234 C 
ATOM      3  O   UNL     1       7.045   1.360  -0.552  0.00  0.00    -0.274 OA
ATOM      4  H   UNL     1       8.377   4.236  -0.074  0.00  0.00    +0.149 HD
ENDROOT
BRANCH   1   5
ATOM      5  C   UNL     1       9.346   2.594  -1.228  0.00  0.00    +0.094 C 
BRANCH   5   6
ATOM      6  C   UNL     1      10.453   3.622  -1.467  0.00  0.00    -0.013 C 
BRANCH   6  11
ATOM      7  C   UNL     1       8.756   7.961  -4.778  0.00  0.00    +0.007 C 
ATOM      8  C   UNL     1       9.440   6.692  -4.265  0.00  0.00    -0.018 C 
ATOM      9  C   UNL     1       8.377   5.671  -3.849  0.00  0.00    -0.015 C 
ATOM     10  C   UNL     1       9.066   4.428  -3.280  0.00  0.00    -0.078 C 
ATOM     11  N   UNL     1       9.886   4.808  -2.123  0.00  0.00    +0.386 N 
ATOM     12  C   UNL     1      10.943   5.752  -2.508  0.00  0.00    -0.078 C 
ATOM     13  C   UNL     1      10.310   7.034  -3.053  0.00  0.00    -0.015 C 
ATOM     14  H   UNL     1       9.231   5.316  -1.400  0.00  0.00    -0.081 HD
ENDBRANCH   6  11
BRANCH   6  15
ATOM     15  C   UNL     1      11.516   3.020  -2.349  0.00  0.00    -0.022 A 
ATOM     16  C   UNL     1      12.715   2.491  -2.001  0.00  0.00    +0.009 A 
ATOM     17  C   UNL     1      13.539   1.990  -2.992  0.00  0.00    +0.008 A 
ATOM     18  C   UNL     1      13.124   2.042  -4.281  0.00  0.00    +0.045 A 
ATOM     19  S   UNL     1      11.521   2.813  -4.122  0.00  0.00    -0.103 S 
ENDBRANCH   6  15
ENDBRANCH   5   6
ENDBRANCH   1   5
BRANCH   2  20
ATOM     20  C   UNL     1       5.977   3.191   0.485  0.00  0.00    +0.160 C 
BRANCH  20  21
ATOM     21  N   UNL     1       4.725   2.538   0.093  0.00  0.00    -0.316 N 
ATOM     22  C   UNL     1       3.537   3.233   0.155  0.00  0.00    +0.150 C 
ATOM     23  N   UNL     1       3.518   4.464   0.557  0.00  0.00    -0.113 NA
ATOM     24  S   UNL     1       1.916   4.943   0.489  0.00  0.00    +0.101 S 
ATOM     25  O   UNL     1       1.468   5.146   1.822  0.00  0.00    -0.146 OA
ATOM     26  O   UNL     1       1.800   5.922  -0.534  0.00  0.00    -0.146 OA
ATOM     27  C   UNL     1       1.177   3.447  -0.108  0.00  0.00    +0.123 A 
ATOM     28  C   UNL     1       2.276   2.585  -0.236  0.00  0.00    +0.043 A 
ATOM     29  C   UNL     1       2.025   1.285  -0.699  0.00  0.00    +0.013 A 
ATOM     30  C   UNL     1       0.742   0.892  -1.009  0.00  0.00    +0.001 A 
ATOM     31  C   UNL     1      -0.322   1.766  -0.872  0.00  0.00    +0.002 A 
ATOM     32  C   UNL     1      -0.093   3.056  -0.415  0.00  0.00    +0.030 A 
ATOM     33  H   UNL     1       4.734   1.493  -0.250  0.00  0.00    +0.148 HD
ENDBRANCH  20  21
BRANCH  20  34
ATOM     34  C   UNL     1       6.159   3.079   2.000  0.00  0.00    +0.012 C 
ATOM     35  C   UNL     1       7.411   3.850   2.422  0.00  0.00    +0.009 C 
ATOM     36  C   UNL     1       4.935   3.666   2.706  0.00  0.00    +0.009 C 
ENDBRANCH  20  34
ENDBRANCH   2  20
TORSDOF 7
