REMARK  Name = ZINC49522425
REMARK  7 active torsions:
REMARK  status: ('A' for Active; 'I' for Inactive)
REMARK    1  A    between atoms: C_3  and  S_6
REMARK    2  A    between atoms: S_6  and  N_9
REMARK    3  A    between atoms: C_16  and  N_19
REMARK    4  A    between atoms: C_20  and  C_22
REMARK    5  A    between atoms: N_24  and  C_25
REMARK    6  A    between atoms: C_25  and  C_26
REMARK    7  A    between atoms: C_26  and  O_31
REMARK                            x       y       z     vdW  Elec       q    Type
REMARK                         _______ _______ _______ _____ _____    ______ ____
ROOT
ATOM      1  N   UNL     1       4.513   2.094   1.545  0.00  0.00    -0.202 N 
ATOM      2  C   UNL     1       4.400   3.387   2.234  0.00  0.00    +0.132 C 
ATOM      3  C   UNL     1       5.701   3.618   3.014  0.00  0.00    +0.025 C 
ATOM      4  C   UNL     1       5.838   2.530   4.079  0.00  0.00    +0.038 C 
ATOM      5  C   UNL     1       5.666   1.166   3.464  0.00  0.00    -0.025 A 
ATOM      6  C   UNL     1       5.017   0.995   2.249  0.00  0.00    +0.056 A 
ATOM      7  C   UNL     1       4.865  -0.277   1.712  0.00  0.00    +0.048 A 
ATOM      8  C   UNL     1       5.361  -1.381   2.392  0.00  0.00    +0.036 A 
ATOM      9  C   UNL     1       6.008  -1.207   3.609  0.00  0.00    +0.024 A 
ATOM     10  C   UNL     1       6.165   0.062   4.137  0.00  0.00    +0.007 A 
ENDROOT
BRANCH   8  11
ATOM     11  N   UNL     1       5.209  -2.662   1.854  0.00  0.00    -0.278 N 
ATOM     12  C   UNL     1       5.019  -3.717   2.671  0.00  0.00    +0.303 C 
ATOM     13  O   UNL     1       4.884  -3.544   3.865  0.00  0.00    -0.265 OA
ATOM     14  H   UNL     1       5.241  -2.792   0.894  0.00  0.00    +0.155 HD
BRANCH  12  15
ATOM     15  C   UNL     1       4.976  -5.099   2.107  0.00  0.00    +0.299 C 
ATOM     16  O   UNL     1       5.111  -5.272   0.914  0.00  0.00    -0.265 OA
ATOM     17  N   UNL     1       4.786  -6.154   2.924  0.00  0.00    -0.305 N 
ATOM     18  H   UNL     1       4.677  -6.016   3.878  0.00  0.00    +0.149 HD
BRANCH  17  19
ATOM     19  C   UNL     1       4.742  -7.510   2.371  0.00  0.00    +0.139 C 
BRANCH  19  20
ATOM     20  C   UNL     1       4.517  -8.515   3.502  0.00  0.00    +0.081 C 
ATOM     21  C   UNL     1       5.637  -8.385   4.556  0.00  0.00    +0.036 C 
ATOM     22  C   UNL     1       5.901  -9.841   5.012  0.00  0.00    +0.003 C 
ATOM     23  C   UNL     1       5.758 -10.643   3.695  0.00  0.00    +0.003 C 
ATOM     24  C   UNL     1       4.594  -9.951   2.955  0.00  0.00    +0.036 C 
BRANCH  20  25
ATOM     25  O   UNL     1       3.244  -8.291   4.110  0.00  0.00    -0.387 OA
ATOM     26  H   UNL     1       3.137  -7.406   4.484  0.00  0.00    +0.210 HD
ENDBRANCH  20  25
ENDBRANCH  19  20
ENDBRANCH  17  19
ENDBRANCH  12  15
ENDBRANCH   8  11
BRANCH   1  27
ATOM     27  S   UNL     1       4.046   1.939  -0.036  0.00  0.00    +0.081 S 
ATOM     28  O   UNL     1       4.882   0.945  -0.611  0.00  0.00    -0.149 OA
ATOM     29  O   UNL     1       3.954   3.256  -0.563  0.00  0.00    -0.149 OA
BRANCH  27  32
ATOM     30  C   UNL     1       0.053   1.212  -0.016  0.00  0.00    +0.010 A 
ATOM     31  C   UNL     1       1.226   1.942  -0.013  0.00  0.00    +0.036 A 
ATOM     32  C   UNL     1       2.411   1.283  -0.034  0.00  0.00    +0.146 A 
ATOM     33  S   UNL     1       1.884  -0.423  -0.060  0.00  0.00    -0.077 S 
ATOM     34  C   UNL     1       0.121  -0.142  -0.041  0.00  0.00    +0.047 A 
ENDBRANCH  27  32
ENDBRANCH   1  27
TORSDOF 7
