REMARK  Name = ZINC35894482
REMARK  6 active torsions:
REMARK  status: ('A' for Active; 'I' for Inactive)
REMARK    1  A    between atoms: C_4  and  C_7
REMARK    2  A    between atoms: C_7  and  C_8
REMARK    3  A    between atoms: C_8  and  N_9
REMARK    4  A    between atoms: C_10  and  C_12
REMARK    5  A    between atoms: C_17  and  N_35
REMARK    6  A    between atoms: N_25  and  C_28
REMARK                            x       y       z     vdW  Elec       q    Type
REMARK                         _______ _______ _______ _____ _____    ______ ____
ROOT
ATOM      1  C   UNL     1       7.365  -2.749   2.524  0.00  0.00    +0.101 C 
ATOM      2  C   UNL     1       7.192  -4.080   1.794  0.00  0.00    +0.051 C 
ATOM      3  C   UNL     1       6.224  -4.935   2.570  0.00  0.00    -0.023 A 
ATOM      4  C   UNL     1       5.444  -5.862   1.903  0.00  0.00    +0.038 A 
ATOM      5  C   UNL     1       4.546  -6.643   2.604  0.00  0.00    +0.127 A 
ATOM      6  C   UNL     1       4.423  -6.498   3.974  0.00  0.00    +0.034 A 
ATOM      7  C   UNL     1       5.202  -5.578   4.645  0.00  0.00    +0.025 A 
ATOM      8  C   UNL     1       6.112  -4.793   3.941  0.00  0.00    +0.033 A 
ATOM      9  N   UNL     1       6.910  -3.883   4.657  0.00  0.00    -0.323 N 
ATOM     10  C   UNL     1       7.827  -3.000   3.963  0.00  0.00    +0.103 C 
ATOM     11  C   UNL     1       8.003  -1.656   4.650  0.00  0.00    +0.128 C 
ATOM     12  N   UNL     1       7.894  -1.738   6.093  0.00  0.00    -0.324 N 
ATOM     13  C   UNL     1       6.899  -2.564   6.757  0.00  0.00    +0.124 C 
ATOM     14  C   UNL     1       6.798  -3.925   6.114  0.00  0.00    +0.124 C 
ENDROOT
BRANCH  12  15
ATOM     15  C   UNL     1       8.781  -0.993   6.877  0.00  0.00    +0.065 A 
ATOM     16  C   UNL     1       8.450   0.298   7.266  0.00  0.00    +0.026 A 
ATOM     17  C   UNL     1       9.327   1.031   8.042  0.00  0.00    +0.002 A 
ATOM     18  C   UNL     1      10.535   0.482   8.430  0.00  0.00    +0.003 A 
ATOM     19  C   UNL     1      10.870  -0.803   8.044  0.00  0.00    +0.040 A 
ATOM     20  C   UNL     1       9.994  -1.546   7.273  0.00  0.00    +0.144 A 
ATOM     21  F   UNL     1      10.318  -2.803   6.901  0.00  0.00    -0.204 F 
ENDBRANCH  12  15
BRANCH   1  23
ATOM     22  N   UNL     1       5.450  -1.678   1.382  0.00  0.00    -0.315 N 
ATOM     23  C   UNL     1       6.050  -2.013   2.541  0.00  0.00    +0.218 C 
ATOM     24  O   UNL     1       5.532  -1.722   3.599  0.00  0.00    -0.275 OA
ATOM     25  H   UNL     1       5.864  -1.911   0.536  0.00  0.00    +0.149 HD
BRANCH  22  26
ATOM     26  C   UNL     1       4.171  -0.963   1.399  0.00  0.00    +0.109 C 
BRANCH  26  27
ATOM     27  C   UNL     1       3.711  -0.707  -0.038  0.00  0.00    +0.054 C 
BRANCH  27  31
ATOM     28  C   UNL     1      -0.017   1.378   0.010  0.00  0.00    +0.000 A 
ATOM     29  C   UNL     1       1.171   2.086   0.002  0.00  0.00    +0.000 A 
ATOM     30  C   UNL     1       2.377   1.411  -0.013  0.00  0.00    +0.004 A 
ATOM     31  C   UNL     1       2.396   0.029  -0.020  0.00  0.00    -0.046 A 
ATOM     32  C   UNL     1       1.208  -0.679  -0.012  0.00  0.00    +0.004 A 
ATOM     33  C   UNL     1       0.002  -0.004   0.002  0.00  0.00    +0.000 A 
ENDBRANCH  27  31
ENDBRANCH  26  27
ENDBRANCH  22  26
ENDBRANCH   1  23
BRANCH   5  34
ATOM     34  N   UNL     1       3.713  -7.635   1.889  0.00  0.00    +0.056 N 
ATOM     35  O   UNL     1       3.819  -7.762   0.691  0.00  0.00    -0.126 OA
ATOM     36  O   UNL     1       2.926  -8.319   2.501  0.00  0.00    -0.126 OA
ENDBRANCH   5  34
TORSDOF 6
