REMARK  Name = ZINC39536407
REMARK  10 active torsions:
REMARK  status: ('A' for Active; 'I' for Inactive)
REMARK    1  A    between atoms: C_1  and  C_2
REMARK    2  A    between atoms: C_4  and  C_26
REMARK    3  A    between atoms: C_5  and  C_23
REMARK    4  A    between atoms: C_6  and  C_22
REMARK    5  A    between atoms: C_7  and  C_8
REMARK    6  A    between atoms: C_8  and  O_9
REMARK    7  A    between atoms: O_9  and  C_10
REMARK    8  A    between atoms: C_10  and  C_12
REMARK    9  A    between atoms: C_14  and  N_20
REMARK   10  A    between atoms: C_23  and  C_25
REMARK                            x       y       z     vdW  Elec       q    Type
REMARK                         _______ _______ _______ _____ _____    ______ ____
ROOT
ATOM      1  O   UNL     1      -1.783  -0.412   2.978  0.00  0.00    -0.455 OA
ENDROOT
BRANCH   1   2
ATOM      2  C   UNL     1      -2.143   0.034   4.197  0.00  0.00    +0.360 C 
ATOM      3  O   UNL     1      -1.299   0.456   4.962  0.00  0.00    -0.243 OA
BRANCH   2   4
ATOM      4  C   UNL     1      -3.564   0.009   4.604  0.00  0.00    +0.169 A 
ATOM      5  C   UNL     1      -3.929   0.477   5.864  0.00  0.00    +0.095 A 
ATOM      6  C   UNL     1      -5.275   0.447   6.232  0.00  0.00    +0.067 A 
ATOM      7  C   UNL     1      -6.200  -0.053   5.318  0.00  0.00    +0.100 A 
ATOM      8  C   UNL     1      -5.759  -0.500   4.082  0.00  0.00    +0.150 A 
ATOM      9  N   UNL     1      -4.482  -0.455   3.762  0.00  0.00    -0.226 NA
ATOM     10 CL   UNL     1      -6.906  -1.124   2.938  0.00  0.00    -0.060 Cl
ATOM     11 CL   UNL     1      -7.888  -0.114   5.721  0.00  0.00    -0.078 Cl
ATOM     12 CL   UNL     1      -2.729   1.087   6.959  0.00  0.00    -0.079 Cl
BRANCH   6  13
ATOM     13  N   UNL     1      -5.683   0.905   7.483  0.00  0.00    -0.356 N 
ATOM     14  H   UNL     1      -5.029   1.250   8.111  0.00  0.00    +0.142 HD
ATOM     15  H   UNL     1      -6.622   0.879   7.727  0.00  0.00    +0.142 HD
ENDBRANCH   6  13
ENDBRANCH   2   4
ENDBRANCH   1   2
BRANCH   1  16
ATOM     16  C   UNL     1      -0.393  -0.359   2.652  0.00  0.00    +0.268 C 
BRANCH  16  23
ATOM     17  C   UNL     1      -0.499   1.430   0.391  0.00  0.00    +0.044 C 
ATOM     18  C   UNL     1      -0.234  -0.037   0.174  0.00  0.00    -0.044 A 
ATOM     19  C   UNL     1      -0.037  -0.519  -1.108  0.00  0.00    +0.007 A 
ATOM     20  C   UNL     1       0.206  -1.861  -1.315  0.00  0.00    -0.039 A 
ATOM     21  C   UNL     1       0.254  -2.735  -0.224  0.00  0.00    +0.023 A 
ATOM     22  C   UNL     1       0.054  -2.240   1.068  0.00  0.00    -0.033 A 
ATOM     23  C   UNL     1      -0.183  -0.895   1.259  0.00  0.00    -0.004 A 
ATOM     24  C   UNL     1       0.102  -3.174   2.250  0.00  0.00    +0.045 C 
ATOM     25  C   UNL     1       0.420  -2.383  -2.712  0.00  0.00    +0.044 C 
BRANCH  21  26
ATOM     26  C   UNL     1       0.513  -4.168  -0.436  0.00  0.00    +0.161 C 
ATOM     27  O   UNL     1      -0.415  -4.941  -0.551  0.00  0.00    -0.292 OA
ATOM     28  C   UNL     1       1.930  -4.675  -0.510  0.00  0.00    +0.091 C 
ENDBRANCH  21  26
ENDBRANCH  16  23
ENDBRANCH   1  16
TORSDOF 6
