REMARK  Name = ZINC39669147
REMARK  4 active torsions:
REMARK  status: ('A' for Active; 'I' for Inactive)
REMARK    1  A    between atoms: C_10  and  C_12
REMARK    2  A    between atoms: C_12  and  N_13
REMARK    3  A    between atoms: C_14  and  C_16
REMARK    4  A    between atoms: C_27  and  C_29
REMARK                            x       y       z     vdW  Elec       q    Type
REMARK                         _______ _______ _______ _____ _____    ______ ____
ROOT
ATOM      1  C   UNL     1       8.275  -0.944  -1.852  0.00  0.00    +0.100 C 
ATOM      2  C   UNL     1       8.095  -2.434  -2.218  0.00  0.00    +0.121 C 
ATOM      3  N   UNL     1       8.333  -2.493  -3.679  0.00  0.00    -0.297 N 
ATOM      4  C   UNL     1       9.458  -1.554  -3.907  0.00  0.00    +0.115 C 
ATOM      5  C   UNL     1       9.173  -0.371  -2.961  0.00  0.00    -0.004 C 
ATOM      6  C   UNL     1      10.476   0.156  -2.366  0.00  0.00    -0.010 C 
ATOM      7  C   UNL     1      11.327   0.773  -3.480  0.00  0.00    -0.082 C 
ATOM      8  N   UNL     1      10.581   1.864  -4.120  0.00  0.00    +0.379 N 
ATOM      9  C   UNL     1       9.377   1.333  -4.769  0.00  0.00    -0.082 C 
ATOM     10  C   UNL     1       8.443   0.740  -3.711  0.00  0.00    -0.010 C 
ATOM     11  C   UNL     1       7.676  -3.232  -4.595  0.00  0.00    +0.260 C 
ATOM     12  O   UNL     1       7.991  -3.170  -5.764  0.00  0.00    -0.271 OA
ATOM     13  H   UNL     1      10.315   2.542  -3.422  0.00  0.00    -0.086 HD
ATOM     14  H   UNL     1      11.166   2.309  -4.811  0.00  0.00    -0.086 HD
ENDROOT
BRANCH  11  15
ATOM     15  C   UNL     1       6.549  -4.135  -4.165  0.00  0.00    +0.296 C 
ATOM     16  C   UNL     1       7.096  -5.257  -3.272  0.00  0.00    +0.283 C 
ATOM     17  O   UNL     1       6.004  -6.102  -2.895  0.00  0.00    -0.484 OA
ATOM     18  C   UNL     1       5.151  -6.478  -3.886  0.00  0.00    +0.162 A 
ATOM     19  C   UNL     1       4.306  -7.559  -3.683  0.00  0.00    +0.049 A 
ATOM     20  C   UNL     1       3.431  -7.951  -4.679  0.00  0.00    +0.004 A 
ATOM     21  C   UNL     1       3.396  -7.266  -5.880  0.00  0.00    +0.004 A 
ATOM     22  C   UNL     1       4.236  -6.189  -6.089  0.00  0.00    +0.049 A 
ATOM     23  C   UNL     1       5.117  -5.791  -5.094  0.00  0.00    +0.163 A 
ATOM     24  O   UNL     1       5.944  -4.733  -5.317  0.00  0.00    -0.473 OA
ENDBRANCH  11  15
BRANCH   1  26
ATOM     25  N   UNL     1       6.750   0.829  -1.045  0.00  0.00    -0.312 N 
ATOM     26  C   UNL     1       6.941  -0.242  -1.841  0.00  0.00    +0.218 C 
ATOM     27  O   UNL     1       6.041  -0.640  -2.549  0.00  0.00    -0.275 OA
ATOM     28  H   UNL     1       7.471   1.147  -0.479  0.00  0.00    +0.149 HD
BRANCH  25  29
ATOM     29  C   UNL     1       5.454   1.512  -1.034  0.00  0.00    +0.140 C 
BRANCH  29  39
ATOM     30  C   UNL     1       1.721   4.676  -0.104  0.00  0.00    +0.000 A 
ATOM     31  C   UNL     1       2.316   4.271  -1.285  0.00  0.00    +0.000 A 
ATOM     32  C   UNL     1       3.537   3.628  -1.254  0.00  0.00    +0.006 A 
ATOM     33  C   UNL     1       4.169   3.384  -0.044  0.00  0.00    -0.014 A 
ATOM     34  C   UNL     1       3.573   3.785   1.133  0.00  0.00    -0.040 A 
ATOM     35  C   UNL     1       2.349   4.434   1.101  0.00  0.00    +0.004 A 
ATOM     36  C   UNL     1       4.222   3.526   2.468  0.00  0.00    +0.063 C 
ATOM     37  C   UNL     1       5.703   3.198   2.269  0.00  0.00    +0.165 C 
ATOM     38  O   UNL     1       5.813   2.196   1.252  0.00  0.00    -0.370 OA
ATOM     39  C   UNL     1       5.503   2.684  -0.053  0.00  0.00    +0.165 C 
ENDBRANCH  29  39
ENDBRANCH  25  29
ENDBRANCH   1  26
TORSDOF 4
