REMARK  Name = ZINC22034688
REMARK  10 active torsions:
REMARK  status: ('A' for Active; 'I' for Inactive)
REMARK    1  A    between atoms: C_1  and  C_2
REMARK    2  A    between atoms: C_2  and  C_4
REMARK    3  A    between atoms: C_2  and  O_11
REMARK    4  A    between atoms: N_6  and  C_7
REMARK    5  A    between atoms: C_7  and  C_8
REMARK    6  A    between atoms: C_8  and  C_9
REMARK    7  A    between atoms: C_8  and  C_10
REMARK    8  A    between atoms: O_11  and  C_12
REMARK    9  A    between atoms: C_12  and  C_14
REMARK   10  A    between atoms: C_16  and  N_22
REMARK                            x       y       z     vdW  Elec       q    Type
REMARK                         _______ _______ _______ _____ _____    ______ ____
ROOT
ATOM      1  C   UNL     1      -1.924  -0.704  -1.184  0.00  0.00    +0.360 C 
ATOM      2  O   UNL     1      -1.313  -0.469  -2.207  0.00  0.00    -0.243 OA
ENDROOT
BRANCH   1   3
ATOM      3  C   UNL     1      -3.310  -1.215  -1.250  0.00  0.00    +0.169 A 
ATOM      4  C   UNL     1      -3.907  -1.430  -2.490  0.00  0.00    +0.095 A 
ATOM      5  C   UNL     1      -5.215  -1.913  -2.536  0.00  0.00    +0.067 A 
ATOM      6  C   UNL     1      -5.872  -2.160  -1.331  0.00  0.00    +0.100 A 
ATOM      7  C   UNL     1      -5.210  -1.920  -0.137  0.00  0.00    +0.150 A 
ATOM      8  N   UNL     1      -3.973  -1.469  -0.127  0.00  0.00    -0.226 NA
ATOM      9 CL   UNL     1      -6.022  -2.226   1.367  0.00  0.00    -0.060 Cl
ATOM     10 CL   UNL     1      -7.501  -2.760  -1.327  0.00  0.00    -0.078 Cl
ATOM     11 CL   UNL     1      -3.037  -1.102  -3.956  0.00  0.00    -0.079 Cl
BRANCH   5  12
ATOM     12  N   UNL     1      -5.850  -2.142  -3.755  0.00  0.00    -0.356 N 
ATOM     13  H   UNL     1      -5.382  -1.965  -4.586  0.00  0.00    +0.142 HD
ATOM     14  H   UNL     1      -6.760  -2.477  -3.773  0.00  0.00    +0.142 HD
ENDBRANCH   5  12
ENDBRANCH   1   3
BRANCH   1  15
ATOM     15  O   UNL     1      -1.339  -0.499   0.012  0.00  0.00    -0.448 OA
BRANCH  15  17
ATOM     16  C   UNL     1      -0.019   1.526   0.010  0.00  0.00    +0.062 C 
ATOM     17  C   UNL     1       0.002  -0.004   0.002  0.00  0.00    +0.259 C 
BRANCH  17  18
ATOM     18  C   UNL     1       0.731  -0.503   1.223  0.00  0.00    +0.254 C 
ATOM     19  O   UNL     1       0.135  -1.137   2.068  0.00  0.00    -0.272 OA
ATOM     20  N   UNL     1       2.045  -0.246   1.375  0.00  0.00    -0.312 N 
ATOM     21  H   UNL     1       2.522   0.261   0.699  0.00  0.00    +0.149 HD
BRANCH  20  22
ATOM     22  C   UNL     1       2.754  -0.731   2.562  0.00  0.00    +0.107 C 
BRANCH  22  23
ATOM     23  C   UNL     1       4.222  -0.306   2.489  0.00  0.00    -0.000 C 
ATOM     24  C   UNL     1       4.315   1.220   2.558  0.00  0.00    +0.009 C 
ATOM     25  C   UNL     1       4.989  -0.917   3.664  0.00  0.00    +0.009 C 
ENDBRANCH  22  23
ENDBRANCH  20  22
ENDBRANCH  17  18
ENDBRANCH  15  17
ENDBRANCH   1  15
TORSDOF 7
