REMARK  Name = ZINC17073981
REMARK  4 active torsions:
REMARK  status: ('A' for Active; 'I' for Inactive)
REMARK    1  A    between atoms: C_4  and  C_7
REMARK    2  A    between atoms: N_11  and  N_12
REMARK    3  A    between atoms: C_13  and  C_15
REMARK    4  A    between atoms: C_24  and  O_25
REMARK                            x       y       z     vdW  Elec       q    Type
REMARK                         _______ _______ _______ _____ _____    ______ ____
ROOT
ATOM      1  N   UNL     1      -0.032   3.245   3.356  0.00  0.00    -0.203 N 
ATOM      2  C   UNL     1       0.273   4.024   4.412  0.00  0.00    +0.267 C 
ATOM      3  O   UNL     1       0.163   5.232   4.330  0.00  0.00    -0.268 OA
ATOM      4  H   UNL     1       0.056   2.281   3.422  0.00  0.00    +0.178 HD
ENDROOT
BRANCH   2   5
ATOM      5  C   UNL     1       0.739   3.412   5.665  0.00  0.00    +0.087 A 
ATOM      6  C   UNL     1      -0.212   3.021   6.705  0.00  0.00    -0.002 A 
ATOM      7  C   UNL     1      -1.589   3.213   6.544  0.00  0.00    +0.009 A 
ATOM      8  C   UNL     1      -2.443   2.834   7.538  0.00  0.00    +0.001 A 
ATOM      9  C   UNL     1      -1.963   2.257   8.711  0.00  0.00    +0.001 A 
ATOM     10  C   UNL     1      -0.629   2.056   8.899  0.00  0.00    +0.008 A 
ATOM     11  C   UNL     1       0.279   2.435   7.896  0.00  0.00    -0.017 A 
ATOM     12  C   UNL     1       1.664   2.242   8.056  0.00  0.00    +0.012 A 
ATOM     13  C   UNL     1       2.534   2.610   7.081  0.00  0.00    +0.047 A 
ATOM     14  C   UNL     1       2.099   3.188   5.886  0.00  0.00    +0.130 A 
BRANCH  14  15
ATOM     15  O   UNL     1       3.002   3.536   4.938  0.00  0.00    -0.506 OA
ATOM     16  H   UNL     1       3.338   4.438   5.026  0.00  0.00    +0.292 HD
ENDBRANCH  14  15
ENDBRANCH   2   5
BRANCH   1  21
ATOM     17  C   UNL     1      -0.171   1.816  -1.365  0.00  0.00    +0.020 C 
ATOM     18  C   UNL     1       0.579   1.360  -0.112  0.00  0.00    +0.014 C 
ATOM     19  C   UNL     1      -0.282   1.636   1.125  0.00  0.00    +0.053 C 
ATOM     20  C   UNL     1      -0.667   3.099   1.126  0.00  0.00    +0.037 C 
ATOM     21  N   UNL     1      -0.476   3.828   2.161  0.00  0.00    -0.189 NA
ATOM     22  C   UNL     1      -1.285   3.679  -0.127  0.00  0.00    +0.053 C 
ATOM     23  C   UNL     1      -0.387   3.329  -1.319  0.00  0.00    +0.014 C 
BRANCH  17  27
ATOM     24  C   UNL     1       2.117   0.818  -4.832  0.00  0.00    +0.000 A 
ATOM     25  C   UNL     1       0.847   0.297  -4.668  0.00  0.00    +0.000 A 
ATOM     26  C   UNL     1       0.106   0.620  -3.547  0.00  0.00    +0.004 A 
ATOM     27  C   UNL     1       0.636   1.463  -2.588  0.00  0.00    -0.044 A 
ATOM     28  C   UNL     1       1.904   1.988  -2.753  0.00  0.00    +0.004 A 
ATOM     29  C   UNL     1       2.647   1.661  -3.873  0.00  0.00    +0.000 A 
ENDBRANCH  17  27
ENDBRANCH   1  21
TORSDOF 4
