REMARK  Name = ZINC39936332
REMARK  8 active torsions:
REMARK  status: ('A' for Active; 'I' for Inactive)
REMARK    1  A    between atoms: C_1  and  C_2
REMARK    2  A    between atoms: C_4  and  C_38
REMARK    3  A    between atoms: C_5  and  C_36
REMARK    4  A    between atoms: C_6  and  N_15
REMARK    5  A    between atoms: N_8  and  C_9
REMARK    6  A    between atoms: C_16  and  C_18
REMARK    7  A    between atoms: C_18  and  N_19
REMARK    8  A    between atoms: C_22  and  N_25
REMARK                            x       y       z     vdW  Elec       q    Type
REMARK                         _______ _______ _______ _____ _____    ______ ____
ROOT
ATOM      1  N   UNL     1       0.692  -2.868   0.588  0.00  0.00    -0.297 N 
ATOM      2  C   UNL     1       1.254  -3.842   1.331  0.00  0.00    +0.198 C 
ATOM      3  O   UNL     1       2.368  -3.690   1.786  0.00  0.00    -0.278 OA
ATOM      4  H   UNL     1      -0.199  -2.989   0.223  0.00  0.00    +0.150 HD
ENDROOT
BRANCH   1   9
ATOM      5  C   UNL     1      -0.213   1.595   0.366  0.00  0.00    +0.029 C 
ATOM      6  C   UNL     1      -0.138   0.079   0.171  0.00  0.00    +0.083 C 
ATOM      7  C   UNL     1       0.382  -0.245  -1.211  0.00  0.00    -0.039 C 
ATOM      8  C   UNL     1       1.280  -1.223  -1.119  0.00  0.00    +0.065 C 
ATOM      9  C   UNL     1       1.427  -1.627   0.330  0.00  0.00    +0.186 C 
ATOM     10  N   UNL     1       0.841  -0.512   1.113  0.00  0.00    -0.271 NA
ATOM     11  C   UNL     1      -0.046   0.432  -2.487  0.00  0.00    +0.042 C 
BRANCH  10  12
ATOM     12  C   UNL     1       1.871   0.468   1.484  0.00  0.00    +0.059 C 
ATOM     13  C   UNL     1       2.770   0.746   0.278  0.00  0.00    +0.019 C 
ATOM     14  C   UNL     1       3.843   1.766   0.665  0.00  0.00    +0.002 C 
ATOM     15  C   UNL     1       4.687   1.207   1.812  0.00  0.00    +0.000 C 
ATOM     16  C   UNL     1       3.788   0.929   3.018  0.00  0.00    +0.002 C 
ATOM     17  C   UNL     1       2.716  -0.091   2.631  0.00  0.00    +0.019 C 
ENDBRANCH  10  12
BRANCH   8  18
ATOM     18  C   UNL     1       1.992  -1.802  -2.219  0.00  0.00    +0.098 C 
ATOM     19  N   UNL     1       2.558  -2.261  -3.091  0.00  0.00    -0.191 NA
ENDBRANCH   8  18
ENDBRANCH   1   9
BRANCH   2  20
ATOM     20  C   UNL     1       0.499  -5.118   1.596  0.00  0.00    +0.019 C 
BRANCH  20  21
ATOM     21  N   UNL     1       1.321  -6.011   2.423  0.00  0.00    +0.386 N 
ATOM     22  C   UNL     1       1.536  -5.397   3.739  0.00  0.00    -0.076 C 
ATOM     23  C   UNL     1       2.459  -6.285   4.576  0.00  0.00    +0.006 C 
ATOM     24  C   UNL     1       1.811  -7.661   4.753  0.00  0.00    +0.089 C 
ATOM     25  C   UNL     1       1.524  -8.261   3.373  0.00  0.00    +0.006 C 
ATOM     26  C   UNL     1       0.635  -7.299   2.581  0.00  0.00    -0.076 C 
ATOM     27  H   UNL     1       2.212  -6.159   1.973  0.00  0.00    -0.081 HD
BRANCH  24  28
ATOM     28  N   UNL     1       2.723  -8.541   5.489  0.00  0.00    -0.289 N 
ATOM     29  C   UNL     1       2.454  -9.158   6.708  0.00  0.00    +0.070 A 
ATOM     30  C   UNL     1       1.355  -9.154   7.554  0.00  0.00    +0.028 A 
ATOM     31  C   UNL     1       1.387  -9.884   8.726  0.00  0.00    +0.002 A 
ATOM     32  C   UNL     1       2.512 -10.619   9.060  0.00  0.00    +0.002 A 
ATOM     33  C   UNL     1       3.611 -10.628   8.224  0.00  0.00    +0.028 A 
ATOM     34  C   UNL     1       3.588  -9.899   7.045  0.00  0.00    +0.067 A 
ATOM     35  N   UNL     1       4.511  -9.710   6.020  0.00  0.00    -0.306 N 
ATOM     36  H   UNL     1       5.398 -10.101   5.975  0.00  0.00    +0.170 HD
ATOM     37  C   UNL     1       3.962  -8.896   5.099  0.00  0.00    +0.328 A 
ATOM     38  O   UNL     1       4.504  -8.533   4.072  0.00  0.00    -0.247 OA
ENDBRANCH  24  28
ENDBRANCH  20  21
ENDBRANCH   2  20
TORSDOF 6
