REMARK  Name = ZINC42413845
REMARK  4 active torsions:
REMARK  status: ('A' for Active; 'I' for Inactive)
REMARK    1  A    between atoms: C_3  and  S_9
REMARK    2  A    between atoms: C_4  and  N_8
REMARK    3  A    between atoms: S_9  and  N_12
REMARK    4  A    between atoms: N_12  and  C_13
REMARK                            x       y       z     vdW  Elec       q    Type
REMARK                         _______ _______ _______ _____ _____    ______ ____
ROOT
ATOM      1  C   UNL     1      -0.017   1.379   0.010  0.00  0.00    +0.017 A 
ATOM      2  C   UNL     1       1.170   2.090   0.002  0.00  0.00    +0.032 A 
ATOM      3  C   UNL     1       2.377   1.421  -0.013  0.00  0.00    +0.131 A 
ATOM      4  C   UNL     1       2.400   0.031  -0.021  0.00  0.00    +0.053 A 
ATOM      5  C   UNL     1       1.208  -0.680  -0.013  0.00  0.00    +0.040 A 
ATOM      6  C   UNL     1       0.002  -0.004   0.002  0.00  0.00    +0.020 A 
ATOM      7 BR   UNL     1      -1.623  -0.971   0.013  0.00  0.00    -0.050 Br
ENDROOT
BRANCH   4   8
ATOM      8  N   UNL     1       3.620  -0.648  -0.037  0.00  0.00    -0.356 N 
ATOM      9  H   UNL     1       4.453  -0.150  -0.043  0.00  0.00    +0.142 HD
ATOM     10  H   UNL     1       3.635  -1.618  -0.043  0.00  0.00    +0.142 HD
ENDBRANCH   4   8
BRANCH   3  11
ATOM     11  S   UNL     1       3.888   2.327  -0.024  0.00  0.00    +0.095 S 
ATOM     12  O   UNL     1       4.687   1.774  -1.061  0.00  0.00    -0.148 OA
ATOM     13  O   UNL     1       3.536   3.704   0.013  0.00  0.00    -0.148 OA
BRANCH  11  14
ATOM     14  N   UNL     1       4.666   1.999   1.400  0.00  0.00    -0.076 NA
BRANCH  14  15
ATOM     15  C   UNL     1       5.907   2.588   1.672  0.00  0.00    +0.184 A 
ATOM     16  C   UNL     1       6.676   2.394   2.831  0.00  0.00    +0.068 A 
ATOM     17  C   UNL     1       7.801   3.135   2.711  0.00  0.00    +0.107 A 
ATOM     18  N   UNL     1       7.751   3.774   1.523  0.00  0.00    -0.283 N 
ATOM     19  H   UNL     1       8.426   4.376   1.171  0.00  0.00    +0.188 HD
ATOM     20  N   UNL     1       6.558   3.413   0.885  0.00  0.00    -0.155 NA
ENDBRANCH  14  15
ENDBRANCH  11  14
ENDBRANCH   3  11
TORSDOF 4
