REMARK  Name = ZINC18201124
REMARK  6 active torsions:
REMARK  status: ('A' for Active; 'I' for Inactive)
REMARK    1  A    between atoms: C_1  and  O_2
REMARK    2  A    between atoms: O_2  and  C_3
REMARK    3  A    between atoms: C_5  and  C_17
REMARK    4  A    between atoms: C_8  and  O_9
REMARK    5  A    between atoms: O_9  and  C_10
REMARK    6  A    between atoms: C_10  and  C_11
REMARK                            x       y       z     vdW  Elec       q    Type
REMARK                         _______ _______ _______ _____ _____    ______ ____
ROOT
ATOM      1  C   UNL     1       2.462   0.334   4.204  0.00  0.00    +0.093 C 
ATOM      2  C   UNL     1       1.815  -0.010   5.522  0.00  0.00    +0.067 A 
ATOM      3  C   UNL     1       2.445  -0.748   6.475  0.00  0.00    +0.114 A 
ATOM      4  N   UNL     1       1.790  -1.030   7.654  0.00  0.00    -0.295 N 
ATOM      5  C   UNL     1       0.542  -0.579   7.868  0.00  0.00    +0.328 A 
ATOM      6  O   UNL     1      -0.018  -0.838   8.916  0.00  0.00    -0.247 OA
ATOM      7  N   UNL     1      -0.095   0.157   6.939  0.00  0.00    -0.275 N 
ATOM      8  C   UNL     1       0.507   0.453   5.772  0.00  0.00    +0.260 A 
ATOM      9  O   UNL     1      -0.077   1.119   4.935  0.00  0.00    -0.267 OA
ATOM     10  N   UNL     1       3.728  -1.224   6.307  0.00  0.00    -0.300 N 
ATOM     11  C   UNL     1       4.493  -0.707   5.286  0.00  0.00    +0.048 C 
ATOM     12  C   UNL     1       3.937   0.036   4.276  0.00  0.00    +0.034 C 
ATOM     13  C   UNL     1       4.946   0.442   3.374  0.00  0.00    +0.193 C 
ATOM     14  O   UNL     1       4.788   1.116   2.374  0.00  0.00    -0.287 OA
ATOM     15  C   UNL     1       6.229  -0.102   3.869  0.00  0.00    +0.031 A 
ATOM     16  C   UNL     1       5.938  -0.817   5.059  0.00  0.00    +0.007 A 
ATOM     17  C   UNL     1       6.941  -1.454   5.771  0.00  0.00    +0.010 A 
ATOM     18  C   UNL     1       8.239  -1.356   5.262  0.00  0.00    +0.001 A 
ATOM     19  C   UNL     1       8.519  -0.661   4.110  0.00  0.00    +0.001 A 
ATOM     20  C   UNL     1       7.518  -0.012   3.379  0.00  0.00    +0.012 A 
ATOM     21  H   UNL     1       4.083  -1.909   6.896  0.00  0.00    +0.154 HD
ATOM     22  H   UNL     1      -0.995   0.476   7.112  0.00  0.00    +0.173 HD
ATOM     23  H   UNL     1       2.233  -1.559   8.335  0.00  0.00    +0.172 HD
ENDROOT
BRANCH   1  26
ATOM     24  C   UNL     1       0.626  -0.619   1.042  0.00  0.00    +0.162 A 
ATOM     25  C   UNL     1       1.202   0.137   2.051  0.00  0.00    +0.054 A 
ATOM     26  C   UNL     1       1.836  -0.490   3.108  0.00  0.00    -0.031 A 
ATOM     27  C   UNL     1       1.897  -1.870   3.161  0.00  0.00    +0.008 A 
ATOM     28  C   UNL     1       1.325  -2.630   2.158  0.00  0.00    +0.050 A 
ATOM     29  C   UNL     1       0.683  -2.008   1.099  0.00  0.00    +0.162 A 
BRANCH  24  31
ATOM     30  C   UNL     1      -0.017   1.425   0.010  0.00  0.00    +0.277 C 
ATOM     31  O   UNL     1       0.002  -0.004   0.002  0.00  0.00    -0.491 OA
ENDBRANCH  24  31
BRANCH  29  32
ATOM     32  O   UNL     1       0.115  -2.754   0.114  0.00  0.00    -0.484 OA
BRANCH  32  33
ATOM     33  C   UNL     1       0.211  -4.174   0.238  0.00  0.00    +0.264 C 
BRANCH  33  34
ATOM     34  C   UNL     1      -0.470  -4.829  -0.936  0.00  0.00    -0.010 A 
ATOM     35  C   UNL     1      -1.815  -5.141  -0.868  0.00  0.00    +0.007 A 
ATOM     36  C   UNL     1      -2.440  -5.741  -1.945  0.00  0.00    +0.000 A 
ATOM     37  C   UNL     1      -1.721  -6.029  -3.090  0.00  0.00    +0.000 A 
ATOM     38  C   UNL     1      -0.376  -5.716  -3.158  0.00  0.00    +0.000 A 
ATOM     39  C   UNL     1       0.248  -5.112  -2.083  0.00  0.00    +0.007 A 
ENDBRANCH  33  34
ENDBRANCH  32  33
ENDBRANCH  29  32
ENDBRANCH   1  26
TORSDOF 5
