REMARK  Name = ZINC18355934
REMARK  10 active torsions:
REMARK  status: ('A' for Active; 'I' for Inactive)
REMARK    1  A    between atoms: C_1  and  C_2
REMARK    2  A    between atoms: C_2  and  C_3
REMARK    3  A    between atoms: C_2  and  C_4
REMARK    4  A    between atoms: C_4  and  C_6
REMARK    5  A    between atoms: C_4  and  N_17
REMARK    6  A    between atoms: C_18  and  C_20
REMARK    7  A    between atoms: C_20  and  S_21
REMARK    8  A    between atoms: S_21  and  C_22
REMARK    9  A    between atoms: C_25  and  C_28
REMARK   10  A    between atoms: N_26  and  N_27
REMARK                            x       y       z     vdW  Elec       q    Type
REMARK                         _______ _______ _______ _____ _____    ______ ____
ROOT
ATOM      1  N   UNL     1       1.426  -9.429  -0.046  0.00  0.00    -0.308 N 
ATOM      2  C   UNL     1       2.206  -8.332  -0.120  0.00  0.00    +0.224 C 
ATOM      3  O   UNL     1       3.408  -8.450  -0.235  0.00  0.00    -0.275 OA
ATOM      4  H   UNL     1       0.465  -9.334   0.045  0.00  0.00    +0.149 HD
ENDROOT
BRANCH   1   5
ATOM      5  C   UNL     1       2.028 -10.762  -0.105  0.00  0.00    +0.106 C 
BRANCH   5   6
ATOM      6  C   UNL     1       1.125 -11.753   0.584  0.00  0.00    -0.023 A 
ATOM      7  C   UNL     1      -0.245 -11.666   0.419  0.00  0.00    +0.009 A 
ATOM      8  C   UNL     1      -1.081 -12.571   1.049  0.00  0.00    +0.050 A 
ATOM      9  C   UNL     1      -0.539 -13.565   1.847  0.00  0.00    +0.162 A 
ATOM     10  C   UNL     1       0.836 -13.652   2.011  0.00  0.00    +0.162 A 
ATOM     11  C   UNL     1       1.669 -12.748   1.375  0.00  0.00    +0.055 A 
ATOM     12  O   UNL     1       1.359 -14.636   2.800  0.00  0.00    -0.488 OA
ATOM     13  C   UNL     1       1.229 -15.970   2.304  0.00  0.00    +0.232 C 
ATOM     14  C   UNL     1      -0.127 -16.551   2.672  0.00  0.00    +0.082 C 
ATOM     15  C   UNL     1      -1.275 -15.811   2.004  0.00  0.00    +0.232 C 
ATOM     16  O   UNL     1      -1.352 -14.464   2.474  0.00  0.00    -0.488 OA
ENDBRANCH   5   6
BRANCH   5  18
ATOM     17  C   UNL     1       2.845 -12.567  -1.627  0.00  0.00    +0.009 C 
ATOM     18  C   UNL     1       2.216 -11.174  -1.566  0.00  0.00    +0.008 C 
ATOM     19  C   UNL     1       0.856 -11.198  -2.268  0.00  0.00    +0.009 C 
ENDBRANCH   5  18
ENDBRANCH   1   5
BRANCH   2  20
ATOM     20  C   UNL     1       1.586  -6.960  -0.061  0.00  0.00    +0.173 C 
BRANCH  20  21
ATOM     21  S   UNL     1       2.885  -5.705  -0.184  0.00  0.00    -0.075 S 
BRANCH  21  22
ATOM     22  C   UNL     1       1.907  -4.243  -0.090  0.00  0.00    +0.209 A 
ATOM     23  N   UNL     1       0.599  -4.186   0.035  0.00  0.00    -0.121 NA
ATOM     24  N   UNL     1       0.213  -2.961   0.079  0.00  0.00    -0.127 NA
ATOM     25  C   UNL     1       1.249  -2.160  -0.026  0.00  0.00    +0.183 A 
ATOM     26  N   UNL     1       2.365  -2.957  -0.133  0.00  0.00    -0.224 N 
BRANCH  25  27
ATOM     27  C   UNL     1       1.221  -0.683  -0.022  0.00  0.00    +0.039 A 
ATOM     28  C   UNL     1       1.944   0.035  -0.977  0.00  0.00    +0.013 A 
ATOM     29  C   UNL     1       1.914   1.414  -0.968  0.00  0.00    +0.001 A 
ATOM     30  C   UNL     1       1.170   2.087  -0.016  0.00  0.00    +0.001 A 
ATOM     31  C   UNL     1       0.451   1.383   0.934  0.00  0.00    +0.021 A 
ATOM     32  C   UNL     1       0.471   0.003   0.936  0.00  0.00    +0.052 A 
ATOM     33 CL   UNL     1      -0.432  -0.879   2.128  0.00  0.00    -0.083 Cl
ENDBRANCH  25  27
BRANCH  26  34
ATOM     34  N   UNL     1       3.663  -2.547  -0.257  0.00  0.00    -0.295 N 
ATOM     35  H   UNL     1       4.121  -2.521   0.641  0.00  0.00    +0.163 HD
ATOM     36  H   UNL     1       4.167  -3.135  -0.904  0.00  0.00    +0.163 HD
ENDBRANCH  26  34
ENDBRANCH  21  22
ENDBRANCH  20  21
ENDBRANCH   2  20
TORSDOF 8
