REMARK  Name = ZINC39665581
REMARK  9 active torsions:
REMARK  status: ('A' for Active; 'I' for Inactive)
REMARK    1  A    between atoms: C_1  and  C_2
REMARK    2  A    between atoms: C_2  and  C_4
REMARK    3  A    between atoms: C_2  and  O_28
REMARK    4  A    between atoms: C_4  and  N_5
REMARK    5  A    between atoms: C_6  and  C_8
REMARK    6  A    between atoms: C_19  and  C_21
REMARK    7  A    between atoms: O_28  and  C_29
REMARK    8  A    between atoms: C_32  and  O_35
REMARK    9  A    between atoms: O_35  and  C_36
REMARK                            x       y       z     vdW  Elec       q    Type
REMARK                         _______ _______ _______ _____ _____    ______ ____
ROOT
ATOM      1  C   UNL     1       2.832  -2.182   3.169  0.00  0.00    +0.100 C 
ATOM      2  C   UNL     1       1.490  -2.911   3.400  0.00  0.00    +0.121 C 
ATOM      3  N   UNL     1       1.771  -3.877   4.488  0.00  0.00    -0.296 N 
ATOM      4  C   UNL     1       2.661  -3.139   5.416  0.00  0.00    +0.115 C 
ATOM      5  C   UNL     1       3.598  -2.333   4.495  0.00  0.00    -0.004 C 
ATOM      6  C   UNL     1       3.881  -0.962   5.100  0.00  0.00    -0.010 C 
ATOM      7  C   UNL     1       4.693  -1.135   6.387  0.00  0.00    -0.082 C 
ATOM      8  N   UNL     1       5.951  -1.828   6.084  0.00  0.00    +0.379 N 
ATOM      9  C   UNL     1       5.671  -3.181   5.590  0.00  0.00    -0.082 C 
ATOM     10  C   UNL     1       4.900  -3.095   4.269  0.00  0.00    -0.010 C 
ATOM     11  C   UNL     1       1.321  -5.142   4.607  0.00  0.00    +0.247 C 
ATOM     12  O   UNL     1       0.683  -5.647   3.704  0.00  0.00    -0.270 OA
ATOM     13  H   UNL     1       6.457  -1.312   5.380  0.00  0.00    -0.086 HD
ATOM     14  H   UNL     1       6.511  -1.886   6.922  0.00  0.00    -0.086 HD
ENDROOT
BRANCH  11  15
ATOM     15  C   UNL     1       1.603  -5.915   5.835  0.00  0.00    +0.038 A 
ATOM     16  C   UNL     1       1.919  -5.253   7.023  0.00  0.00    +0.013 A 
ATOM     17  C   UNL     1       2.182  -5.980   8.165  0.00  0.00    +0.002 A 
ATOM     18  C   UNL     1       2.132  -7.363   8.137  0.00  0.00    +0.015 A 
ATOM     19  C   UNL     1       1.820  -8.026   6.962  0.00  0.00    +0.019 A 
ATOM     20  C   UNL     1       1.549  -7.309   5.813  0.00  0.00    +0.028 A 
ATOM     21 BR   UNL     1       1.757  -9.915   6.934  0.00  0.00    -0.050 Br
ENDBRANCH  11  15
BRANCH   1  23
ATOM     22  N   UNL     1       3.461  -0.048   2.088  0.00  0.00    -0.312 N 
ATOM     23  C   UNL     1       2.593  -0.726   2.864  0.00  0.00    +0.218 C 
ATOM     24  O   UNL     1       1.618  -0.164   3.317  0.00  0.00    -0.275 OA
ATOM     25  H   UNL     1       4.241  -0.498   1.725  0.00  0.00    +0.149 HD
BRANCH  22  26
ATOM     26  C   UNL     1       3.228   1.368   1.792  0.00  0.00    +0.148 C 
BRANCH  26  28
ATOM     27  C   UNL     1       4.110   3.372   0.588  0.00  0.00    +0.053 C 
ATOM     28  C   UNL     1       4.353   1.893   0.897  0.00  0.00    +0.187 C 
BRANCH  28  29
ATOM     29  O   UNL     1       5.605   1.747   1.571  0.00  0.00    -0.488 OA
BRANCH  29  30
ATOM     30  C   UNL     1       6.718   1.659   0.794  0.00  0.00    +0.121 A 
ATOM     31  C   UNL     1       7.949   1.395   1.375  0.00  0.00    +0.049 A 
ATOM     32  C   UNL     1       9.079   1.306   0.586  0.00  0.00    +0.049 A 
ATOM     33  C   UNL     1       8.982   1.480  -0.787  0.00  0.00    +0.120 A 
ATOM     34  C   UNL     1       7.750   1.743  -1.367  0.00  0.00    +0.049 A 
ATOM     35  C   UNL     1       6.620   1.828  -0.579  0.00  0.00    +0.049 A 
BRANCH  33  36
ATOM     36  O   UNL     1      10.095   1.393  -1.564  0.00  0.00    -0.495 OA
ATOM     37  C   UNL     1       9.922   1.583  -2.970  0.00  0.00    +0.277 C 
ENDBRANCH  33  36
ENDBRANCH  29  30
ENDBRANCH  28  29
ENDBRANCH  26  28
ENDBRANCH  22  26
ENDBRANCH   1  23
TORSDOF 7
