REMARK  Name = ZINC22204935
REMARK  11 active torsions:
REMARK  status: ('A' for Active; 'I' for Inactive)
REMARK    1  A    between atoms: C_1  and  C_2
REMARK    2  A    between atoms: C_2  and  C_3
REMARK    3  A    between atoms: C_3  and  C_4
REMARK    4  A    between atoms: C_4  and  N_5
REMARK    5  A    between atoms: C_21  and  C_26
REMARK    6  A    between atoms: C_28  and  O_36
REMARK    7  A    between atoms: C_29  and  O_34
REMARK    8  A    between atoms: C_30  and  O_32
REMARK    9  A    between atoms: O_32  and  C_33
REMARK   10  A    between atoms: O_34  and  C_35
REMARK   11  A    between atoms: O_36  and  C_37
REMARK                            x       y       z     vdW  Elec       q    Type
REMARK                         _______ _______ _______ _____ _____    ______ ____
ROOT
ATOM      1  N   UNL     1      -0.018   1.461   0.010  0.00  0.00    -0.224 N 
ATOM      2  C   UNL     1      -1.144   2.203   0.019  0.00  0.00    +0.244 C 
ATOM      3  O   UNL     1      -2.286   1.797   0.037  0.00  0.00    -0.273 OA
ATOM      4  C   UNL     1      -0.688   3.648   0.004  0.00  0.00    +0.169 C 
ATOM      5  C   UNL     1      -1.135   4.370   1.281  0.00  0.00    +0.069 C 
ATOM      6  C   UNL     1      -0.206   5.526   1.555  0.00  0.00    -0.015 A 
ATOM      7  C   UNL     1      -0.459   6.679   2.399  0.00  0.00    +0.003 A 
ATOM      8  C   UNL     1      -1.562   7.064   3.167  0.00  0.00    +0.010 A 
ATOM      9  C   UNL     1      -1.454   8.246   3.858  0.00  0.00    +0.001 A 
ATOM     10  C   UNL     1      -0.311   9.026   3.806  0.00  0.00    +0.002 A 
ATOM     11  C   UNL     1       0.795   8.669   3.054  0.00  0.00    +0.026 A 
ATOM     12  C   UNL     1       0.713   7.475   2.341  0.00  0.00    +0.047 A 
ATOM     13  N   UNL     1       1.596   6.837   1.518  0.00  0.00    -0.356 N 
ATOM     14  H   UNL     1       2.585   7.279   1.325  0.00  0.00    +0.166 HD
ATOM     15  C   UNL     1       1.037   5.677   1.052  0.00  0.00    +0.046 A 
ATOM     16  C   UNL     1       1.684   4.688   0.124  0.00  0.00    +0.156 C 
ATOM     17  N   UNL     1       0.786   3.529   0.040  0.00  0.00    -0.261 N 
ATOM     18  C   UNL     1       1.081   2.229   0.004  0.00  0.00    +0.313 C 
ATOM     19  O   UNL     1       2.215   1.791  -0.031  0.00  0.00    -0.252 OA
ENDROOT
BRANCH  16  20
ATOM     20  C   UNL     1       3.032   4.262   0.646  0.00  0.00    -0.014 A 
ATOM     21  C   UNL     1       3.113   3.336   1.670  0.00  0.00    +0.055 A 
ATOM     22  C   UNL     1       4.352   2.937   2.150  0.00  0.00    +0.165 A 
ATOM     23  C   UNL     1       5.512   3.477   1.607  0.00  0.00    +0.204 A 
ATOM     24  C   UNL     1       5.426   4.411   0.582  0.00  0.00    +0.165 A 
ATOM     25  C   UNL     1       4.183   4.801   0.104  0.00  0.00    +0.055 A 
BRANCH  24  26
ATOM     26  O   UNL     1       6.558   4.942   0.047  0.00  0.00    -0.491 OA
ATOM     27  C   UNL     1       6.393   5.897  -1.003  0.00  0.00    +0.277 C 
ENDBRANCH  24  26
BRANCH  23  28
ATOM     28  O   UNL     1       6.729   3.091   2.078  0.00  0.00    -0.488 OA
ATOM     29  C   UNL     1       7.275   3.846   3.161  0.00  0.00    +0.277 C 
ENDBRANCH  23  28
BRANCH  22  30
ATOM     30  O   UNL     1       4.431   2.023   3.153  0.00  0.00    -0.491 OA
ATOM     31  C   UNL     1       3.198   1.511   3.663  0.00  0.00    +0.277 C 
ENDBRANCH  22  30
ENDBRANCH  16  20
BRANCH   1  32
ATOM     32  C   UNL     1       0.002  -0.004   0.002  0.00  0.00    +0.118 C 
BRANCH  32  33
ATOM     33  C   UNL     1       0.022  -0.522   1.442  0.00  0.00    +0.019 C 
BRANCH  33  35
ATOM     34  C   UNL     1       0.063  -2.569   2.873  0.00  0.00    +0.004 C 
ATOM     35  C   UNL     1       0.043  -2.052   1.433  0.00  0.00    -0.002 C 
ENDBRANCH  33  35
ENDBRANCH  32  33
ENDBRANCH   1  32
TORSDOF 7
