REMARK  Name = ZINC10995835
REMARK  8 active torsions:
REMARK  status: ('A' for Active; 'I' for Inactive)
REMARK    1  A    between atoms: C_1  and  C_2
REMARK    2  A    between atoms: C_4  and  N_7
REMARK    3  A    between atoms: C_8  and  C_10
REMARK    4  A    between atoms: C_10  and  C_12
REMARK    5  A    between atoms: C_10  and  S_13
REMARK    6  A    between atoms: S_13  and  C_14
REMARK    7  A    between atoms: C_17  and  C_20
REMARK    8  A    between atoms: N_18  and  N_19
REMARK                            x       y       z     vdW  Elec       q    Type
REMARK                         _______ _______ _______ _____ _____    ______ ____
ROOT
ATOM      1  C   UNL     1      -0.602  -8.399  -2.204  0.00  0.00    +0.209 A 
ATOM      2  N   UNL     1      -0.368  -8.263  -3.490  0.00  0.00    -0.121 NA
ATOM      3  N   UNL     1      -0.596  -9.371  -4.099  0.00  0.00    -0.127 NA
ATOM      4  C   UNL     1      -0.989 -10.283  -3.240  0.00  0.00    +0.183 A 
ATOM      5  N   UNL     1      -1.000  -9.689  -1.998  0.00  0.00    -0.224 N 
ENDROOT
BRANCH   4   6
ATOM      6  C   UNL     1      -1.348 -11.684  -3.547  0.00  0.00    +0.035 A 
ATOM      7  C   UNL     1      -2.523 -12.235  -3.033  0.00  0.00    +0.013 A 
ATOM      8  C   UNL     1      -2.852 -13.543  -3.324  0.00  0.00    +0.001 A 
ATOM      9  C   UNL     1      -2.020 -14.308  -4.123  0.00  0.00    +0.001 A 
ATOM     10  C   UNL     1      -0.854 -13.768  -4.635  0.00  0.00    +0.016 A 
ATOM     11  C   UNL     1      -0.515 -12.459  -4.357  0.00  0.00    +0.029 A 
ATOM     12 BR   UNL     1       1.075 -11.720  -5.064  0.00  0.00    -0.050 Br
ENDBRANCH   4   6
BRANCH   5  13
ATOM     13  N   UNL     1      -1.339 -10.269  -0.809  0.00  0.00    -0.295 N 
ATOM     14  H   UNL     1      -2.338 -10.242  -0.666  0.00  0.00    +0.163 HD
ATOM     15  H   UNL     1      -0.992 -11.215  -0.756  0.00  0.00    +0.163 HD
ENDBRANCH   5  13
BRANCH   1  16
ATOM     16  S   UNL     1      -0.428  -7.151  -0.972  0.00  0.00    -0.072 S 
BRANCH  16  17
ATOM     17  C   UNL     1       0.123  -5.693  -1.901  0.00  0.00    +0.137 C 
ATOM     18  C   UNL     1       1.507  -5.960  -2.495  0.00  0.00    +0.029 C 
BRANCH  17  20
ATOM     19  N   UNL     1       0.081  -3.257  -1.470  0.00  0.00    -0.253 N 
ATOM     20  C   UNL     1       0.195  -4.505  -0.975  0.00  0.00    +0.233 C 
ATOM     21  O   UNL     1       0.355  -4.673   0.215  0.00  0.00    -0.274 OA
ATOM     22  H   UNL     1      -0.047  -3.123  -2.422  0.00  0.00    +0.158 HD
BRANCH  19  26
ATOM     23  C   UNL     1       0.112   1.428   0.234  0.00  0.00    +0.069 C 
ATOM     24  C   UNL     1       0.165  -0.077   0.176  0.00  0.00    +0.082 A 
ATOM     25  C   UNL     1       0.048  -0.860  -0.981  0.00  0.00    +0.092 A 
ATOM     26  C   UNL     1       0.147  -2.164  -0.618  0.00  0.00    +0.224 A 
ATOM     27  O   UNL     1       0.320  -2.208   0.714  0.00  0.00    -0.339 OA
ATOM     28  N   UNL     1       0.332  -0.876   1.194  0.00  0.00    -0.081 NA
ENDBRANCH  19  26
ENDBRANCH  17  20
ENDBRANCH  16  17
ENDBRANCH   1  16
TORSDOF 6
