REMARK  Name = ZINC33307013
REMARK  9 active torsions:
REMARK  status: ('A' for Active; 'I' for Inactive)
REMARK    1  A    between atoms: C_4  and  C_7
REMARK    2  A    between atoms: C_9  and  C_12
REMARK    3  A    between atoms: C_17  and  S_18
REMARK    4  A    between atoms: S_18  and  N_21
REMARK    5  A    between atoms: N_21  and  C_22
REMARK    6  A    between atoms: C_22  and  C_23
REMARK    7  A    between atoms: C_23  and  C_24
REMARK    8  A    between atoms: C_27  and  S_30
REMARK    9  A    between atoms: S_30  and  N_33
REMARK                            x       y       z     vdW  Elec       q    Type
REMARK                         _______ _______ _______ _____ _____    ______ ____
ROOT
ATOM      1  S   UNL     1      -0.229   5.494   0.213  0.00  0.00    +0.059 S 
ATOM      2  O   UNL     1       0.480   6.007  -0.907  0.00  0.00    -0.153 OA
ATOM      3  O   UNL     1      -1.626   5.690   0.385  0.00  0.00    -0.153 OA
ENDROOT
BRANCH   1   9
ATOM      4  C   UNL     1      -0.485   2.970   1.254  0.00  0.00    +0.066 A 
ATOM      5  C   UNL     1      -0.266   1.592   1.256  0.00  0.00    +0.015 A 
ATOM      6  C   UNL     1       0.467   1.011   0.241  0.00  0.00    +0.001 A 
ATOM      7  C   UNL     1       0.989   1.793  -0.774  0.00  0.00    +0.002 A 
ATOM      8  C   UNL     1       0.771   3.159  -0.784  0.00  0.00    +0.029 A 
ATOM      9  C   UNL     1       0.041   3.752   0.224  0.00  0.00    +0.118 A 
BRANCH   4  12
ATOM     10  C   UNL     1      -2.479   3.949   4.049  0.00  0.00    +0.202 A 
ATOM     11  N   UNL     1      -1.918   2.975   3.303  0.00  0.00    -0.187 NA
ATOM     12  C   UNL     1      -1.269   3.599   2.338  0.00  0.00    +0.261 A 
ATOM     13  O   UNL     1      -1.463   4.914   2.525  0.00  0.00    -0.332 OA
ATOM     14  N   UNL     1      -2.155   5.094   3.505  0.00  0.00    -0.056 NA
BRANCH  10  18
ATOM     15  C   UNL     1      -4.872   3.399   7.521  0.00  0.00    +0.000 A 
ATOM     16  C   UNL     1      -4.612   4.676   7.059  0.00  0.00    +0.001 A 
ATOM     17  C   UNL     1      -3.835   4.861   5.933  0.00  0.00    +0.012 A 
ATOM     18  C   UNL     1      -3.315   3.757   5.261  0.00  0.00    +0.022 A 
ATOM     19  C   UNL     1      -3.586   2.472   5.727  0.00  0.00    +0.012 A 
ATOM     20  C   UNL     1      -4.358   2.300   6.858  0.00  0.00    +0.001 A 
ENDBRANCH  10  18
ENDBRANCH   4  12
ENDBRANCH   1   9
BRANCH   1  21
ATOM     21  N   UNL     1       0.506   6.112   1.562  0.00  0.00    -0.190 NA
ATOM     22  H   UNL     1      -0.114   6.430   2.413  0.00  0.00    +0.148 HD
BRANCH  21  23
ATOM     23  C   UNL     1       1.961   6.031   1.706  0.00  0.00    +0.110 C 
BRANCH  23  24
ATOM     24  C   UNL     1       2.420   6.995   2.802  0.00  0.00    +0.052 C 
BRANCH  24  25
ATOM     25  C   UNL     1       3.917   6.912   2.949  0.00  0.00    -0.046 A 
ATOM     26  C   UNL     1       4.476   6.011   3.837  0.00  0.00    +0.005 A 
ATOM     27  C   UNL     1       5.849   5.932   3.969  0.00  0.00    +0.029 A 
ATOM     28  C   UNL     1       6.665   6.760   3.220  0.00  0.00    +0.105 A 
ATOM     29  C   UNL     1       6.106   7.664   2.336  0.00  0.00    +0.029 A 
ATOM     30  C   UNL     1       4.733   7.740   2.201  0.00  0.00    +0.005 A 
BRANCH  28  31
ATOM     31  S   UNL     1       8.416   6.662   3.392  0.00  0.00    +0.056 S 
ATOM     32  O   UNL     1       8.704   5.359   3.881  0.00  0.00    -0.153 OA
ATOM     33  O   UNL     1       8.971   7.161   2.183  0.00  0.00    -0.153 OA
BRANCH  31  34
ATOM     34  N   UNL     1       8.851   7.723   4.586  0.00  0.00    -0.204 NA
ATOM     35  H   UNL     1       9.941   7.692   4.724  0.00  0.00    +0.144 HD
ATOM     36  H   UNL     1       8.354   7.442   5.526  0.00  0.00    +0.144 HD
ENDBRANCH  31  34
ENDBRANCH  28  31
ENDBRANCH  24  25
ENDBRANCH  23  24
ENDBRANCH  21  23
ENDBRANCH   1  21
TORSDOF 9
