REMARK  Name = ZINC39664052
REMARK  8 active torsions:
REMARK  status: ('A' for Active; 'I' for Inactive)
REMARK    1  A    between atoms: C_1  and  O_2
REMARK    2  A    between atoms: O_2  and  C_3
REMARK    3  A    between atoms: C_6  and  C_9
REMARK    4  A    between atoms: C_9  and  C_11
REMARK    5  A    between atoms: C_9  and  N_35
REMARK    6  A    between atoms: C_11  and  N_12
REMARK    7  A    between atoms: C_13  and  C_15
REMARK    8  A    between atoms: C_26  and  C_28
REMARK                            x       y       z     vdW  Elec       q    Type
REMARK                         _______ _______ _______ _____ _____    ______ ____
ROOT
ATOM      1  C   UNL     1       6.521  -5.481  -6.749  0.00  0.00    +0.100 C 
ATOM      2  C   UNL     1       6.422  -4.489  -7.930  0.00  0.00    +0.121 C 
ATOM      3  N   UNL     1       7.738  -3.810  -7.960  0.00  0.00    -0.296 N 
ATOM      4  C   UNL     1       8.714  -4.885  -7.659  0.00  0.00    +0.115 C 
ATOM      5  C   UNL     1       8.026  -5.740  -6.576  0.00  0.00    -0.004 C 
ATOM      6  C   UNL     1       8.483  -5.300  -5.188  0.00  0.00    -0.010 C 
ATOM      7  C   UNL     1       9.971  -5.621  -5.020  0.00  0.00    -0.082 C 
ATOM      8  N   UNL     1      10.185  -7.062  -5.194  0.00  0.00    +0.379 N 
ATOM      9  C   UNL     1       9.831  -7.461  -6.561  0.00  0.00    -0.082 C 
ATOM     10  C   UNL     1       8.337  -7.218  -6.795  0.00  0.00    -0.010 C 
ATOM     11  C   UNL     1       7.992  -2.510  -8.206  0.00  0.00    +0.247 C 
ATOM     12  O   UNL     1       7.072  -1.725  -8.334  0.00  0.00    -0.270 OA
ATOM     13  H   UNL     1      11.156  -7.280  -5.023  0.00  0.00    -0.086 HD
ATOM     14  H   UNL     1       9.610  -7.568  -4.538  0.00  0.00    -0.086 HD
ENDROOT
BRANCH  11  15
ATOM     15  C   UNL     1       9.387  -2.037  -8.319  0.00  0.00    +0.037 A 
ATOM     16  C   UNL     1      10.410  -2.938  -8.623  0.00  0.00    +0.014 A 
ATOM     17  C   UNL     1      11.710  -2.491  -8.728  0.00  0.00    +0.021 A 
ATOM     18  C   UNL     1      12.003  -1.152  -8.533  0.00  0.00    +0.041 A 
ATOM     19  C   UNL     1      10.993  -0.253  -8.231  0.00  0.00    +0.021 A 
ATOM     20  C   UNL     1       9.688  -0.687  -8.129  0.00  0.00    +0.014 A 
ATOM     21 CL   UNL     1      13.642  -0.597  -8.665  0.00  0.00    -0.084 Cl
ENDBRANCH  11  15
BRANCH   1  23
ATOM     22  N   UNL     1       5.417  -5.654  -4.542  0.00  0.00    -0.316 N 
ATOM     23  C   UNL     1       5.947  -4.866  -5.498  0.00  0.00    +0.218 C 
ATOM     24  O   UNL     1       5.964  -3.662  -5.352  0.00  0.00    -0.275 OA
ATOM     25  H   UNL     1       5.404  -6.616  -4.659  0.00  0.00    +0.149 HD
BRANCH  22  26
ATOM     26  C   UNL     1       4.860  -5.056  -3.326  0.00  0.00    +0.093 C 
BRANCH  26  27
ATOM     27  C   UNL     1       4.414  -6.164  -2.370  0.00  0.00    -0.020 C 
BRANCH  27  31
ATOM     28  C   UNL     1       1.379  -8.522  -4.238  0.00  0.00    +0.120 A 
ATOM     29  C   UNL     1       2.690  -8.975  -4.208  0.00  0.00    +0.046 A 
ATOM     30  C   UNL     1       3.670  -8.210  -3.604  0.00  0.00    +0.005 A 
ATOM     31  C   UNL     1       3.344  -6.996  -3.029  0.00  0.00    -0.059 A 
ATOM     32  C   UNL     1       2.038  -6.543  -3.057  0.00  0.00    +0.005 A 
ATOM     33  C   UNL     1       1.056  -7.301  -3.666  0.00  0.00    +0.046 A 
BRANCH  28  35
ATOM     34  C   UNL     1       0.819 -10.519  -5.401  0.00  0.00    +0.277 C 
ATOM     35  O   UNL     1       0.414  -9.272  -4.833  0.00  0.00    -0.495 OA
ENDBRANCH  28  35
ENDBRANCH  27  31
BRANCH  27  36
ATOM     36  N   UNL     1       3.881  -5.565  -1.140  0.00  0.00    +0.385 N 
ATOM     37  C   UNL     1       3.436  -6.629  -0.203  0.00  0.00    -0.078 C 
ATOM     38  C   UNL     1       3.451  -5.918   1.173  0.00  0.00    -0.020 C 
ATOM     39  C   UNL     1       4.696  -5.007   1.078  0.00  0.00    -0.020 C 
ATOM     40  C   UNL     1       4.946  -4.823  -0.430  0.00  0.00    -0.078 C 
ATOM     41  H   UNL     1       3.113  -4.948  -1.357  0.00  0.00    -0.081 HD
ENDBRANCH  27  36
ENDBRANCH  26  27
ENDBRANCH  22  26
ENDBRANCH   1  23
TORSDOF 7
