REMARK  Name = ZINC06678517
REMARK  6 active torsions:
REMARK  status: ('A' for Active; 'I' for Inactive)
REMARK    1  A    between atoms: C_1  and  C_2
REMARK    2  A    between atoms: C_2  and  O_3
REMARK    3  A    between atoms: O_3  and  C_4
REMARK    4  A    between atoms: C_9  and  C_10
REMARK    5  A    between atoms: C_13  and  C_25
REMARK    6  A    between atoms: C_21  and  C_24
REMARK                            x       y       z     vdW  Elec       q    Type
REMARK                         _______ _______ _______ _____ _____    ______ ____
ROOT
ATOM      1  C   UNL     1      -4.055  -1.846   0.117  0.00  0.00    +0.116 C 
ATOM      2  C   UNL     1      -4.360  -1.339   1.492  0.00  0.00    +0.032 A 
ATOM      3  C   UNL     1      -3.363  -1.224   2.483  0.00  0.00    +0.066 A 
ATOM      4  N   UNL     1      -3.909  -0.762   3.572  0.00  0.00    -0.177 NA
ATOM      5  N   UNL     1      -5.267  -0.565   3.326  0.00  0.00    -0.263 N 
ATOM      6  H   UNL     1      -5.917  -0.230   3.963  0.00  0.00    +0.190 HD
ATOM      7  C   UNL     1      -5.527  -0.925   2.030  0.00  0.00    +0.125 A 
ATOM      8  N   UNL     1      -6.795  -0.826   1.508  0.00  0.00    -0.270 N 
ATOM      9  C   UNL     1      -7.343  -1.126   0.369  0.00  0.00    +0.231 C 
ATOM     10  O   UNL     1      -8.547  -0.979   0.328  0.00  0.00    -0.274 OA
ATOM     11  C   UNL     1      -6.735  -1.617  -0.885  0.00  0.00    +0.130 C 
ATOM     12  S   UNL     1      -5.401  -2.791  -0.603  0.00  0.00    -0.135 S 
ATOM     13  C   UNL     1      -7.818  -2.299  -1.725  0.00  0.00    +0.029 C 
ATOM     14  C   UNL     1      -1.908  -1.575   2.312  0.00  0.00    +0.068 C 
ATOM     15  H   UNL     1      -7.427  -0.443   2.136  0.00  0.00    +0.156 HD
ENDROOT
BRANCH   1  21
ATOM     16  C   UNL     1      -2.927  -4.012   0.685  0.00  0.00    +0.125 A 
ATOM     17  C   UNL     1      -1.799  -4.818   0.741  0.00  0.00    +0.046 A 
ATOM     18  C   UNL     1      -0.583  -4.332   0.302  0.00  0.00    +0.004 A 
ATOM     19  C   UNL     1      -0.488  -3.044  -0.192  0.00  0.00    +0.001 A 
ATOM     20  C   UNL     1      -1.611  -2.239  -0.248  0.00  0.00    +0.008 A 
ATOM     21  C   UNL     1      -2.831  -2.722   0.184  0.00  0.00    +0.012 A 
BRANCH  16  22
ATOM     22  O   UNL     1      -4.125  -4.487   1.115  0.00  0.00    -0.492 OA
BRANCH  22  24
ATOM     23  C   UNL     1      -5.573  -6.180   2.053  0.00  0.00    +0.048 C 
ATOM     24  C   UNL     1      -4.150  -5.824   1.619  0.00  0.00    +0.225 C 
ENDBRANCH  22  24
ENDBRANCH  16  22
ENDBRANCH   1  21
TORSDOF 3
