REMARK  Name = ZINC37354696
REMARK  5 active torsions:
REMARK  status: ('A' for Active; 'I' for Inactive)
REMARK    1  A    between atoms: C_1  and  N_2
REMARK    2  A    between atoms: N_2  and  C_3
REMARK    3  A    between atoms: N_2  and  C_4
REMARK    4  A    between atoms: C_4  and  C_6
REMARK    5  A    between atoms: C_4  and  C_8
REMARK                            x       y       z     vdW  Elec       q    Type
REMARK                         _______ _______ _______ _____ _____    ______ ____
ROOT
ATOM      1  C   UNL     1      -0.829  -1.672  -0.181  0.00  0.00    -0.011 A 
ATOM      2  C   UNL     1      -1.456  -2.337  -1.219  0.00  0.00    +0.055 A 
ATOM      3  C   UNL     1      -1.133  -3.656  -1.494  0.00  0.00    +0.168 A 
ATOM      4  C   UNL     1      -0.174  -4.309  -0.724  0.00  0.00    +0.184 A 
ATOM      5  C   UNL     1       0.451  -3.638   0.315  0.00  0.00    +0.087 A 
ATOM      6  C   UNL     1       0.127  -2.319   0.580  0.00  0.00    +0.030 A 
ATOM      7 CL   UNL     1       1.646  -4.448   1.278  0.00  0.00    -0.080 Cl
ATOM      8  O   UNL     1      -0.037  -5.585  -1.190  0.00  0.00    -0.451 OA
ATOM      9  C   UNL     1      -1.209  -5.832  -1.988  0.00  0.00    +0.466 C 
ATOM     10  O   UNL     1      -1.595  -4.521  -2.443  0.00  0.00    -0.453 OA
ENDROOT
BRANCH   1  11
ATOM     11  C   UNL     1      -1.182  -0.238   0.116  0.00  0.00    +0.190 C 
BRANCH  11  13
ATOM     12  C   UNL     1      -3.264  -0.955   1.122  0.00  0.00    +0.106 C 
ATOM     13  N   UNL     1      -2.643  -0.084   0.116  0.00  0.00    -0.290 NA
ATOM     14  C   UNL     1      -3.024   1.319   0.328  0.00  0.00    +0.106 C 
ENDBRANCH  11  13
BRANCH  11  15
ATOM     15  C   UNL     1      -0.597   0.635  -0.915  0.00  0.00    +0.086 C 
ATOM     16  N   UNL     1      -0.145   1.309  -1.711  0.00  0.00    -0.195 NA
ENDBRANCH  11  15
ENDBRANCH   1  11
TORSDOF 3
