REMARK  Name = ZINC13127342
REMARK  3 active torsions:
REMARK  status: ('A' for Active; 'I' for Inactive)
REMARK    1  A    between atoms: C_3  and  C_6
REMARK    2  A    between atoms: C_14  and  C_27
REMARK    3  A    between atoms: C_17  and  C_20
REMARK                            x       y       z     vdW  Elec       q    Type
REMARK                         _______ _______ _______ _____ _____    ______ ____
ROOT
ATOM      1  C   UNL     1       3.561   0.619  -0.029  0.00  0.00    +0.286 C 
ATOM      2  O   UNL     1       4.194   1.658  -0.030  0.00  0.00    -0.266 OA
ATOM      3  N   UNL     1       4.206  -0.564  -0.042  0.00  0.00    -0.247 N 
ATOM      4  C   UNL     1       5.603  -0.598  -0.055  0.00  0.00    +0.243 A 
ATOM      5  N   UNL     1       6.408   0.475  -0.052  0.00  0.00    -0.180 NA
ATOM      6  C   UNL     1       7.654   0.084  -0.068  0.00  0.00    +0.216 A 
ATOM      7  N   UNL     1       7.671  -1.270  -0.080  0.00  0.00    -0.224 N 
ATOM      8  N   UNL     1       6.340  -1.686  -0.068  0.00  0.00    -0.131 NA
ATOM      9  C   UNL     1       8.891  -2.078  -0.096  0.00  0.00    +0.143 C 
ATOM     10  C   UNL     1      10.065  -1.211   0.375  0.00  0.00    +0.058 C 
ATOM     11  C   UNL     1      10.065   0.118  -0.389  0.00  0.00    +0.106 C 
ATOM     12  N   UNL     1       8.818   0.842  -0.074  0.00  0.00    -0.307 N 
ATOM     13  H   UNL     1       3.701  -1.392  -0.041  0.00  0.00    +0.158 HD
ATOM     14  H   UNL     1       8.811   1.792   0.117  0.00  0.00    +0.149 HD
ENDROOT
BRANCH  11  15
ATOM     15  C   UNL     1      10.140  -0.149  -1.870  0.00  0.00    -0.027 A 
ATOM     16  C   UNL     1       8.999  -0.501  -2.567  0.00  0.00    +0.007 A 
ATOM     17  C   UNL     1       9.067  -0.746  -3.925  0.00  0.00    +0.020 A 
ATOM     18  C   UNL     1      10.277  -0.639  -4.588  0.00  0.00    +0.041 A 
ATOM     19  C   UNL     1      11.418  -0.286  -3.890  0.00  0.00    +0.020 A 
ATOM     20  C   UNL     1      11.348  -0.036  -2.532  0.00  0.00    +0.007 A 
ATOM     21 CL   UNL     1      10.363  -0.947  -6.294  0.00  0.00    -0.084 Cl
ENDBRANCH  11  15
BRANCH   9  22
ATOM     22  C   UNL     1       8.727  -3.257   0.829  0.00  0.00    -0.023 A 
ATOM     23  C   UNL     1       8.476  -3.051   2.173  0.00  0.00    +0.007 A 
ATOM     24  C   UNL     1       8.326  -4.131   3.022  0.00  0.00    +0.020 A 
ATOM     25  C   UNL     1       8.427  -5.419   2.526  0.00  0.00    +0.041 A 
ATOM     26  C   UNL     1       8.678  -5.625   1.181  0.00  0.00    +0.020 A 
ATOM     27  C   UNL     1       8.823  -4.543   0.332  0.00  0.00    +0.007 A 
ATOM     28 CL   UNL     1       8.239  -6.777   3.591  0.00  0.00    -0.084 Cl
ENDBRANCH   9  22
BRANCH   1  31
ATOM     29  C   UNL     1      -0.016   1.347   0.009  0.00  0.00    +0.042 A 
ATOM     30  C   UNL     1       1.319   1.778  -0.001  0.00  0.00    +0.054 A 
ATOM     31  C   UNL     1       2.095   0.654  -0.014  0.00  0.00    +0.189 A 
ATOM     32  O   UNL     1       1.276  -0.418  -0.012  0.00  0.00    -0.458 OA
ATOM     33  C   UNL     1       0.002  -0.004   0.002  0.00  0.00    +0.196 A 
ENDBRANCH   1  31
TORSDOF 3
