REMARK  Name = ZINC45043828
REMARK  5 active torsions:
REMARK  status: ('A' for Active; 'I' for Inactive)
REMARK    1  A    between atoms: C_1  and  C_2
REMARK    2  A    between atoms: C_2  and  N_8
REMARK    3  A    between atoms: C_9  and  C_11
REMARK    4  A    between atoms: C_11  and  C_12
REMARK    5  A    between atoms: C_12  and  C_13
REMARK                            x       y       z     vdW  Elec       q    Type
REMARK                         _______ _______ _______ _____ _____    ______ ____
ROOT
ATOM      1  N   UNL     1      -1.372  -0.511   0.012  0.00  0.00    -0.310 N 
ATOM      2  C   UNL     1      -2.216  -0.192  -0.989  0.00  0.00    +0.214 C 
ATOM      3  O   UNL     1      -1.838   0.516  -1.898  0.00  0.00    -0.276 OA
ATOM      4  H   UNL     1      -1.675  -1.077   0.740  0.00  0.00    +0.149 HD
ENDROOT
BRANCH   1   6
ATOM      5  C   UNL     1      -0.019   1.526   0.010  0.00  0.00    +0.031 C 
ATOM      6  C   UNL     1       0.002  -0.004   0.002  0.00  0.00    +0.032 C 
ATOM      7  C   UNL     1       0.718  -0.497  -1.257  0.00  0.00    +0.025 C 
ATOM      8  C   UNL     1       0.739  -2.027  -1.265  0.00  0.00    +0.002 C 
ATOM      9  C   UNL     1       1.479  -2.534  -0.026  0.00  0.00    +0.000 C 
ATOM     10  C   UNL     1       0.763  -2.041   1.233  0.00  0.00    +0.002 C 
ATOM     11  C   UNL     1       0.742  -0.511   1.242  0.00  0.00    +0.025 C 
ENDBRANCH   1   6
BRANCH   2  12
ATOM     12  C   UNL     1      -3.630  -0.713  -0.978  0.00  0.00    +0.107 C 
BRANCH  12  13
ATOM     13  C   UNL     1      -4.370  -0.206  -2.217  0.00  0.00    +0.134 C 
BRANCH  13  14
ATOM     14  C   UNL     1      -5.784  -0.728  -2.207  0.00  0.00    +0.356 C 
ATOM     15  O   UNL     1      -6.164  -1.439  -1.292  0.00  0.00    -0.246 OA
ATOM     16  O   UNL     1      -6.547  -0.439  -3.112  0.00  0.00    -0.246 OA
ENDBRANCH  13  14
ENDBRANCH  12  13
ENDBRANCH   2  12
TORSDOF 4
