REMARK  Name = ZINC66982622
REMARK  6 active torsions:
REMARK  status: ('A' for Active; 'I' for Inactive)
REMARK    1  A    between atoms: C_1  and  C_2
REMARK    2  A    between atoms: C_2  and  C_4
REMARK    3  A    between atoms: C_2  and  N_7
REMARK    4  A    between atoms: C_4  and  C_5
REMARK    5  A    between atoms: C_4  and  C_6
REMARK    6  A    between atoms: C_16  and  C_18
REMARK                            x       y       z     vdW  Elec       q    Type
REMARK                         _______ _______ _______ _____ _____    ______ ____
ROOT
ATOM      1  N   UNL     1      -1.412  -1.191  -2.172  0.00  0.00    -0.296 N 
ATOM      2  C   UNL     1      -2.062  -1.366  -1.005  0.00  0.00    +0.303 C 
ATOM      3  O   UNL     1      -1.445  -1.352   0.043  0.00  0.00    -0.253 OA
ATOM      4  N   UNL     1      -3.396  -1.556  -0.998  0.00  0.00    -0.283 N 
ATOM      5  C   UNL     1      -4.135  -1.632   0.270  0.00  0.00    +0.128 C 
ATOM      6  C   UNL     1      -5.256  -0.586   0.248  0.00  0.00    +0.127 C 
ATOM      7  N   UNL     1      -5.999  -0.721  -1.014  0.00  0.00    -0.298 N 
ATOM      8  C   UNL     1      -5.260  -0.645  -2.282  0.00  0.00    +0.127 C 
ATOM      9  C   UNL     1      -4.139  -1.685  -2.260  0.00  0.00    +0.128 C 
ATOM     10  C   UNL     1      -7.333  -0.911  -1.007  0.00  0.00    +0.219 C 
ATOM     11  O   UNL     1      -7.946  -0.870   0.038  0.00  0.00    -0.275 OA
ATOM     12  H   UNL     1      -1.891  -1.274  -3.012  0.00  0.00    +0.151 HD
ENDROOT
BRANCH  10  13
ATOM     13  C   UNL     1      -8.063  -1.175  -2.299  0.00  0.00    +0.075 C 
ATOM     14  C   UNL     1      -8.163   0.123  -3.102  0.00  0.00    +0.013 C 
ATOM     15  C   UNL     1      -8.904  -0.144  -4.414  0.00  0.00    +0.001 C 
ATOM     16  C   UNL     1     -10.310  -0.665  -4.108  0.00  0.00    +0.000 C 
ATOM     17  C   UNL     1     -10.209  -1.964  -3.305  0.00  0.00    +0.001 C 
ATOM     18  C   UNL     1      -9.469  -1.696  -1.993  0.00  0.00    +0.013 C 
ENDBRANCH  10  13
BRANCH   1  20
ATOM     19  C   UNL     1       0.828  -2.171  -2.087  0.00  0.00    +0.028 C 
ATOM     20  C   UNL     1       0.019  -0.875  -2.174  0.00  0.00    +0.074 C 
BRANCH  20  21
ATOM     21  C   UNL     1       0.376  -0.137  -3.466  0.00  0.00    +0.003 C 
ATOM     22  C   UNL     1       1.870   0.194  -3.467  0.00  0.00    +0.009 C 
ATOM     23  C   UNL     1       0.049  -1.024  -4.668  0.00  0.00    +0.009 C 
ENDBRANCH  20  21
ENDBRANCH   1  20
TORSDOF 3
