REMARK  Name = ZINC39770520
REMARK  3 active torsions:
REMARK  status: ('A' for Active; 'I' for Inactive)
REMARK    1  A    between atoms: C_1  and  C_2
REMARK    2  A    between atoms: C_2  and  N_3
REMARK    3  A    between atoms: C_7  and  C_8
REMARK                            x       y       z     vdW  Elec       q    Type
REMARK                         _______ _______ _______ _____ _____    ______ ____
ROOT
ATOM      1  N   UNL     1       0.432  -1.573  -1.048  0.00  0.00    -0.248 N 
ATOM      2  C   UNL     1      -0.194  -1.415  -2.234  0.00  0.00    +0.257 C 
ATOM      3  O   UNL     1      -1.382  -1.163  -2.291  0.00  0.00    -0.269 OA
ATOM      4  C   UNL     1       0.621  -1.560  -3.466  0.00  0.00    +0.099 C 
ATOM      5  C   UNL     1       0.076  -1.419  -4.695  0.00  0.00    +0.022 C 
ATOM      6  C   UNL     1       2.057  -1.867  -3.285  0.00  0.00    +0.274 C 
ATOM      7  O   UNL     1       2.871  -2.015  -4.351  0.00  0.00    -0.268 OA
ATOM      8  N   UNL     1       2.521  -1.991  -2.058  0.00  0.00    -0.154 NA
ATOM      9  C   UNL     1       1.743  -1.844  -0.986  0.00  0.00    +0.167 C 
ATOM     10  S   UNL     1       2.458  -2.021   0.559  0.00  0.00    -0.016 S 
ENDROOT
BRANCH   5  11
ATOM     11  C   UNL     1       0.871  -1.795  -5.919  0.00  0.00    +0.152 C 
ATOM     12  C   UNL     1       1.283  -0.552  -6.678  0.00  0.00    +0.005 C 
ATOM     13  C   UNL     1       0.723  -0.657  -7.882  0.00  0.00    +0.017 C 
ATOM     14  C   UNL     1      -0.038  -1.905  -7.960  0.00  0.00    +0.105 C 
ATOM     15  N   UNL     1       0.037  -2.565  -6.850  0.00  0.00    -0.280 NA
ENDBRANCH   5  11
BRANCH   1  17
ATOM     16  C   UNL     1      -0.309   0.022   0.653  0.00  0.00    +0.025 C 
ATOM     17  C   UNL     1      -0.334  -1.438   0.194  0.00  0.00    +0.112 C 
ENDBRANCH   1  17
TORSDOF 2
