REMARK  Name = ZINC49508597
REMARK  12 active torsions:
REMARK  status: ('A' for Active; 'I' for Inactive)
REMARK    1  A    between atoms: C_1  and  C_2
REMARK    2  A    between atoms: C_2  and  C_3
REMARK    3  A    between atoms: C_2  and  C_4
REMARK    4  A    between atoms: C_13  and  N_16
REMARK    5  A    between atoms: C_17  and  C_19
REMARK    6  A    between atoms: N_21  and  C_22
REMARK    7  A    between atoms: C_22  and  C_23
REMARK    8  A    between atoms: C_23  and  C_25
REMARK    9  A    between atoms: C_23  and  N_36
REMARK   10  A    between atoms: N_34  and  C_35
REMARK   11  A    between atoms: N_36  and  C_37
REMARK   12  A    between atoms: N_36  and  C_38
REMARK                            x       y       z     vdW  Elec       q    Type
REMARK                         _______ _______ _______ _____ _____    ______ ____
ROOT
ATOM      1  C   UNL     1      -8.805  -0.979   1.579  0.00  0.00    +0.299 C 
ATOM      2  O   UNL     1      -8.641   0.224   1.591  0.00  0.00    -0.265 OA
ATOM      3  N   UNL     1     -10.036  -1.493   1.775  0.00  0.00    -0.309 N 
ATOM      4  H   UNL     1     -10.167  -2.454   1.766  0.00  0.00    +0.149 HD
ENDROOT
BRANCH   1   6
ATOM      5  N   UNL     1      -6.413  -1.375   1.153  0.00  0.00    -0.278 N 
ATOM      6  C   UNL     1      -7.644  -1.889   1.349  0.00  0.00    +0.303 C 
ATOM      7  O   UNL     1      -7.808  -3.091   1.338  0.00  0.00    -0.265 OA
ATOM      8  H   UNL     1      -6.266  -0.421   1.244  0.00  0.00    +0.155 HD
BRANCH   5  18
ATOM      9  C   UNL     1      -1.460  -1.263   1.938  0.00  0.00    +0.222 C 
ATOM     10  O   UNL     1      -2.299  -0.388   1.910  0.00  0.00    -0.275 OA
ATOM     11  N   UNL     1      -1.728  -2.473   1.409  0.00  0.00    -0.271 N 
ATOM     12  C   UNL     1      -0.680  -3.498   1.318  0.00  0.00    +0.114 C 
ATOM     13  C   UNL     1      -0.764  -4.131  -0.077  0.00  0.00    +0.024 C 
ATOM     14  C   UNL     1      -2.115  -4.830  -0.221  0.00  0.00    +0.038 C 
ATOM     15  C   UNL     1      -3.236  -3.894   0.149  0.00  0.00    -0.026 A 
ATOM     16  C   UNL     1      -3.015  -2.776   0.941  0.00  0.00    +0.041 A 
ATOM     17  C   UNL     1      -4.069  -1.937   1.274  0.00  0.00    +0.047 A 
ATOM     18  C   UNL     1      -5.350  -2.217   0.819  0.00  0.00    +0.036 A 
ATOM     19  C   UNL     1      -5.570  -3.339   0.029  0.00  0.00    +0.024 A 
ATOM     20  C   UNL     1      -4.514  -4.167  -0.310  0.00  0.00    +0.007 A 
BRANCH   9  22
ATOM     21  C   UNL     1      -0.071   0.441   3.087  0.00  0.00    +0.017 C 
ATOM     22  C   UNL     1      -0.116  -0.997   2.567  0.00  0.00    +0.069 C 
ATOM     23  C   UNL     1       0.104  -1.967   3.729  0.00  0.00    +0.017 C 
ENDBRANCH   9  22
ENDBRANCH   5  18
ENDBRANCH   1   6
BRANCH   3  24
ATOM     24  C   UNL     1     -11.175  -0.600   2.002  0.00  0.00    +0.094 C 
BRANCH  24  25
ATOM     25  C   UNL     1     -12.463  -1.423   2.067  0.00  0.00    -0.021 C 
BRANCH  25  26
ATOM     26  C   UNL     1     -12.691  -2.104   0.742  0.00  0.00    -0.059 A 
ATOM     27  C   UNL     1     -13.232  -1.393  -0.315  0.00  0.00    +0.004 A 
ATOM     28  C   UNL     1     -13.443  -2.018  -1.528  0.00  0.00    +0.023 A 
ATOM     29  C   UNL     1     -13.111  -3.358  -1.688  0.00  0.00    +0.033 A 
ATOM     30  C   UNL     1     -12.566  -4.069  -0.629  0.00  0.00    -0.026 A 
ATOM     31  C   UNL     1     -12.355  -3.434   0.583  0.00  0.00    +0.007 A 
ATOM     32  C   UNL     1     -12.184  -5.519  -0.769  0.00  0.00    +0.038 C 
ATOM     33  C   UNL     1     -12.922  -6.156  -1.946  0.00  0.00    +0.024 C 
ATOM     34  C   UNL     1     -12.721  -5.281  -3.190  0.00  0.00    +0.105 C 
ATOM     35  N   UNL     1     -13.336  -3.974  -2.924  0.00  0.00    -0.333 N 
ATOM     36  C   UNL     1     -14.174  -3.325  -3.936  0.00  0.00    +0.129 C 
ENDBRANCH  25  26
BRANCH  25  37
ATOM     37  N   UNL     1     -13.596  -0.537   2.363  0.00  0.00    +0.382 N 
ATOM     38  C   UNL     1     -14.816  -1.339   2.525  0.00  0.00    -0.096 C 
ATOM     39  C   UNL     1     -13.328   0.202   3.605  0.00  0.00    -0.096 C 
ATOM     40  H   UNL     1     -13.721   0.116   1.604  0.00  0.00    -0.082 HD
ENDBRANCH  25  37
ENDBRANCH  24  25
ENDBRANCH   3  24
TORSDOF 7
