REMARK  Name = ZINC01248407
REMARK  11 active torsions:
REMARK  status: ('A' for Active; 'I' for Inactive)
REMARK    1  A    between atoms: C_1  and  C_2
REMARK    2  A    between atoms: C_5  and  N_8
REMARK    3  A    between atoms: C_9  and  C_11
REMARK    4  A    between atoms: C_11  and  S_12
REMARK    5  A    between atoms: S_12  and  C_13
REMARK    6  A    between atoms: C_25  and  C_28
REMARK    7  A    between atoms: C_28  and  C_29
REMARK    8  A    between atoms: C_28  and  C_30
REMARK    9  A    between atoms: N_33  and  C_34
REMARK   10  A    between atoms: C_34  and  C_35
REMARK   11  A    between atoms: C_35  and  C_36
REMARK                            x       y       z     vdW  Elec       q    Type
REMARK                         _______ _______ _______ _____ _____    ______ ____
ROOT
ATOM      1  C   UNL     1       0.593  -8.709   2.636  0.00  0.00    +0.198 A 
ATOM      2  N   UNL     1       0.602  -9.363   1.501  0.00  0.00    -0.120 NA
ATOM      3  N   UNL     1       0.736 -10.727   1.787  0.00  0.00    -0.109 NA
ATOM      4  C   UNL     1       0.804 -10.865   3.090  0.00  0.00    +0.240 A 
ATOM      5  N   UNL     1       0.724  -9.618   3.652  0.00  0.00    -0.249 N 
ATOM      6  C   UNL     1       0.777  -9.468   5.022  0.00  0.00    +0.102 A 
ATOM      7  C   UNL     1       0.916 -10.560   5.872  0.00  0.00    +0.074 A 
ATOM      8  C   UNL     1       0.958 -10.244   7.297  0.00  0.00    -0.018 A 
ATOM      9  C   UNL     1       0.856  -8.931   7.593  0.00  0.00    +0.021 A 
ATOM     10  S   UNL     1       0.708  -8.131   6.025  0.00  0.00    -0.072 S 
ATOM     11  C   UNL     1       0.869  -8.336   8.966  0.00  0.00    +0.203 C 
ATOM     12  O   UNL     1       0.684  -9.404   9.909  0.00  0.00    -0.371 OA
ATOM     13  C   UNL     1       1.539 -10.528   9.681  0.00  0.00    +0.126 C 
ATOM     14  C   UNL     1       1.107 -11.271   8.411  0.00  0.00    +0.068 C 
ATOM     15  C   UNL     1       1.002 -11.891   5.227  0.00  0.00    +0.264 A 
ATOM     16  O   UNL     1       1.124 -12.893   5.908  0.00  0.00    -0.267 OA
ATOM     17  N   UNL     1       0.938 -11.989   3.889  0.00  0.00    -0.276 N 
ENDROOT
BRANCH  13  18
ATOM     18  C   UNL     1       1.454 -11.480  10.876  0.00  0.00    +0.012 C 
ATOM     19  C   UNL     1       1.900 -10.748  12.143  0.00  0.00    +0.010 C 
ATOM     20  C   UNL     1       0.012 -11.960  11.044  0.00  0.00    +0.010 C 
ENDBRANCH  13  18
BRANCH   1  21
ATOM     21  S   UNL     1       0.446  -6.963   2.823  0.00  0.00    -0.076 S 
BRANCH  21  22
ATOM     22  C   UNL     1       0.309  -6.349   1.121  0.00  0.00    +0.173 C 
BRANCH  22  24
ATOM     23  N   UNL     1       0.059  -4.170  -0.021  0.00  0.00    -0.285 N 
ATOM     24  C   UNL     1       0.175  -4.848   1.138  0.00  0.00    +0.227 C 
ATOM     25  O   UNL     1       0.173  -4.251   2.193  0.00  0.00    -0.275 OA
ATOM     26  H   UNL     1      -0.017  -4.651  -0.860  0.00  0.00    +0.155 HD
BRANCH  23  31
ATOM     27  C   UNL     1       0.008   1.503   0.007  0.00  0.00    +0.044 C 
ATOM     28  C   UNL     1       0.022  -0.004  -0.001  0.00  0.00    -0.050 A 
ATOM     29  C   UNL     1       0.777  -0.692   0.931  0.00  0.00    +0.005 A 
ATOM     30  C   UNL     1       0.791  -2.073   0.927  0.00  0.00    +0.023 A 
ATOM     31  C   UNL     1       0.046  -2.771  -0.014  0.00  0.00    +0.033 A 
ATOM     32  C   UNL     1      -0.712  -2.077  -0.948  0.00  0.00    +0.023 A 
ATOM     33  C   UNL     1      -0.726  -0.696  -0.936  0.00  0.00    +0.005 A 
ENDBRANCH  23  31
ENDBRANCH  22  24
ENDBRANCH  21  22
ENDBRANCH   1  21
BRANCH  17  34
ATOM     34  C   UNL     1       1.027 -13.309   3.261  0.00  0.00    +0.133 C 
BRANCH  34  35
ATOM     35  C   UNL     1       2.494 -13.642   2.980  0.00  0.00    +0.057 C 
BRANCH  35  36
ATOM     36  C   UNL     1       2.586 -15.001   2.334  0.00  0.00    -0.046 A 
ATOM     37  C   UNL     1       2.714 -16.132   3.118  0.00  0.00    +0.004 A 
ATOM     38  C   UNL     1       2.798 -17.378   2.526  0.00  0.00    +0.000 A 
ATOM     39  C   UNL     1       2.753 -17.493   1.149  0.00  0.00    +0.000 A 
ATOM     40  C   UNL     1       2.624 -16.362   0.365  0.00  0.00    +0.000 A 
ATOM     41  C   UNL     1       2.536 -15.116   0.957  0.00  0.00    +0.004 A 
ENDBRANCH  35  36
ENDBRANCH  34  35
ENDBRANCH  17  34
TORSDOF 8
