REMARK  Name = ZINC04411126
REMARK  15 active torsions:
REMARK  status: ('A' for Active; 'I' for Inactive)
REMARK    1  A    between atoms: C_10  and  C_11
REMARK    2  A    between atoms: C_10  and  N_77
REMARK    3  A    between atoms: C_11  and  C_13
REMARK    4  A    between atoms: C_11  and  O_34
REMARK    5  A    between atoms: C_13  and  C_14
REMARK    6  A    between atoms: C_14  and  C_15
REMARK    7  A    between atoms: C_15  and  C_16
REMARK    8  A    between atoms: C_16  and  C_17
REMARK    9  A    between atoms: C_17  and  C_18
REMARK   10  A    between atoms: C_18  and  C_19
REMARK   11  A    between atoms: C_19  and  C_20
REMARK   12  A    between atoms: C_20  and  C_21
REMARK   13  A    between atoms: C_21  and  C_23
REMARK   14  A    between atoms: C_21  and  O_33
REMARK   15  A    between atoms: C_23  and  N_79
REMARK                            x       y       z     vdW  Elec       q    Type
REMARK                         _______ _______ _______ _____ _____    ______ ____
ROOT
ATOM      1  C   UNL     1      -0.777   1.606  -3.730  0.00  0.00    +0.000 C 
ENDROOT
BRANCH   1   2
ATOM      2  C   UNL     1      -0.037   1.099  -2.490  0.00  0.00    +0.000 C 
BRANCH   2   3
ATOM      3  C   UNL     1      -0.753   1.593  -1.232  0.00  0.00    +0.002 C 
BRANCH   3   4
ATOM      4  C   UNL     1      -0.013   1.086   0.008  0.00  0.00    +0.029 C 
BRANCH   4   5
ATOM      5  C   UNL     1      -0.729   1.579   1.267  0.00  0.00    +0.098 C 
BRANCH   5   6
ATOM      6  O   UNL     1      -0.647   3.004   1.334  0.00  0.00    -0.394 OA
ATOM      7  H   UNL     1       0.258   3.345   1.368  0.00  0.00    +0.210 HD
ENDBRANCH   5   6
BRANCH   5   8
ATOM      8  C   UNL     1      -0.064   0.971   2.503  0.00  0.00    -0.047 C 
BRANCH   8  18
ATOM      9  C   UNL     1      -4.313   1.595   7.285  0.00  0.00    +0.000 A 
ATOM     10  C   UNL     1      -4.977   1.158   6.154  0.00  0.00    +0.000 A 
ATOM     11  C   UNL     1      -4.267   0.888   5.002  0.00  0.00    +0.002 A 
ATOM     12  C   UNL     1      -2.890   1.053   4.971  0.00  0.00    -0.061 A 
ATOM     13  C   UNL     1      -2.229   1.492   6.098  0.00  0.00    -0.048 A 
ATOM     14  C   UNL     1      -2.943   1.761   7.256  0.00  0.00    +0.004 A 
ATOM     15  C   UNL     1      -0.735   1.693   6.112  0.00  0.00    +0.017 C 
ATOM     16  C   UNL     1      -0.100   0.966   4.926  0.00  0.00    -0.074 C 
ATOM     17  C   UNL     1      -2.158   0.742   3.692  0.00  0.00    -0.043 C 
ATOM     18  N   UNL     1      -0.827   1.372   3.705  0.00  0.00    +0.384 N 
ATOM     19  H   UNL     1      -0.939   2.393   3.705  0.00  0.00    -0.081 HD
ENDBRANCH   8  18
ENDBRANCH   5   8
ENDBRANCH   4   5
ENDBRANCH   3   4
ENDBRANCH   2   3
ENDBRANCH   1   2
BRANCH   1  20
ATOM     20  C   UNL     1      -0.060   1.113  -4.989  0.00  0.00    +0.000 C 
BRANCH  20  21
ATOM     21  C   UNL     1      -0.800   1.619  -6.228  0.00  0.00    +0.000 C 
BRANCH  21  22
ATOM     22  C   UNL     1      -0.084   1.126  -7.487  0.00  0.00    +0.002 C 
BRANCH  22  23
ATOM     23  C   UNL     1      -0.824   1.633  -8.726  0.00  0.00    +0.029 C 
BRANCH  23  24
ATOM     24  C   UNL     1      -0.108   1.139  -9.985  0.00  0.00    +0.098 C 
BRANCH  24  25
ATOM     25  O   UNL     1       1.192   1.727 -10.055  0.00  0.00    -0.394 OA
ATOM     26  H   UNL     1       1.186   2.694 -10.091  0.00  0.00    +0.210 HD
ENDBRANCH  24  25
BRANCH  24  27
ATOM     27  C   UNL     1      -0.916   1.540 -11.222  0.00  0.00    -0.047 C 
BRANCH  27  37
ATOM     28  C   UNL     1      -0.910   1.500 -13.645  0.00  0.00    -0.074 C 
ATOM     29  C   UNL     1      -0.005   1.166 -14.831  0.00  0.00    +0.017 C 
ATOM     30  C   UNL     1       0.343  -0.300 -14.815  0.00  0.00    -0.048 A 
ATOM     31  C   UNL     1       0.850  -0.872 -15.973  0.00  0.00    +0.004 A 
ATOM     32  C   UNL     1       1.186  -2.210 -16.000  0.00  0.00    +0.000 A 
ATOM     33  C   UNL     1       1.017  -2.985 -14.867  0.00  0.00    +0.000 A 
ATOM     34  C   UNL     1       0.512  -2.417 -13.715  0.00  0.00    +0.002 A 
ATOM     35  C   UNL     1       0.172  -1.072 -13.686  0.00  0.00    -0.061 A 
ATOM     36  C   UNL     1      -0.379  -0.499 -12.407  0.00  0.00    -0.043 C 
ATOM     37  N   UNL     1      -0.269   0.969 -12.425  0.00  0.00    +0.384 N 
ATOM     38  H   UNL     1       0.724   1.231 -12.427  0.00  0.00    -0.081 HD
ENDBRANCH  27  37
ENDBRANCH  24  27
ENDBRANCH  23  24
ENDBRANCH  22  23
ENDBRANCH  21  22
ENDBRANCH  20  21
ENDBRANCH   1  20
TORSDOF 15
