REMARK  Name = ZINC18493712
REMARK  5 active torsions:
REMARK  status: ('A' for Active; 'I' for Inactive)
REMARK    1  A    between atoms: C_1  and  C_2
REMARK    2  A    between atoms: C_2  and  C_4
REMARK    3  A    between atoms: C_2  and  N_14
REMARK    4  A    between atoms: C_15  and  C_17
REMARK    5  A    between atoms: C_17  and  N_18
REMARK                            x       y       z     vdW  Elec       q    Type
REMARK                         _______ _______ _______ _____ _____    ______ ____
ROOT
ATOM      1  C   UNL     1      -2.458   1.085   2.954  0.00  0.00    +0.213 C 
ENDROOT
BRANCH   1   2
ATOM      2  N   UNL     1      -3.450   0.058   3.281  0.00  0.00    -0.215 N 
ATOM      3  C   UNL     1      -4.721   0.058   2.828  0.00  0.00    +0.252 C 
ATOM      4  O   UNL     1      -5.240   0.877   2.100  0.00  0.00    -0.272 OA
ATOM      5  C   UNL     1      -5.359  -1.178   3.418  0.00  0.00    +0.144 C 
ATOM      6  C   UNL     1      -5.811  -2.127   2.311  0.00  0.00    +0.081 C 
ATOM      7  C   UNL     1      -7.088  -1.557   1.679  0.00  0.00    +0.232 C 
ATOM      8  O   UNL     1      -8.115  -1.537   2.672  0.00  0.00    -0.492 OA
ATOM      9  C   UNL     1      -7.825  -0.990   3.881  0.00  0.00    +0.126 A 
ATOM     10  C   UNL     1      -6.518  -0.796   4.296  0.00  0.00    +0.027 A 
ATOM     11  C   UNL     1      -6.267  -0.240   5.539  0.00  0.00    +0.010 A 
ATOM     12  C   UNL     1      -7.312   0.124   6.365  0.00  0.00    +0.001 A 
ATOM     13  C   UNL     1      -8.618  -0.066   5.951  0.00  0.00    +0.004 A 
ATOM     14  C   UNL     1      -8.875  -0.621   4.714  0.00  0.00    +0.046 A 
ATOM     15  N   UNL     1      -4.288  -1.789   4.214  0.00  0.00    -0.281 N 
ATOM     16  C   UNL     1      -3.209  -0.995   4.073  0.00  0.00    +0.310 C 
ATOM     17  O   UNL     1      -2.137  -1.210   4.604  0.00  0.00    -0.252 OA
ATOM     18  H   UNL     1      -4.346  -2.603   4.739  0.00  0.00    +0.152 HD
ENDBRANCH   1   2
BRANCH   1  20
ATOM     19  N   UNL     1      -0.741   1.479   1.217  0.00  0.00    -0.307 N 
ATOM     20  C   UNL     1      -1.709   0.681   1.710  0.00  0.00    +0.231 C 
ATOM     21  O   UNL     1      -1.977  -0.362   1.152  0.00  0.00    -0.274 OA
ATOM     22  H   UNL     1      -0.526   2.313   1.663  0.00  0.00    +0.149 HD
BRANCH  19  24
ATOM     23  C   UNL     1      -0.773   1.575  -1.227  0.00  0.00    +0.033 C 
ATOM     24  C   UNL     1      -0.013   1.086   0.008  0.00  0.00    +0.101 C 
BRANCH  24  25
ATOM     25  C   UNL     1       1.363   1.702   0.028  0.00  0.00    -0.020 A 
ATOM     26  C   UNL     1       1.583   2.863   0.702  0.00  0.00    +0.006 A 
ATOM     27  C   UNL     1       2.849   3.444   0.737  0.00  0.00    +0.001 A 
ATOM     28  C   UNL     1       3.900   2.873   0.087  0.00  0.00    +0.008 A 
ATOM     29  C   UNL     1       3.710   1.677  -0.625  0.00  0.00    -0.018 A 
ATOM     30  C   UNL     1       2.423   1.083  -0.655  0.00  0.00    -0.013 A 
ATOM     31  C   UNL     1       2.233  -0.113  -1.368  0.00  0.00    +0.009 A 
ATOM     32  C   UNL     1       3.284  -0.684  -2.019  0.00  0.00    +0.001 A 
ATOM     33  C   UNL     1       4.549  -0.099  -1.989  0.00  0.00    +0.001 A 
ATOM     34  C   UNL     1       4.771   1.059  -1.309  0.00  0.00    +0.008 A 
ENDBRANCH  24  25
ENDBRANCH  19  24
ENDBRANCH   1  20
TORSDOF 4
