REMARK  Name = ZINC38688728
REMARK  13 active torsions:
REMARK  status: ('A' for Active; 'I' for Inactive)
REMARK    1  A    between atoms: C_1  and  C_2
REMARK    2  A    between atoms: C_2  and  O_3
REMARK    3  A    between atoms: O_3  and  C_4
REMARK    4  A    between atoms: C_7  and  C_12
REMARK    5  A    between atoms: C_9  and  O_10
REMARK    6  A    between atoms: O_10  and  C_11
REMARK    7  A    between atoms: C_17  and  O_26
REMARK    8  A    between atoms: C_21  and  N_25
REMARK    9  A    between atoms: C_22  and  C_23
REMARK   10  A    between atoms: O_26  and  C_27
REMARK   11  A    between atoms: C_27  and  C_29
REMARK   12  A    between atoms: C_32  and  O_36
REMARK   13  A    between atoms: O_36  and  C_37
REMARK                            x       y       z     vdW  Elec       q    Type
REMARK                         _______ _______ _______ _____ _____    ______ ____
ROOT
ATOM      1  C   UNL     1      -1.938  -6.093   0.016  0.00  0.00    +0.098 C 
ATOM      2  C   UNL     1      -1.317  -6.664  -1.232  0.00  0.00    +0.008 A 
ATOM      3  C   UNL     1      -2.022  -6.625  -2.421  0.00  0.00    +0.012 A 
ATOM      4  C   UNL     1      -1.469  -7.144  -3.575  0.00  0.00    +0.047 A 
ATOM      5  C   UNL     1      -0.201  -7.707  -3.544  0.00  0.00    +0.135 A 
ATOM      6  C   UNL     1       0.508  -7.747  -2.355  0.00  0.00    +0.093 A 
ATOM      7  C   UNL     1      -0.051  -7.225  -1.195  0.00  0.00    +0.138 A 
ATOM      8  O   UNL     1       0.656  -7.273  -0.038  0.00  0.00    -0.441 OA
ATOM      9  C   UNL     1       0.022  -7.143   1.139  0.00  0.00    +0.199 C 
ATOM     10  C   UNL     1      -1.207  -6.591   1.231  0.00  0.00    +0.098 C 
ENDROOT
BRANCH   1  14
ATOM     11  C   UNL     1      -1.712  -1.825  -0.118  0.00  0.00    +0.162 A 
ATOM     12  C   UNL     1      -0.554  -2.584  -0.148  0.00  0.00    +0.050 A 
ATOM     13  C   UNL     1      -0.630  -3.963  -0.104  0.00  0.00    +0.008 A 
ATOM     14  C   UNL     1      -1.861  -4.589  -0.031  0.00  0.00    -0.031 A 
ATOM     15  C   UNL     1      -3.021  -3.837  -0.001  0.00  0.00    +0.054 A 
ATOM     16  C   UNL     1      -2.951  -2.454  -0.038  0.00  0.00    +0.162 A 
BRANCH  16  17
ATOM     17  O   UNL     1      -4.091  -1.713  -0.002  0.00  0.00    -0.491 OA
ATOM     18  C   UNL     1      -5.326  -2.426   0.080  0.00  0.00    +0.277 C 
ENDBRANCH  16  17
BRANCH  11  19
ATOM     19  O   UNL     1      -1.639  -0.467  -0.160  0.00  0.00    -0.489 OA
BRANCH  19  21
ATOM     20  C   UNL     1      -0.452   1.635  -0.280  0.00  0.00    +0.048 C 
ATOM     21  C   UNL     1      -0.334   0.110  -0.242  0.00  0.00    +0.226 C 
ENDBRANCH  19  21
ENDBRANCH  11  19
ENDBRANCH   1  14
BRANCH   9  22
ATOM     22  N   UNL     1       0.643  -7.582   2.282  0.00  0.00    -0.328 N 
ATOM     23  H   UNL     1       1.527  -7.980   2.231  0.00  0.00    +0.145 HD
ATOM     24  H   UNL     1       0.199  -7.495   3.140  0.00  0.00    +0.145 HD
ENDBRANCH   9  22
BRANCH  10  25
ATOM     25  C   UNL     1      -1.827  -6.481   2.517  0.00  0.00    +0.101 C 
ATOM     26  N   UNL     1      -2.319  -6.394   3.537  0.00  0.00    -0.191 NA
ENDBRANCH  10  25
BRANCH   5  27
ATOM     27  O   UNL     1       0.345  -8.218  -4.679  0.00  0.00    -0.422 OA
BRANCH  27  28
ATOM     28  C   UNL     1       0.498  -9.554  -4.761  0.00  0.00    +0.344 C 
ATOM     29  O   UNL     1       0.059 -10.271  -3.884  0.00  0.00    -0.245 OA
BRANCH  28  30
ATOM     30  C   UNL     1       1.200 -10.146  -5.915  0.00  0.00    +0.061 A 
ATOM     31  C   UNL     1       1.712  -9.323  -6.922  0.00  0.00    +0.018 A 
ATOM     32  C   UNL     1       2.366  -9.879  -7.998  0.00  0.00    +0.048 A 
ATOM     33  C   UNL     1       2.520 -11.258  -8.084  0.00  0.00    +0.138 A 
ATOM     34  C   UNL     1       2.013 -12.081  -7.084  0.00  0.00    +0.083 A 
ATOM     35  C   UNL     1       1.361 -11.532  -6.002  0.00  0.00    +0.038 A 
ATOM     36 CL   UNL     1       2.208 -13.803  -7.197  0.00  0.00    -0.080 Cl
BRANCH  33  37
ATOM     37  O   UNL     1       3.166 -11.802  -9.146  0.00  0.00    -0.494 OA
ATOM     38  C   UNL     1       3.661 -10.899 -10.137  0.00  0.00    +0.277 C 
ENDBRANCH  33  37
ENDBRANCH  28  30
ENDBRANCH  27  28
ENDBRANCH   5  27
TORSDOF 10
