REMARK  Name = ZINC16042027
REMARK  3 active torsions:
REMARK  status: ('A' for Active; 'I' for Inactive)
REMARK    1  A    between atoms: C_14  and  C_16
REMARK    2  A    between atoms: C_16  and  C_18
REMARK    3  A    between atoms: C_22  and  N_24
REMARK                            x       y       z     vdW  Elec       q    Type
REMARK                         _______ _______ _______ _____ _____    ______ ____
ROOT
ATOM      1  C   UNL     1       6.717  -4.692  -1.485  0.00  0.00    +0.000 A 
ATOM      2  C   UNL     1       7.725  -4.415  -2.391  0.00  0.00    +0.002 A 
ATOM      3  C   UNL     1       8.095  -3.109  -2.635  0.00  0.00    +0.023 A 
ATOM      4  C   UNL     1       7.448  -2.061  -1.982  0.00  0.00    +0.038 A 
ATOM      5  C   UNL     1       6.385  -2.348  -1.132  0.00  0.00    -0.012 A 
ATOM      6  C   UNL     1       6.057  -3.655  -0.850  0.00  0.00    +0.006 A 
ATOM      7  C   UNL     1       5.853  -1.016  -0.666  0.00  0.00    +0.071 C 
ATOM      8  C   UNL     1       5.774  -0.963   0.851  0.00  0.00    -0.046 C 
ATOM      9  C   UNL     1       6.393   0.317   1.440  0.00  0.00    -0.016 C 
ATOM     10  C   UNL     1       5.499   0.550   2.695  0.00  0.00    -0.020 C 
ATOM     11  C   UNL     1       4.100   0.213   2.104  0.00  0.00    -0.076 C 
ATOM     12  C   UNL     1       3.516  -0.986   0.031  0.00  0.00    +0.052 C 
ATOM     13  C   UNL     1       4.429  -0.762  -1.181  0.00  0.00    +0.080 C 
ATOM     14  C   UNL     1       2.406   0.032   0.021  0.00  0.00    -0.027 A 
ATOM     15  C   UNL     1       2.377   1.410   0.007  0.00  0.00    +0.004 A 
ATOM     16  C   UNL     1       1.170   2.084   0.002  0.00  0.00    +0.000 A 
ATOM     17  C   UNL     1      -0.017   1.375   0.010  0.00  0.00    +0.002 A 
ATOM     18  C   UNL     1       0.002  -0.004   0.002  0.00  0.00    +0.023 A 
ATOM     19  C   UNL     1       1.216  -0.689  -0.003  0.00  0.00    +0.036 A 
ATOM     20  N   UNL     1       1.482  -2.057  -0.044  0.00  0.00    -0.286 N 
ATOM     21  C   UNL     1       2.803  -2.316  -0.049  0.00  0.00    +0.212 C 
ATOM     22  O   UNL     1       3.304  -3.419  -0.075  0.00  0.00    -0.277 OA
ATOM     23  C   UNL     1       6.795  -0.005  -1.261  0.00  0.00    +0.227 C 
ATOM     24  O   UNL     1       6.781   1.199  -1.115  0.00  0.00    -0.275 OA
ATOM     25  N   UNL     1       7.664  -0.685  -2.036  0.00  0.00    -0.285 N 
ATOM     26  H   UNL     1       0.796  -2.742  -0.069  0.00  0.00    +0.155 HD
ATOM     27  H   UNL     1       8.355  -0.264  -2.571  0.00  0.00    +0.155 HD
ATOM     28  N   UNL     1       4.369  -0.974   1.251  0.00  0.00    +0.395 N 
ATOM     29  H   UNL     1       4.177  -1.822   1.797  0.00  0.00    -0.079 HD
ENDROOT
BRANCH  13  30
ATOM     30  C   UNL     1       4.077  -1.664  -2.329  0.00  0.00    +0.167 C 
ATOM     31  O   UNL     1       4.580  -2.765  -2.412  0.00  0.00    -0.292 OA
BRANCH  30  32
ATOM     32  C   UNL     1       3.123  -1.212  -3.354  0.00  0.00    +0.020 A 
ATOM     33  C   UNL     1       2.537   0.054  -3.259  0.00  0.00    +0.011 A 
ATOM     34  C   UNL     1       1.647   0.472  -4.226  0.00  0.00    +0.003 A 
ATOM     35  C   UNL     1       1.325  -0.361  -5.283  0.00  0.00    +0.033 A 
ATOM     36  C   UNL     1       1.897  -1.618  -5.381  0.00  0.00    +0.127 A 
ATOM     37  C   UNL     1       2.792  -2.049  -4.425  0.00  0.00    +0.044 A 
BRANCH  36  38
ATOM     38  N   UNL     1       1.546  -2.502  -6.515  0.00  0.00    +0.056 N 
ATOM     39  O   UNL     1       2.048  -3.608  -6.603  0.00  0.00    -0.126 OA
ATOM     40  O   UNL     1       0.754  -2.123  -7.360  0.00  0.00    -0.126 OA
ENDBRANCH  36  38
ENDBRANCH  30  32
ENDBRANCH  13  30
TORSDOF 3
