REMARK  Name = ZINC06078376
REMARK  16 active torsions:
REMARK  status: ('A' for Active; 'I' for Inactive)
REMARK    1  A    between atoms: C_1  and  C_2
REMARK    2  A    between atoms: C_2  and  N_67
REMARK    3  A    between atoms: C_3  and  C_4
REMARK    4  A    between atoms: C_3  and  N_67
REMARK    5  A    between atoms: C_5  and  C_6
REMARK    6  A    between atoms: C_5  and  N_67
REMARK    7  A    between atoms: C_6  and  N_7
REMARK    8  A    between atoms: N_7  and  C_8
REMARK    9  A    between atoms: N_7  and  C_23
REMARK   10  A    between atoms: C_8  and  C_9
REMARK   11  A    between atoms: C_14  and  C_22
REMARK   12  A    between atoms: C_15  and  C_21
REMARK   13  A    between atoms: C_23  and  N_25
REMARK   14  A    between atoms: N_25  and  C_26
REMARK   15  A    between atoms: C_31  and  O_32
REMARK   16  A    between atoms: O_32  and  C_33
REMARK                            x       y       z     vdW  Elec       q    Type
REMARK                         _______ _______ _______ _____ _____    ______ ____
ROOT
ATOM      1  N   UNL     1      -0.228   1.343  -0.331  0.00  0.00    -0.310 N 
ENDROOT
BRANCH   1   2
ATOM      2  C   UNL     1      -0.248   0.033  -0.647  0.00  0.00    +0.137 C 
ATOM      3  S   UNL     1       1.086  -0.673  -1.455  0.00  0.00    -0.018 S 
BRANCH   2   4
ATOM      4  N   UNL     1      -1.319  -0.720  -0.328  0.00  0.00    -0.294 N 
ATOM      5  H   UNL     1      -2.103  -0.307   0.066  0.00  0.00    +0.154 HD
BRANCH   4   6
ATOM      6  C   UNL     1      -1.300  -2.101  -0.567  0.00  0.00    +0.075 A 
ATOM      7  C   UNL     1      -0.143  -2.831  -0.334  0.00  0.00    +0.027 A 
ATOM      8  C   UNL     1      -0.129  -4.194  -0.564  0.00  0.00    +0.002 A 
ATOM      9  C   UNL     1      -1.261  -4.830  -1.037  0.00  0.00    +0.004 A 
ATOM     10  C   UNL     1      -2.416  -4.108  -1.277  0.00  0.00    +0.047 A 
ATOM     11  C   UNL     1      -2.440  -2.743  -1.043  0.00  0.00    +0.141 A 
BRANCH  11  12
ATOM     12  O   UNL     1      -3.575  -2.031  -1.279  0.00  0.00    -0.493 OA
ATOM     13  C   UNL     1      -4.705  -2.756  -1.768  0.00  0.00    +0.277 C 
ENDBRANCH  11  12
ENDBRANCH   4   6
ENDBRANCH   2   4
ENDBRANCH   1   2
BRANCH   1  14
ATOM     14  C   UNL     1      -1.412   1.974   0.257  0.00  0.00    +0.088 C 
BRANCH  14  15
ATOM     15  C   UNL     1      -1.344   1.866   1.781  0.00  0.00    -0.060 C 
BRANCH  15  16
ATOM     16  N   UNL     1      -2.535   2.525   2.359  0.00  0.00    +0.380 N 
ATOM     17  H   UNL     1      -2.618   3.470   1.965  0.00  0.00    -0.082 HD
BRANCH  16  19
ATOM     18  C   UNL     1      -3.703   0.367   2.663  0.00  0.00    -0.017 C 
ATOM     19  C   UNL     1      -3.751   1.756   2.022  0.00  0.00    -0.082 C 
ENDBRANCH  16  19
BRANCH  16  20
ATOM     20  C   UNL     1      -2.393   2.627   3.827  0.00  0.00    -0.082 C 
ATOM     21  C   UNL     1      -3.576   3.421   4.384  0.00  0.00    -0.017 C 
ENDBRANCH  16  20
ENDBRANCH  15  16
ENDBRANCH  14  15
ENDBRANCH   1  14
BRANCH   1  22
ATOM     22  C   UNL     1       0.978   2.138  -0.579  0.00  0.00    +0.147 C 
BRANCH  22  23
ATOM     23  C   UNL     1       1.891   2.054   0.617  0.00  0.00    +0.035 A 
ATOM     24  C   UNL     1       2.894   1.142   0.638  0.00  0.00    +0.020 A 
ATOM     25  C   UNL     1       3.766   1.089   1.813  0.00  0.00    -0.001 A 
ATOM     26  C   UNL     1       4.821   0.173   1.890  0.00  0.00    +0.010 A 
ATOM     27  C   UNL     1       5.613   0.146   3.002  0.00  0.00    +0.004 A 
ATOM     28  C   UNL     1       5.381   1.018   4.057  0.00  0.00    -0.046 A 
ATOM     29  C   UNL     1       4.348   1.929   4.002  0.00  0.00    -0.024 A 
ATOM     30  C   UNL     1       3.528   1.975   2.880  0.00  0.00    +0.052 A 
ATOM     31  N   UNL     1       2.487   2.876   2.798  0.00  0.00    -0.322 N 
ATOM     32  H   UNL     1       2.320   3.506   3.557  0.00  0.00    +0.169 HD
ATOM     33  C   UNL     1       1.695   2.921   1.713  0.00  0.00    +0.254 A 
ATOM     34  O   UNL     1       0.784   3.730   1.675  0.00  0.00    -0.268 OA
ATOM     35  C   UNL     1       4.109   2.871   5.154  0.00  0.00    +0.046 C 
ATOM     36  C   UNL     1       6.269   0.970   5.274  0.00  0.00    +0.044 C 
ENDBRANCH  22  23
ENDBRANCH   1  22
TORSDOF 11
