REMARK  Name = ZINC37588169
REMARK  7 active torsions:
REMARK  status: ('A' for Active; 'I' for Inactive)
REMARK    1  A    between atoms: C_1  and  C_2
REMARK    2  A    between atoms: C_6  and  S_8
REMARK    3  A    between atoms: S_8  and  N_11
REMARK    4  A    between atoms: N_11  and  C_12
REMARK    5  A    between atoms: N_11  and  C_21
REMARK    6  A    between atoms: N_24  and  C_27
REMARK    7  A    between atoms: C_27  and  C_28
REMARK                            x       y       z     vdW  Elec       q    Type
REMARK                         _______ _______ _______ _____ _____    ______ ____
ROOT
ATOM      1  N   UNL     1       1.644  -3.200   3.123  0.00  0.00    -0.200 N 
ENDROOT
BRANCH   1   2
ATOM      2  C   UNL     1       2.290  -2.185   3.838  0.00  0.00    +0.055 A 
ATOM      3  C   UNL     1       3.433  -1.590   3.320  0.00  0.00    +0.028 A 
ATOM      4  C   UNL     1       4.072  -0.588   4.024  0.00  0.00    +0.051 A 
ATOM      5  C   UNL     1       3.575  -0.174   5.249  0.00  0.00    +0.166 A 
ATOM      6  C   UNL     1       2.429  -0.768   5.772  0.00  0.00    +0.168 A 
ATOM      7  C   UNL     1       1.786  -1.769   5.062  0.00  0.00    +0.074 A 
ATOM      8  O   UNL     1       2.147  -0.190   6.976  0.00  0.00    -0.453 OA
ATOM      9  C   UNL     1       3.359   0.476   7.375  0.00  0.00    +0.466 C 
ATOM     10  O   UNL     1       4.011   0.778   6.128  0.00  0.00    -0.453 OA
ENDBRANCH   1   2
BRANCH   1  11
ATOM     11  C   UNL     1       2.011  -4.601   3.345  0.00  0.00    +0.095 C 
ATOM     12  C   UNL     1       1.710  -4.985   4.797  0.00  0.00    +0.006 C 
ATOM     13  C   UNL     1       2.169  -6.424   5.043  0.00  0.00    -0.077 C 
ATOM     14  N   UNL     1       3.612  -6.529   4.797  0.00  0.00    +0.383 N 
ATOM     15  C   UNL     1       3.901  -6.232   3.389  0.00  0.00    -0.077 C 
ATOM     16  C   UNL     1       3.508  -4.786   3.079  0.00  0.00    +0.006 C 
ATOM     17  H   UNL     1       4.102  -5.872   5.386  0.00  0.00    -0.081 HD
BRANCH  14  18
ATOM     18  C   UNL     1       4.062  -7.892   5.110  0.00  0.00    -0.040 C 
BRANCH  18  19
ATOM     19  C   UNL     1       5.561  -7.970   4.976  0.00  0.00    -0.029 A 
ATOM     20  C   UNL     1       6.126  -8.499   3.831  0.00  0.00    +0.007 A 
ATOM     21  C   UNL     1       7.501  -8.570   3.707  0.00  0.00    +0.039 A 
ATOM     22  C   UNL     1       8.314  -8.111   4.729  0.00  0.00    +0.126 A 
ATOM     23  C   UNL     1       7.749  -7.580   5.876  0.00  0.00    +0.076 A 
ATOM     24  C   UNL     1       6.372  -7.504   5.997  0.00  0.00    +0.127 A 
ATOM     25  F   UNL     1       5.820  -6.981   7.114  0.00  0.00    -0.205 F 
ATOM     26  F   UNL     1       9.658  -8.181   4.608  0.00  0.00    -0.205 F 
ENDBRANCH  18  19
ENDBRANCH  14  18
ENDBRANCH   1  11
BRANCH   1  27
ATOM     27  S   UNL     1       0.464  -2.817   2.026  0.00  0.00    +0.075 S 
ATOM     28  O   UNL     1      -0.121  -1.599   2.467  0.00  0.00    -0.150 OA
ATOM     29  O   UNL     1      -0.300  -3.999   1.823  0.00  0.00    -0.150 OA
BRANCH  27  35
ATOM     30  C   UNL     1       2.732   0.507  -1.309  0.00  0.00    +0.044 C 
ATOM     31  C   UNL     1       2.296  -0.900  -0.992  0.00  0.00    -0.049 A 
ATOM     32  C   UNL     1       2.526  -1.916  -1.901  0.00  0.00    +0.003 A 
ATOM     33  C   UNL     1       2.126  -3.207  -1.611  0.00  0.00    +0.002 A 
ATOM     34  C   UNL     1       1.496  -3.482  -0.411  0.00  0.00    +0.029 A 
ATOM     35  C   UNL     1       1.267  -2.467   0.498  0.00  0.00    +0.109 A 
ATOM     36  C   UNL     1       1.671  -1.176   0.209  0.00  0.00    +0.032 A 
ENDBRANCH  27  35
ENDBRANCH   1  27
TORSDOF 6
