REMARK  Name = ZINC08711954
REMARK  6 active torsions:
REMARK  status: ('A' for Active; 'I' for Inactive)
REMARK    1  A    between atoms: C_4  and  C_7
REMARK    2  A    between atoms: C_7  and  C_8
REMARK    3  A    between atoms: C_7  and  N_70
REMARK    4  A    between atoms: C_19  and  C_21
REMARK    5  A    between atoms: C_26  and  C_40
REMARK    6  A    between atoms: C_29  and  C_32
REMARK                            x       y       z     vdW  Elec       q    Type
REMARK                         _______ _______ _______ _____ _____    ______ ____
ROOT
ATOM      1  C   UNL     1       3.947  -0.213  -2.547  0.00  0.00    -0.058 C 
ATOM      2  C   UNL     1       4.937   0.806  -3.122  0.00  0.00    +0.089 C 
ATOM      3  N   UNL     1       6.281   0.209  -3.111  0.00  0.00    -0.300 N 
ATOM      4  C   UNL     1       6.769  -0.385  -1.857  0.00  0.00    +0.089 C 
ATOM      5  C   UNL     1       5.707  -1.357  -1.333  0.00  0.00    -0.058 C 
ATOM      6  C   UNL     1       7.044   0.204  -4.222  0.00  0.00    +0.267 C 
ATOM      7  O   UNL     1       6.581   0.585  -5.280  0.00  0.00    -0.268 OA
ATOM      8  N   UNL     1       4.421  -0.635  -1.212  0.00  0.00    +0.389 N 
ATOM      9  H   UNL     1       4.561   0.199  -0.629  0.00  0.00    -0.080 HD
ENDROOT
BRANCH   6  10
ATOM     10  C   UNL     1       8.444  -0.263  -4.154  0.00  0.00    +0.149 A 
ATOM     11  C   UNL     1       9.309  -0.454  -5.255  0.00  0.00    +0.078 A 
ATOM     12  C   UNL     1      10.492  -0.884  -4.774  0.00  0.00    +0.119 A 
ATOM     13  N   UNL     1      10.393  -0.969  -3.414  0.00  0.00    -0.238 N 
ATOM     14  N   UNL     1       9.107  -0.568  -3.053  0.00  0.00    -0.164 NA
ATOM     15  C   UNL     1      11.488  -1.407  -2.545  0.00  0.00    +0.215 C 
ATOM     16  C   UNL     1      12.510  -2.180  -3.386  0.00  0.00    +0.063 C 
ATOM     17  C   UNL     1      12.877  -1.370  -4.635  0.00  0.00    +0.104 C 
ATOM     18  N   UNL     1      11.665  -1.207  -5.462  0.00  0.00    -0.322 N 
ATOM     19  H   UNL     1      11.682  -1.318  -6.425  0.00  0.00    +0.148 HD
BRANCH  17  20
ATOM     20  C   UNL     1      13.935  -2.102  -5.420  0.00  0.00    -0.026 A 
ATOM     21  C   UNL     1      13.580  -3.154  -6.244  0.00  0.00    +0.007 A 
ATOM     22  C   UNL     1      14.549  -3.823  -6.967  0.00  0.00    +0.022 A 
ATOM     23  C   UNL     1      15.876  -3.447  -6.860  0.00  0.00    +0.059 A 
ATOM     24  C   UNL     1      16.232  -2.397  -6.030  0.00  0.00    +0.060 A 
ATOM     25  C   UNL     1      15.260  -1.725  -5.311  0.00  0.00    +0.027 A 
ATOM     26 CL   UNL     1      17.897  -1.924  -5.894  0.00  0.00    -0.082 Cl
ATOM     27 CL   UNL     1      17.094  -4.292  -7.763  0.00  0.00    -0.082 Cl
ENDBRANCH  17  20
BRANCH  15  28
ATOM     28  C   UNL     1      10.937  -2.317  -1.445  0.00  0.00    +0.412 C 
ATOM     29  F   UNL     1      10.328  -3.434  -2.026  0.00  0.00    -0.168 F 
ATOM     30  F   UNL     1      11.984  -2.734  -0.617  0.00  0.00    -0.168 F 
ATOM     31  F   UNL     1       9.994  -1.614  -0.687  0.00  0.00    -0.168 F 
ENDBRANCH  15  28
ENDBRANCH   6  10
BRANCH   8  32
ATOM     32  C   UNL     1       3.414  -1.505  -0.570  0.00  0.00    -0.007 C 
BRANCH  32  36
ATOM     33  C   UNL     1      -0.288   0.612  -0.322  0.00  0.00    +0.000 A 
ATOM     34  C   UNL     1       0.904   1.275  -0.096  0.00  0.00    +0.000 A 
ATOM     35  C   UNL     1       2.102   0.590  -0.176  0.00  0.00    +0.002 A 
ATOM     36  C   UNL     1       2.108  -0.758  -0.482  0.00  0.00    -0.057 A 
ATOM     37  C   UNL     1       0.916  -1.421  -0.708  0.00  0.00    +0.002 A 
ATOM     38  C   UNL     1      -0.282  -0.736  -0.628  0.00  0.00    +0.000 A 
ENDBRANCH  32  36
BRANCH  32  39
ATOM     39  C   UNL     1       3.886  -1.856   0.818  0.00  0.00    -0.057 A 
ATOM     40  C   UNL     1       4.527  -0.906   1.591  0.00  0.00    +0.002 A 
ATOM     41  C   UNL     1       4.955  -1.226   2.865  0.00  0.00    +0.000 A 
ATOM     42  C   UNL     1       4.752  -2.500   3.363  0.00  0.00    +0.000 A 
ATOM     43  C   UNL     1       4.116  -3.451   2.588  0.00  0.00    +0.000 A 
ATOM     44  C   UNL     1       3.683  -3.129   1.315  0.00  0.00    +0.002 A 
ENDBRANCH  32  39
ENDBRANCH   8  32
TORSDOF 6
