REMARK  Name = ZINC08943964
REMARK  9 active torsions:
REMARK  status: ('A' for Active; 'I' for Inactive)
REMARK    1  A    between atoms: C_1  and  O_2
REMARK    2  A    between atoms: O_2  and  C_3
REMARK    3  A    between atoms: C_8  and  O_9
REMARK    4  A    between atoms: O_9  and  C_10
REMARK    5  A    between atoms: C_11  and  C_31
REMARK    6  A    between atoms: C_15  and  C_16
REMARK    7  A    between atoms: C_15  and  N_61
REMARK    8  A    between atoms: N_26  and  C_27
REMARK    9  A    between atoms: C_27  and  C_28
REMARK                            x       y       z     vdW  Elec       q    Type
REMARK                         _______ _______ _______ _____ _____    ______ ____
ROOT
ATOM      1  C   UNL     1       2.695   4.816   4.018  0.00  0.00    +0.162 A 
ATOM      2  C   UNL     1       2.436   5.696   2.982  0.00  0.00    +0.053 A 
ATOM      3  C   UNL     1       2.366   5.238   1.674  0.00  0.00    -0.043 A 
ATOM      4  C   UNL     1       2.559   3.901   1.401  0.00  0.00    -0.049 A 
ATOM      5  C   UNL     1       2.817   3.014   2.437  0.00  0.00    +0.052 A 
ATOM      6  C   UNL     1       2.886   3.465   3.743  0.00  0.00    +0.162 A 
ATOM      7  C   UNL     1       2.498   3.360  -0.004  0.00  0.00    +0.001 C 
ATOM      8  C   UNL     1       2.442   5.642  -0.779  0.00  0.00    -0.072 C 
ATOM      9  C   UNL     1       2.073   6.234   0.581  0.00  0.00    +0.017 C 
ATOM     10  N   UNL     1       1.801   4.315  -0.881  0.00  0.00    +0.392 N 
ATOM     11  H   UNL     1       0.822   4.392  -0.582  0.00  0.00    -0.080 HD
ENDROOT
BRANCH   7  12
ATOM     12  C   UNL     1       1.742   2.057  -0.004  0.00  0.00    -0.019 A 
ATOM     13  C   UNL     1       2.223   0.790  -0.015  0.00  0.00    +0.010 A 
ATOM     14  C   UNL     1       1.332  -0.266  -0.012  0.00  0.00    +0.008 A 
ATOM     15  C   UNL     1       0.002  -0.004   0.002  0.00  0.00    +0.045 A 
ATOM     16  S   UNL     1      -0.022   1.781   0.012  0.00  0.00    -0.103 S 
ENDBRANCH   7  12
BRANCH   1  18
ATOM     17  C   UNL     1       2.555   6.668   5.503  0.00  0.00    +0.277 C 
ATOM     18  O   UNL     1       2.762   5.269   5.298  0.00  0.00    -0.491 OA
ENDBRANCH   1  18
BRANCH   6  19
ATOM     19  O   UNL     1       3.139   2.591   4.754  0.00  0.00    -0.491 OA
ATOM     20  C   UNL     1       3.325   1.221   4.396  0.00  0.00    +0.277 C 
ENDBRANCH   6  19
BRANCH  10  21
ATOM     21  C   UNL     1       1.841   3.839  -2.282  0.00  0.00    -0.002 C 
BRANCH  21  22
ATOM     22  C   UNL     1       0.936   4.706  -3.119  0.00  0.00    +0.097 A 
ATOM     23  N   UNL     1       0.308   5.682  -2.538  0.00  0.00    -0.235 NA
ATOM     24  C   UNL     1      -0.524   6.504  -3.227  0.00  0.00    +0.078 A 
ATOM     25  C   UNL     1      -1.199   7.554  -2.602  0.00  0.00    +0.028 A 
ATOM     26  C   UNL     1      -2.033   8.364  -3.341  0.00  0.00    +0.002 A 
ATOM     27  C   UNL     1      -2.211   8.149  -4.701  0.00  0.00    +0.001 A 
ATOM     28  C   UNL     1      -1.556   7.119  -5.340  0.00  0.00    +0.015 A 
ATOM     29  C   UNL     1      -0.708   6.288  -4.610  0.00  0.00    +0.065 A 
ATOM     30  C   UNL     1       0.018   5.174  -5.238  0.00  0.00    +0.262 A 
ATOM     31  O   UNL     1      -0.096   4.934  -6.426  0.00  0.00    -0.267 OA
ATOM     32  N   UNL     1       0.823   4.429  -4.444  0.00  0.00    -0.289 N 
BRANCH  32  33
ATOM     33  C   UNL     1       1.574   3.310  -5.018  0.00  0.00    +0.221 C 
BRANCH  33  34
ATOM     34  C   UNL     1       0.744   2.055  -4.940  0.00  0.00    +0.230 C 
ATOM     35  O   UNL     1      -0.366   2.091  -4.453  0.00  0.00    -0.274 OA
ATOM     36  N   UNL     1       1.235   0.891  -5.412  0.00  0.00    -0.328 N 
ATOM     37  H   UNL     1       2.123   0.862  -5.802  0.00  0.00    +0.145 HD
ATOM     38  H   UNL     1       0.701   0.084  -5.362  0.00  0.00    +0.145 HD
ENDBRANCH  33  34
ENDBRANCH  32  33
ENDBRANCH  21  22
ENDBRANCH  10  21
TORSDOF 7
