REMARK  Name = ZINC08706618
REMARK  4 active torsions:
REMARK  status: ('A' for Active; 'I' for Inactive)
REMARK    1  A    between atoms: C_3  and  N_11
REMARK    2  A    between atoms: C_6  and  C_7
REMARK    3  A    between atoms: N_11  and  S_12
REMARK    4  A    between atoms: S_12  and  C_15
REMARK                            x       y       z     vdW  Elec       q    Type
REMARK                         _______ _______ _______ _____ _____    ______ ____
ROOT
ATOM      1  S   UNL     1       1.758   7.255   0.372  0.00  0.00    +0.072 S 
ATOM      2  O   UNL     1       2.676   7.898  -0.503  0.00  0.00    -0.150 OA
ATOM      3  O   UNL     1       0.464   6.846  -0.049  0.00  0.00    -0.150 OA
ENDROOT
BRANCH   1   4
ATOM      4  C   UNL     1       2.569   5.815   0.982  0.00  0.00    +0.109 A 
ATOM      5  C   UNL     1       3.947   5.799   1.106  0.00  0.00    +0.030 A 
ATOM      6  C   UNL     1       4.586   4.672   1.584  0.00  0.00    +0.025 A 
ATOM      7  C   UNL     1       3.843   3.554   1.940  0.00  0.00    +0.037 A 
ATOM      8  C   UNL     1       2.460   3.573   1.814  0.00  0.00    -0.024 A 
ATOM      9  C   UNL     1       1.827   4.703   1.336  0.00  0.00    +0.034 A 
ATOM     10  C   UNL     1       1.655   2.360   2.202  0.00  0.00    +0.046 C 
ATOM     11  C   UNL     1       2.454   1.094   1.879  0.00  0.00    +0.101 C 
ATOM     12  C   UNL     1       3.851   1.222   2.424  0.00  0.00    +0.218 C 
ATOM     13  O   UNL     1       4.415   0.242   2.863  0.00  0.00    -0.275 OA
ATOM     14  N   UNL     1       4.484   2.409   2.425  0.00  0.00    -0.285 N 
ATOM     15  H   UNL     1       5.390   2.472   2.764  0.00  0.00    +0.155 HD
ENDBRANCH   1   4
BRANCH   1  16
ATOM     16  N   UNL     1       1.537   8.275   1.658  0.00  0.00    -0.216 N 
ATOM     17  H   UNL     1       1.966   9.145   1.667  0.00  0.00    +0.174 HD
BRANCH  16  20
ATOM     18  C   UNL     1       0.518   7.102   4.988  0.00  0.00    +0.014 A 
ATOM     19  C   UNL     1       1.316   7.490   3.930  0.00  0.00    +0.025 A 
ATOM     20  C   UNL     1       0.734   7.882   2.731  0.00  0.00    +0.048 A 
ATOM     21  C   UNL     1      -0.649   7.887   2.603  0.00  0.00    +0.025 A 
ATOM     22  C   UNL     1      -1.441   7.493   3.664  0.00  0.00    +0.014 A 
ATOM     23  C   UNL     1      -0.859   7.104   4.856  0.00  0.00    +0.055 A 
BRANCH  23  24
ATOM     24  C   UNL     1      -1.726   6.680   6.013  0.00  0.00    +0.417 C 
ATOM     25  F   UNL     1      -2.034   7.796   6.799  0.00  0.00    -0.166 F 
ATOM     26  F   UNL     1      -2.908   6.112   5.526  0.00  0.00    -0.166 F 
ATOM     27  F   UNL     1      -1.041   5.738   6.789  0.00  0.00    -0.166 F 
ENDBRANCH  23  24
ENDBRANCH  16  20
ENDBRANCH   1  16
TORSDOF 4
