REMARK  Name = ZINC16610769
REMARK  9 active torsions:
REMARK  status: ('A' for Active; 'I' for Inactive)
REMARK    1  A    between atoms: C_1  and  C_2
REMARK    2  A    between atoms: C_2  and  O_3
REMARK    3  A    between atoms: O_3  and  C_4
REMARK    4  A    between atoms: C_4  and  C_6
REMARK    5  A    between atoms: C_7  and  C_33
REMARK    6  A    between atoms: N_8  and  C_32
REMARK    7  A    between atoms: C_12  and  C_14
REMARK    8  A    between atoms: C_18  and  N_20
REMARK    9  A    between atoms: N_23  and  C_24
REMARK                            x       y       z     vdW  Elec       q    Type
REMARK                         _______ _______ _______ _____ _____    ______ ____
ROOT
ATOM      1  C   UNL     1       8.269   2.614  -0.254  0.00  0.00    -0.021 A 
ATOM      2  C   UNL     1       8.254   3.997  -0.249  0.00  0.00    +0.006 A 
ATOM      3  C   UNL     1       7.051   4.678  -0.232  0.00  0.00    +0.002 A 
ATOM      4  C   UNL     1       5.859   3.978  -0.223  0.00  0.00    +0.023 A 
ATOM      5  C   UNL     1       5.871   2.590  -0.223  0.00  0.00    +0.035 A 
ATOM      6  C   UNL     1       7.082   1.909  -0.241  0.00  0.00    +0.029 A 
ENDROOT
BRANCH   1  13
ATOM      7  C   UNL     1      10.086   1.781   1.153  0.00  0.00    +0.078 C 
ATOM      8  C   UNL     1      11.299   2.309   1.428  0.00  0.00    +0.021 C 
ATOM      9  N   UNL     1      12.043   2.908   0.454  0.00  0.00    -0.289 N 
ATOM     10  C   UNL     1      11.648   3.019  -0.821  0.00  0.00    +0.137 C 
ATOM     11  S   UNL     1      12.682   3.794  -1.944  0.00  0.00    -0.018 S 
ATOM     12  N   UNL     1      10.463   2.541  -1.248  0.00  0.00    -0.315 N 
ATOM     13  C   UNL     1       9.582   1.875  -0.273  0.00  0.00    +0.141 C 
ATOM     14  C   UNL     1      13.349   3.460   0.823  0.00  0.00    +0.137 C 
ATOM     15  C   UNL     1      11.837   2.237   2.834  0.00  0.00    +0.061 C 
ATOM     16  H   UNL     1      10.196   2.632  -2.176  0.00  0.00    +0.149 HD
BRANCH   7  17
ATOM     17  C   UNL     1       9.314   1.161   2.162  0.00  0.00    +0.339 C 
ATOM     18  O   UNL     1       9.739   1.097   3.301  0.00  0.00    -0.245 OA
BRANCH  17  19
ATOM     19  O   UNL     1       8.105   0.641   1.863  0.00  0.00    -0.462 OA
BRANCH  19  21
ATOM     20  C   UNL     1       6.044  -0.498   2.404  0.00  0.00    +0.048 C 
ATOM     21  C   UNL     1       7.379   0.030   2.931  0.00  0.00    +0.229 C 
ENDBRANCH  19  21
ENDBRANCH  17  19
ENDBRANCH   7  17
ENDBRANCH   1  13
BRANCH   5  22
ATOM     22  N   UNL     1       4.666   1.879  -0.210  0.00  0.00    -0.269 N 
ATOM     23  C   UNL     1       3.609   2.356   0.475  0.00  0.00    +0.308 C 
ATOM     24  O   UNL     1       3.675   3.444   1.014  0.00  0.00    -0.252 OA
ATOM     25  N   UNL     1       2.478   1.627   0.564  0.00  0.00    -0.268 N 
ATOM     26  H   UNL     1       4.592   1.042  -0.696  0.00  0.00    +0.156 HD
ATOM     27  H   UNL     1       2.448   0.733   0.191  0.00  0.00    +0.156 HD
BRANCH  25  28
ATOM     28  C   UNL     1       1.348   2.163   1.194  0.00  0.00    +0.053 A 
ATOM     29  C   UNL     1       1.495   3.006   2.287  0.00  0.00    +0.026 A 
ATOM     30  C   UNL     1       0.379   3.533   2.907  0.00  0.00    +0.022 A 
ATOM     31  C   UNL     1      -0.886   3.221   2.440  0.00  0.00    +0.042 A 
ATOM     32  C   UNL     1      -1.036   2.385   1.347  0.00  0.00    +0.041 A 
ATOM     33  C   UNL     1       0.077   1.851   0.727  0.00  0.00    +0.064 A 
ATOM     34 CL   UNL     1      -0.111   0.796  -0.640  0.00  0.00    -0.082 Cl
ATOM     35 CL   UNL     1      -2.286   3.885   3.221  0.00  0.00    -0.083 Cl
ENDBRANCH  25  28
ENDBRANCH   5  22
TORSDOF 6
