REMARK  Name = ZINC18707671
REMARK  7 active torsions:
REMARK  status: ('A' for Active; 'I' for Inactive)
REMARK    1  A    between atoms: C_1  and  C_2
REMARK    2  A    between atoms: C_5  and  N_19
REMARK    3  A    between atoms: C_7  and  S_8
REMARK    4  A    between atoms: S_8  and  N_11
REMARK    5  A    between atoms: N_11  and  C_12
REMARK    6  A    between atoms: N_19  and  S_20
REMARK    7  A    between atoms: S_20  and  C_23
REMARK                            x       y       z     vdW  Elec       q    Type
REMARK                         _______ _______ _______ _____ _____    ______ ____
ROOT
ATOM      1  C   UNL     1      -1.440  -1.600  -1.515  0.00  0.00    +0.046 C 
ATOM      2  C   UNL     1      -0.495  -0.471  -1.195  0.00  0.00    -0.024 A 
ATOM      3  C   UNL     1      -0.966   0.828  -1.139  0.00  0.00    +0.007 A 
ATOM      4  C   UNL     1      -0.102   1.865  -0.846  0.00  0.00    +0.025 A 
ATOM      5  C   UNL     1       1.241   1.602  -0.608  0.00  0.00    +0.050 A 
ATOM      6  C   UNL     1       1.711   0.296  -0.665  0.00  0.00    +0.053 A 
ATOM      7  C   UNL     1       0.842  -0.736  -0.958  0.00  0.00    +0.113 A 
ENDROOT
BRANCH   7   8
ATOM      8  S   UNL     1       1.436  -2.393  -1.030  0.00  0.00    +0.073 S 
ATOM      9  O   UNL     1       0.981  -2.935  -2.263  0.00  0.00    -0.150 OA
ATOM     10  O   UNL     1       2.812  -2.346  -0.680  0.00  0.00    -0.150 OA
BRANCH   8  11
ATOM     11  N   UNL     1       0.671  -3.240   0.170  0.00  0.00    -0.213 N 
ATOM     12  H   UNL     1       0.034  -3.935  -0.057  0.00  0.00    +0.174 HD
BRANCH  11  13
ATOM     13  C   UNL     1       0.945  -2.954   1.511  0.00  0.00    +0.083 A 
ATOM     14  C   UNL     1       1.309  -1.668   1.888  0.00  0.00    +0.027 A 
ATOM     15  C   UNL     1       1.575  -1.387   3.214  0.00  0.00    +0.002 A 
ATOM     16  C   UNL     1       1.487  -2.387   4.166  0.00  0.00    +0.003 A 
ATOM     17  C   UNL     1       1.129  -3.670   3.795  0.00  0.00    +0.040 A 
ATOM     18  C   UNL     1       0.858  -3.958   2.470  0.00  0.00    +0.146 A 
ATOM     19  F   UNL     1       0.509  -5.211   2.107  0.00  0.00    -0.204 F 
ENDBRANCH  11  13
ENDBRANCH   8  11
ENDBRANCH   7   8
BRANCH   5  20
ATOM     20  N   UNL     1       2.117   2.649  -0.311  0.00  0.00    -0.216 N 
ATOM     21  H   UNL     1       2.743   2.563   0.426  0.00  0.00    +0.174 HD
BRANCH  20  22
ATOM     22  S   UNL     1       2.088   4.036  -1.215  0.00  0.00    +0.072 S 
ATOM     23  O   UNL     1       0.737   4.477  -1.238  0.00  0.00    -0.150 OA
ATOM     24  O   UNL     1       3.148   4.853  -0.740  0.00  0.00    -0.150 OA
BRANCH  22  25
ATOM     25  C   UNL     1       2.499   3.588  -2.869  0.00  0.00    +0.109 A 
ATOM     26  C   UNL     1       1.495   3.336  -3.786  0.00  0.00    +0.030 A 
ATOM     27  C   UNL     1       1.813   2.985  -5.083  0.00  0.00    +0.025 A 
ATOM     28  C   UNL     1       3.144   2.884  -5.466  0.00  0.00    +0.037 A 
ATOM     29  C   UNL     1       4.150   3.137  -4.543  0.00  0.00    -0.024 A 
ATOM     30  C   UNL     1       3.825   3.494  -3.248  0.00  0.00    +0.034 A 
ATOM     31  C   UNL     1       5.594   3.028  -4.958  0.00  0.00    +0.046 C 
ATOM     32  C   UNL     1       5.745   1.914  -5.995  0.00  0.00    +0.101 C 
ATOM     33  C   UNL     1       4.705   2.071  -7.071  0.00  0.00    +0.218 C 
ATOM     34  O   UNL     1       4.979   1.782  -8.216  0.00  0.00    -0.275 OA
ATOM     35  N   UNL     1       3.474   2.530  -6.777  0.00  0.00    -0.285 N 
ATOM     36  H   UNL     1       2.811   2.614  -7.480  0.00  0.00    +0.155 HD
ENDBRANCH  22  25
ENDBRANCH  20  22
ENDBRANCH   5  20
TORSDOF 6
