REMARK  Name = ZINC17080639
REMARK  5 active torsions:
REMARK  status: ('A' for Active; 'I' for Inactive)
REMARK    1  A    between atoms: C_10  and  O_11
REMARK    2  A    between atoms: O_11  and  C_12
REMARK    3  A    between atoms: C_12  and  C_13
REMARK    4  A    between atoms: N_15  and  C_16
REMARK    5  A    between atoms: C_17  and  C_26
REMARK                            x       y       z     vdW  Elec       q    Type
REMARK                         _______ _______ _______ _____ _____    ______ ____
ROOT
ATOM      1  C   UNL     1      -4.883   3.803   0.069  0.00  0.00    +0.255 C 
ATOM      2  O   UNL     1      -4.766   5.010   0.074  0.00  0.00    -0.272 OA
ATOM      3  N   UNL     1      -6.109   3.245   0.078  0.00  0.00    -0.277 N 
ATOM      4  H   UNL     1      -6.203   2.279   0.074  0.00  0.00    +0.155 HD
ENDROOT
BRANCH   3   5
ATOM      5  C   UNL     1      -7.238   4.050   0.092  0.00  0.00    +0.084 A 
ATOM      6  C   UNL     1      -8.570   3.668   0.098  0.00  0.00    +0.068 A 
ATOM      7  C   UNL     1      -9.577   4.719   0.122  0.00  0.00    -0.023 A 
ATOM      8  C   UNL     1      -9.087   5.977   0.118  0.00  0.00    -0.004 A 
ATOM      9  S   UNL     1      -7.326   5.780   0.101  0.00  0.00    -0.077 S 
ATOM     10  C   UNL     1      -9.858   7.260   0.114  0.00  0.00    +0.043 C 
ATOM     11  C   UNL     1     -10.938   7.206   1.203  0.00  0.00    +0.005 C 
ATOM     12  C   UNL     1     -12.205   6.612   0.596  0.00  0.00    +0.001 C 
ATOM     13  C   UNL     1     -11.844   5.581  -0.471  0.00  0.00    +0.005 C 
ATOM     14  C   UNL     1     -11.071   4.422   0.149  0.00  0.00    +0.037 C 
BRANCH   6  15
ATOM     15  C   UNL     1      -8.952   2.252   0.083  0.00  0.00    +0.244 C 
ATOM     16  O   UNL     1      -9.103   1.652   1.131  0.00  0.00    -0.270 OA
ATOM     17  N   UNL     1      -9.135   1.615  -1.090  0.00  0.00    -0.325 N 
ATOM     18  H   UNL     1      -9.015   2.094  -1.925  0.00  0.00    +0.145 HD
ATOM     19  H   UNL     1      -9.388   0.679  -1.100  0.00  0.00    +0.145 HD
ENDBRANCH   6  15
ENDBRANCH   3   5
BRANCH   1  20
ATOM     20  C   UNL     1      -3.656   2.927   0.053  0.00  0.00    +0.324 C 
BRANCH  20  21
ATOM     21  O   UNL     1      -2.486   3.747   0.046  0.00  0.00    -0.482 OA
BRANCH  21  31
ATOM     22  C   UNL     1       2.297   5.267   0.007  0.00  0.00    +0.001 A 
ATOM     23  C   UNL     1       1.077   5.940   0.022  0.00  0.00    +0.001 A 
ATOM     24  C   UNL     1      -0.100   5.256   0.030  0.00  0.00    +0.012 A 
ATOM     25  C   UNL     1      -0.088   3.852   0.024  0.00  0.00    +0.024 A 
ATOM     26  C   UNL     1       1.152   3.167   0.008  0.00  0.00    -0.014 A 
ATOM     27  C   UNL     1       2.347   3.907   0.000  0.00  0.00    +0.008 A 
ATOM     28  C   UNL     1       1.164   1.762   0.000  0.00  0.00    +0.009 A 
ATOM     29  C   UNL     1      -0.013   1.076   0.008  0.00  0.00    +0.004 A 
ATOM     30  C   UNL     1      -1.234   1.744   0.017  0.00  0.00    +0.046 A 
ATOM     31  C   UNL     1      -1.287   3.110   0.032  0.00  0.00    +0.129 A 
ENDBRANCH  21  31
ENDBRANCH  20  21
ENDBRANCH   1  20
TORSDOF 5
