REMARK  Name = ZINC16247965
REMARK  6 active torsions:
REMARK  status: ('A' for Active; 'I' for Inactive)
REMARK    1  A    between atoms: C_3  and  O_30
REMARK    2  A    between atoms: C_6  and  N_7
REMARK    3  A    between atoms: C_11  and  N_15
REMARK    4  A    between atoms: C_18  and  C_21
REMARK    5  A    between atoms: C_18  and  N_24
REMARK    6  A    between atoms: O_30  and  C_31
REMARK                            x       y       z     vdW  Elec       q    Type
REMARK                         _______ _______ _______ _____ _____    ______ ____
ROOT
ATOM      1  N   UNL     1      -1.380  -0.528   0.350  0.00  0.00    -0.209 N 
ATOM      2  C   UNL     1      -2.626  -0.044   0.291  0.00  0.00    +0.228 C 
ATOM      3  O   UNL     1      -2.928   1.128   0.363  0.00  0.00    -0.275 OA
ATOM      4  C   UNL     1      -3.599  -1.190   0.120  0.00  0.00    +0.125 C 
ATOM      5  C   UNL     1      -2.688  -2.435   0.090  0.00  0.00    +0.153 C 
ATOM      6  C   UNL     1      -1.297  -1.860   0.241  0.00  0.00    +0.244 C 
ATOM      7  O   UNL     1      -0.270  -2.504   0.264  0.00  0.00    -0.273 OA
ENDROOT
BRANCH   1  13
ATOM      8  C   UNL     1       0.708   0.351  -0.494  0.00  0.00    +0.027 A 
ATOM      9  C   UNL     1       1.817   1.160  -0.339  0.00  0.00    +0.048 A 
ATOM     10  C   UNL     1       1.971   1.913   0.816  0.00  0.00    +0.129 A 
ATOM     11  C   UNL     1       1.012   1.854   1.816  0.00  0.00    +0.048 A 
ATOM     12  C   UNL     1      -0.097   1.046   1.662  0.00  0.00    +0.027 A 
ATOM     13  C   UNL     1      -0.252   0.293   0.507  0.00  0.00    +0.044 A 
BRANCH  10  14
ATOM     14  O   UNL     1       3.064   2.708   0.968  0.00  0.00    -0.420 OA
BRANCH  14  15
ATOM     15  C   UNL     1       3.158   3.455   2.182  0.00  0.00    +0.489 C 
ATOM     16  F   UNL     1       2.055   4.308   2.292  0.00  0.00    -0.149 F 
ATOM     17  F   UNL     1       3.179   2.576   3.270  0.00  0.00    -0.149 F 
ATOM     18 CL   UNL     1       4.674   4.432   2.170  0.00  0.00    +0.000 Cl
ENDBRANCH  14  15
ENDBRANCH  10  14
ENDBRANCH   1  13
BRANCH   5  19
ATOM     19  N   UNL     1      -3.008  -3.336   1.205  0.00  0.00    -0.291 NA
ATOM     20  C   UNL     1      -4.428  -3.710   1.188  0.00  0.00    +0.084 C 
ATOM     21  C   UNL     1      -4.756  -4.528   2.440  0.00  0.00    +0.013 C 
ATOM     22  C   UNL     1      -3.879  -5.782   2.468  0.00  0.00    +0.015 C 
ATOM     23  C   UNL     1      -2.406  -5.367   2.436  0.00  0.00    +0.013 C 
ATOM     24  C   UNL     1      -2.146  -4.525   1.184  0.00  0.00    +0.084 C 
BRANCH  22  25
ATOM     25  N   UNL     1      -4.148  -6.541   3.697  0.00  0.00    +0.389 N 
ATOM     26  C   UNL     1      -3.772  -5.732   4.862  0.00  0.00    -0.077 C 
ATOM     27  C   UNL     1      -4.125  -6.486   6.147  0.00  0.00    -0.019 C 
ATOM     28  C   UNL     1      -3.363  -7.814   6.178  0.00  0.00    -0.004 C 
ATOM     29  C   UNL     1      -3.706  -8.618   4.921  0.00  0.00    -0.019 C 
ATOM     30  C   UNL     1      -3.369  -7.785   3.682  0.00  0.00    -0.077 C 
ATOM     31  H   UNL     1      -5.131  -6.762   3.747  0.00  0.00    -0.080 HD
ENDBRANCH  22  25
BRANCH  22  32
ATOM     32  C   UNL     1      -4.187  -6.639   1.268  0.00  0.00    +0.200 C 
ATOM     33  O   UNL     1      -3.471  -6.594   0.290  0.00  0.00    -0.278 OA
ATOM     34  N   UNL     1      -5.259  -7.457   1.280  0.00  0.00    -0.330 N 
ATOM     35  H   UNL     1      -5.788  -7.550   2.088  0.00  0.00    +0.145 HD
ATOM     36  H   UNL     1      -5.500  -7.952   0.482  0.00  0.00    +0.145 HD
ENDBRANCH  22  32
ENDBRANCH   5  19
TORSDOF 6
