REMARK  Name = ZINC29145673
REMARK  9 active torsions:
REMARK  status: ('A' for Active; 'I' for Inactive)
REMARK    1  A    between atoms: C_1  and  C_2
REMARK    2  A    between atoms: C_2  and  C_4
REMARK    3  A    between atoms: C_2  and  N_28
REMARK    4  A    between atoms: C_7  and  S_16
REMARK    5  A    between atoms: N_8  and  C_9
REMARK    6  A    between atoms: S_16  and  C_17
REMARK    7  A    between atoms: C_17  and  C_18
REMARK    8  A    between atoms: N_28  and  C_29
REMARK    9  A    between atoms: N_28  and  C_30
REMARK                            x       y       z     vdW  Elec       q    Type
REMARK                         _______ _______ _______ _____ _____    ______ ____
ROOT
ATOM      1  C   UNL     1      -1.445   3.466   2.516  0.00  0.00    +0.125 A 
ATOM      2  N   UNL     1      -2.562   2.986   2.984  0.00  0.00    -0.135 NA
ATOM      3  N   UNL     1      -2.887   3.595   4.067  0.00  0.00    -0.122 NA
ATOM      4  C   UNL     1      -1.992   4.513   4.350  0.00  0.00    +0.197 A 
ATOM      5  N   UNL     1      -1.041   4.460   3.368  0.00  0.00    -0.275 N 
ENDROOT
BRANCH   5   6
ATOM      6  C   UNL     1       0.107   5.258   3.256  0.00  0.00    +0.050 A 
ATOM      7  C   UNL     1       1.366   4.682   3.362  0.00  0.00    +0.028 A 
ATOM      8  C   UNL     1       2.496   5.468   3.246  0.00  0.00    +0.022 A 
ATOM      9  C   UNL     1       2.373   6.831   3.036  0.00  0.00    +0.041 A 
ATOM     10  C   UNL     1       1.119   7.407   2.935  0.00  0.00    +0.022 A 
ATOM     11  C   UNL     1      -0.013   6.624   3.045  0.00  0.00    +0.028 A 
ATOM     12 CL   UNL     1       3.795   7.817   2.897  0.00  0.00    -0.084 Cl
ENDBRANCH   5   6
BRANCH   1  14
ATOM     13  C   UNL     1      -1.478   3.542   0.038  0.00  0.00    -0.005 C 
ATOM     14  C   UNL     1      -0.733   3.017   1.266  0.00  0.00    -0.003 C 
BRANCH  14  15
ATOM     15  N   UNL     1      -0.694   1.549   1.226  0.00  0.00    +0.382 N 
ATOM     16  C   UNL     1      -0.006   1.073   0.019  0.00  0.00    -0.096 C 
ATOM     17  C   UNL     1      -0.068   1.005   2.438  0.00  0.00    -0.096 C 
ATOM     18  H   UNL     1      -1.732   1.185   1.189  0.00  0.00    -0.082 HD
ENDBRANCH  14  15
ENDBRANCH   1  14
BRANCH   4  19
ATOM     19  S   UNL     1      -2.011   5.605   5.733  0.00  0.00    -0.076 S 
BRANCH  19  20
ATOM     20  C   UNL     1      -3.541   5.068   6.537  0.00  0.00    +0.173 C 
BRANCH  20  21
ATOM     21  C   UNL     1      -3.769   5.887   7.781  0.00  0.00    +0.229 C 
ATOM     22  O   UNL     1      -2.976   6.749   8.093  0.00  0.00    -0.275 OA
ATOM     23  N   UNL     1      -4.856   5.662   8.546  0.00  0.00    -0.270 N 
ATOM     24  C   UNL     1      -5.013   6.345   9.751  0.00  0.00    +0.125 A 
ATOM     25  C   UNL     1      -6.079   6.031  10.586  0.00  0.00    +0.045 A 
ATOM     26  C   UNL     1      -6.221   6.713  11.782  0.00  0.00    +0.020 A 
ATOM     27  C   UNL     1      -5.293   7.697  12.098  0.00  0.00    +0.036 A 
ATOM     28  C   UNL     1      -4.261   7.960  11.218  0.00  0.00    +0.128 A 
ATOM     29  N   UNL     1      -4.149   7.289  10.087  0.00  0.00    -0.239 NA
ATOM     30 BR   UNL     1      -5.440   8.665  13.715  0.00  0.00    -0.049 Br
ATOM     31  H   UNL     1      -5.618   4.939   8.220  0.00  0.00    +0.156 HD
ENDBRANCH  20  21
ENDBRANCH  19  20
ENDBRANCH   4  19
TORSDOF 6
