REMARK  Name = ZINC13064529
REMARK  15 active torsions:
REMARK  status: ('A' for Active; 'I' for Inactive)
REMARK    1  A    between atoms: C_1  and  C_2
REMARK    2  A    between atoms: C_2  and  C_3
REMARK    3  A    between atoms: C_3  and  C_5
REMARK    4  A    between atoms: C_3  and  N_71
REMARK    5  A    between atoms: N_9  and  C_10
REMARK    6  A    between atoms: C_10  and  C_11
REMARK    7  A    between atoms: C_16  and  C_17
REMARK    8  A    between atoms: C_16  and  N_71
REMARK    9  A    between atoms: C_17  and  C_18
REMARK   10  A    between atoms: C_24  and  C_25
REMARK   11  A    between atoms: C_24  and  N_71
REMARK   12  A    between atoms: C_29  and  O_39
REMARK   13  A    between atoms: C_30  and  O_37
REMARK   14  A    between atoms: O_37  and  C_38
REMARK   15  A    between atoms: O_39  and  C_40
REMARK                            x       y       z     vdW  Elec       q    Type
REMARK                         _______ _______ _______ _____ _____    ______ ____
ROOT
ATOM      1  N   UNL     1      -5.482   4.068  -1.691  0.00  0.00    +0.389 N 
ATOM      2  H   UNL     1      -4.909   4.508  -2.420  0.00  0.00    -0.080 HD
ENDROOT
BRANCH   1   3
ATOM      3  C   UNL     1      -6.770   4.787  -1.594  0.00  0.00    +0.003 C 
BRANCH   3   4
ATOM      4  C   UNL     1      -6.527   6.248  -1.872  0.00  0.00    +0.139 A 
ATOM      5  N   UNL     1      -5.543   6.980  -1.409  0.00  0.00    -0.115 NA
ATOM      6  N   UNL     1      -5.682   8.174  -1.872  0.00  0.00    -0.023 NA
ATOM      7  N   UNL     1      -6.729   8.223  -2.619  0.00  0.00    -0.044 NA
ATOM      8  N   UNL     1      -7.274   7.054  -2.648  0.00  0.00    -0.223 N 
BRANCH   8   9
ATOM      9  C   UNL     1      -8.483   6.676  -3.385  0.00  0.00    +0.221 C 
BRANCH   9  10
ATOM     10  C   UNL     1      -9.692   6.893  -2.513  0.00  0.00    +0.126 A 
ATOM     11  C   UNL     1     -10.409   8.028  -2.431  0.00  0.00    +0.046 A 
ATOM     12  C   UNL     1     -11.448   7.790  -1.501  0.00  0.00    +0.041 A 
ATOM     13  C   UNL     1     -11.298   6.526  -1.065  0.00  0.00    +0.195 A 
ATOM     14  O   UNL     1     -10.233   5.988  -1.681  0.00  0.00    -0.466 OA
ENDBRANCH   9  10
ENDBRANCH   8   9
ENDBRANCH   3   4
BRANCH   3  16
ATOM     15  C   UNL     1      -7.746   3.163   0.034  0.00  0.00    +0.002 C 
ATOM     16  C   UNL     1      -7.367   4.627  -0.194  0.00  0.00    -0.011 C 
ENDBRANCH   3  16
ENDBRANCH   1   3
BRANCH   1  17
ATOM     17  C   UNL     1      -5.719   2.655  -2.054  0.00  0.00    -0.073 C 
BRANCH  17  18
ATOM     18  C   UNL     1      -6.262   2.597  -3.483  0.00  0.00    +0.016 C 
BRANCH  18  19
ATOM     19  C   UNL     1      -6.373   1.159  -3.920  0.00  0.00    -0.049 A 
ATOM     20  C   UNL     1      -5.308   0.544  -4.552  0.00  0.00    +0.003 A 
ATOM     21  C   UNL     1      -5.409  -0.776  -4.949  0.00  0.00    +0.000 A 
ATOM     22  C   UNL     1      -6.577  -1.479  -4.723  0.00  0.00    +0.000 A 
ATOM     23  C   UNL     1      -7.644  -0.862  -4.096  0.00  0.00    +0.000 A 
ATOM     24  C   UNL     1      -7.542   0.457  -3.695  0.00  0.00    +0.003 A 
ENDBRANCH  18  19
ENDBRANCH  17  18
ENDBRANCH   1  17
BRANCH   1  25
ATOM     25  C   UNL     1      -4.762   4.145  -0.403  0.00  0.00    -0.037 C 
BRANCH  25  26
ATOM     26  C   UNL     1      -3.336   3.709  -0.618  0.00  0.00    +0.001 A 
ATOM     27  C   UNL     1      -2.374   4.638  -0.857  0.00  0.00    +0.017 A 
ATOM     28  C   UNL     1      -1.000   4.183  -1.067  0.00  0.00    +0.002 A 
ATOM     29  C   UNL     1       0.029   5.095  -1.334  0.00  0.00    +0.059 A 
ATOM     30  C   UNL     1       1.313   4.635  -1.527  0.00  0.00    +0.162 A 
ATOM     31  C   UNL     1       1.590   3.266  -1.459  0.00  0.00    +0.163 A 
ATOM     32  C   UNL     1       0.581   2.358  -1.197  0.00  0.00    +0.075 A 
ATOM     33  C   UNL     1      -0.721   2.804  -1.004  0.00  0.00    +0.053 A 
ATOM     34  N   UNL     1      -1.742   1.913  -0.747  0.00  0.00    -0.322 N 
ATOM     35  H   UNL     1      -1.548   0.964  -0.701  0.00  0.00    +0.169 HD
ATOM     36  C   UNL     1      -3.003   2.341  -0.560  0.00  0.00    +0.251 A 
ATOM     37  O   UNL     1      -3.881   1.525  -0.336  0.00  0.00    -0.268 OA
BRANCH  31  38
ATOM     38  O   UNL     1       2.860   2.825  -1.652  0.00  0.00    -0.491 OA
ATOM     39  C   UNL     1       3.076   1.415  -1.570  0.00  0.00    +0.277 C 
ENDBRANCH  31  38
BRANCH  30  40
ATOM     40  O   UNL     1       2.316   5.517  -1.786  0.00  0.00    -0.491 OA
ATOM     41  C   UNL     1       1.965   6.901  -1.842  0.00  0.00    +0.277 C 
ENDBRANCH  30  40
ENDBRANCH  25  26
ENDBRANCH   1  25
TORSDOF 12
