REMARK  Name = ZINC63433696
REMARK  10 active torsions:
REMARK  status: ('A' for Active; 'I' for Inactive)
REMARK    1  A    between atoms: C_1  and  C_2
REMARK    2  A    between atoms: C_2  and  C_3
REMARK    3  A    between atoms: C_3  and  C_4
REMARK    4  A    between atoms: C_4  and  N_5
REMARK    5  A    between atoms: C_13  and  S_14
REMARK    6  A    between atoms: S_14  and  C_15
REMARK    7  A    between atoms: C_15  and  C_16
REMARK    8  A    between atoms: N_25  and  C_29
REMARK    9  A    between atoms: C_29  and  C_30
REMARK   10  A    between atoms: C_30  and  C_31
REMARK                            x       y       z     vdW  Elec       q    Type
REMARK                         _______ _______ _______ _____ _____    ______ ____
ROOT
ATOM      1  N   UNL     1       1.471  -2.526   2.420  0.00  0.00    -0.250 N 
ATOM      2  C   UNL     1       2.821  -2.728   2.367  0.00  0.00    +0.238 C 
ATOM      3  O   UNL     1       3.463  -2.590   1.347  0.00  0.00    -0.274 OA
ATOM      4  C   UNL     1       3.447  -3.132   3.666  0.00  0.00    +0.182 C 
ATOM      5  C   UNL     1       2.728  -2.250   4.739  0.00  0.00    +0.217 C 
ATOM      6  N   UNL     1       1.341  -2.635   4.768  0.00  0.00    -0.239 NA
ATOM      7  C   UNL     1       0.766  -2.771   3.588  0.00  0.00    +0.160 C 
ATOM      8  N   UNL     1       3.542  -2.148   5.910  0.00  0.00    -0.295 N 
ATOM      9  C   UNL     1       4.896  -2.091   5.710  0.00  0.00    +0.112 C 
ATOM     10  S   UNL     1       6.111  -1.770   6.873  0.00  0.00    -0.028 S 
ATOM     11  S   UNL     1       5.127  -2.445   3.933  0.00  0.00    -0.086 S 
ENDROOT
BRANCH   1  12
ATOM     12  C   UNL     1       0.763  -2.041   1.233  0.00  0.00    +0.115 C 
BRANCH  12  13
ATOM     13  C   UNL     1       0.742  -0.511   1.242  0.00  0.00    +0.019 C 
BRANCH  13  15
ATOM     14  C   UNL     1      -0.019   1.526   0.010  0.00  0.00    +0.004 C 
ATOM     15  C   UNL     1       0.002  -0.004   0.002  0.00  0.00    -0.002 C 
ENDBRANCH  13  15
ENDBRANCH  12  13
ENDBRANCH   1  12
BRANCH   7  16
ATOM     16  S   UNL     1      -0.919  -3.277   3.499  0.00  0.00    -0.086 S 
BRANCH  16  17
ATOM     17  C   UNL     1      -1.411  -3.473   5.234  0.00  0.00    +0.123 C 
BRANCH  17  18
ATOM     18  C   UNL     1      -2.873  -3.916   5.302  0.00  0.00    +0.184 C 
ATOM     19  N   UNL     1      -3.059  -5.159   4.543  0.00  0.00    -0.363 N 
ATOM     20  C   UNL     1      -3.915  -4.913   3.593  0.00  0.00    +0.060 A 
ATOM     21  C   UNL     1      -4.491  -5.744   2.527  0.00  0.00    +0.027 A 
ATOM     22  C   UNL     1      -5.376  -5.202   1.667  0.00  0.00    +0.002 A 
ATOM     23  C   UNL     1      -5.780  -3.857   1.741  0.00  0.00    +0.002 A 
ATOM     24  C   UNL     1      -5.312  -3.009   2.678  0.00  0.00    +0.027 A 
ATOM     25  C   UNL     1      -4.342  -3.489   3.672  0.00  0.00    +0.060 A 
ATOM     26  N   UNL     1      -3.735  -2.911   4.668  0.00  0.00    -0.363 N 
ATOM     27  H   UNL     1      -2.625  -6.009   4.717  0.00  0.00    +0.162 HD
ATOM     28  H   UNL     1      -3.834  -1.985   4.941  0.00  0.00    +0.162 HD
ENDBRANCH  17  18
ENDBRANCH  16  17
ENDBRANCH   7  16
BRANCH   8  29
ATOM     29  C   UNL     1       2.959  -2.107   7.253  0.00  0.00    +0.113 C 
BRANCH  29  30
ATOM     30  C   UNL     1       2.827  -3.531   7.796  0.00  0.00    +0.054 C 
BRANCH  30  31
ATOM     31  C   UNL     1       2.227  -3.488   9.178  0.00  0.00    -0.046 A 
ATOM     32  C   UNL     1       3.048  -3.384  10.285  0.00  0.00    +0.004 A 
ATOM     33  C   UNL     1       2.497  -3.344  11.552  0.00  0.00    +0.000 A 
ATOM     34  C   UNL     1       1.126  -3.409  11.712  0.00  0.00    +0.000 A 
ATOM     35  C   UNL     1       0.305  -3.512  10.605  0.00  0.00    +0.000 A 
ATOM     36  C   UNL     1       0.855  -3.547   9.338  0.00  0.00    +0.004 A 
ENDBRANCH  30  31
ENDBRANCH  29  30
ENDBRANCH   8  29
TORSDOF 9
