REMARK  Name = ZINC64165163
REMARK  6 active torsions:
REMARK  status: ('A' for Active; 'I' for Inactive)
REMARK    1  A    between atoms: C_8  and  C_12
REMARK    2  A    between atoms: N_14  and  C_15
REMARK    3  A    between atoms: C_15  and  C_17
REMARK    4  A    between atoms: C_15  and  C_27
REMARK    5  A    between atoms: C_17  and  C_18
REMARK    6  A    between atoms: N_29  and  C_30
REMARK                            x       y       z     vdW  Elec       q    Type
REMARK                         _______ _______ _______ _____ _____    ______ ____
ROOT
ATOM      1  C   UNL     1       2.058  -6.524   0.757  0.00  0.00    +0.163 C 
ENDROOT
BRANCH   1   4
ATOM      2  C   UNL     1       2.579  -4.232   0.113  0.00  0.00    +0.231 C 
ATOM      3  O   UNL     1       3.106  -4.665  -0.890  0.00  0.00    -0.274 OA
ATOM      4  N   UNL     1       2.024  -5.080   1.002  0.00  0.00    -0.302 N 
ATOM      5  H   UNL     1       1.602  -4.734   1.804  0.00  0.00    +0.150 HD
BRANCH   2  13
ATOM      6  C   UNL     1      -0.022   1.379   0.035  0.00  0.00    +0.000 A 
ATOM      7  C   UNL     1       1.169   2.083   0.020  0.00  0.00    +0.000 A 
ATOM      8  C   UNL     1       2.369   1.402  -0.003  0.00  0.00    +0.005 A 
ATOM      9  C   UNL     1       2.389   0.015  -0.013  0.00  0.00    -0.030 A 
ATOM     10  C   UNL     1       1.202  -0.686  -0.002  0.00  0.00    -0.041 A 
ATOM     11  C   UNL     1      -0.004  -0.001   0.024  0.00  0.00    +0.004 A 
ATOM     12  C   UNL     1       1.173  -2.192  -0.023  0.00  0.00    +0.063 C 
ATOM     13  C   UNL     1       2.544  -2.747   0.364  0.00  0.00    +0.145 C 
ATOM     14  N   UNL     1       3.567  -2.078  -0.455  0.00  0.00    -0.301 NA
ATOM     15  C   UNL     1       3.724  -0.683  -0.032  0.00  0.00    +0.117 C 
ATOM     16  H   UNL     1       4.446  -2.571  -0.408  0.00  0.00    +0.123 HD
ENDBRANCH   2  13
ENDBRANCH   1   4
BRANCH   1  17
ATOM     17  C   UNL     1       0.917  -7.184   1.487  0.00  0.00    +0.238 C 
ATOM     18  O   UNL     1       0.150  -6.514   2.146  0.00  0.00    -0.273 OA
ATOM     19  N   UNL     1       0.748  -8.519   1.406  0.00  0.00    -0.284 N 
ATOM     20  H   UNL     1       1.319  -9.046   0.826  0.00  0.00    +0.155 HD
BRANCH  19  21
ATOM     21  C   UNL     1      -0.253  -9.145   2.161  0.00  0.00    +0.037 A 
ATOM     22  C   UNL     1      -0.036 -10.412   2.686  0.00  0.00    +0.027 A 
ATOM     23  C   UNL     1      -1.022 -11.031   3.431  0.00  0.00    +0.051 A 
ATOM     24  C   UNL     1      -2.229 -10.389   3.655  0.00  0.00    +0.166 A 
ATOM     25  C   UNL     1      -2.449  -9.118   3.130  0.00  0.00    +0.168 A 
ATOM     26  C   UNL     1      -1.459  -8.496   2.389  0.00  0.00    +0.072 A 
ATOM     27  O   UNL     1      -3.701  -8.709   3.488  0.00  0.00    -0.453 OA
ATOM     28  C   UNL     1      -4.397  -9.904   3.890  0.00  0.00    +0.466 C 
ATOM     29  O   UNL     1      -3.344 -10.776   4.343  0.00  0.00    -0.453 OA
ENDBRANCH  19  21
ENDBRANCH   1  17
BRANCH   1  30
ATOM     30  C   UNL     1       3.385  -7.095   1.261  0.00  0.00    +0.065 C 
BRANCH  30  31
ATOM     31  C   UNL     1       4.519  -6.526   0.448  0.00  0.00    -0.039 C 
ATOM     32  C   UNL     1       5.284  -5.455   0.757  0.00  0.00    -0.001 A 
ATOM     33  C   UNL     1       5.288  -4.533   1.900  0.00  0.00    +0.010 A 
ATOM     34  C   UNL     1       6.196  -3.530   1.930  0.00  0.00    +0.001 A 
ATOM     35  C   UNL     1       7.129  -3.350   0.901  0.00  0.00    +0.002 A 
ATOM     36  C   UNL     1       7.187  -4.156  -0.181  0.00  0.00    +0.026 A 
ATOM     37  C   UNL     1       6.280  -5.243  -0.317  0.00  0.00    +0.043 A 
ATOM     38  N   UNL     1       6.137  -6.148  -1.254  0.00  0.00    -0.380 N 
ATOM     39  C   UNL     1       5.036  -7.042  -0.877  0.00  0.00    +0.144 C 
ATOM     40  H   UNL     1       6.672  -6.218  -2.060  0.00  0.00    +0.160 HD
ENDBRANCH  30  31
ENDBRANCH   1  30
TORSDOF 6
