REMARK  Name = ZINC35293836
REMARK  8 active torsions:
REMARK  status: ('A' for Active; 'I' for Inactive)
REMARK    1  A    between atoms: C_1  and  C_2
REMARK    2  A    between atoms: N_8  and  C_9
REMARK    3  A    between atoms: C_9  and  C_10
REMARK    4  A    between atoms: C_10  and  C_11
REMARK    5  A    between atoms: C_11  and  N_12
REMARK    6  A    between atoms: C_13  and  C_15
REMARK    7  A    between atoms: C_17  and  C_28
REMARK    8  A    between atoms: N_19  and  C_20
REMARK                            x       y       z     vdW  Elec       q    Type
REMARK                         _______ _______ _______ _____ _____    ______ ____
ROOT
ATOM      1  C   UNL     1       6.737  -0.001   5.328  0.00  0.00    +0.130 A 
ATOM      2  C   UNL     1       6.203  -0.765   6.342  0.00  0.00    +0.066 A 
ATOM      3  C   UNL     1       7.130  -0.778   7.398  0.00  0.00    +0.129 A 
ATOM      4  N   UNL     1       8.177  -0.057   7.044  0.00  0.00    -0.163 NA
ATOM      5  N   UNL     1       7.964   0.439   5.752  0.00  0.00    -0.227 N 
ENDROOT
BRANCH   5   6
ATOM      6  C   UNL     1       8.848   1.243   5.023  0.00  0.00    +0.068 A 
ATOM      7  C   UNL     1       8.376   2.365   4.354  0.00  0.00    +0.029 A 
ATOM      8  C   UNL     1       9.249   3.158   3.636  0.00  0.00    +0.023 A 
ATOM      9  C   UNL     1      10.594   2.835   3.581  0.00  0.00    +0.059 A 
ATOM     10  C   UNL     1      11.067   1.717   4.247  0.00  0.00    +0.061 A 
ATOM     11  C   UNL     1      10.198   0.923   4.972  0.00  0.00    +0.049 A 
ATOM     12 CL   UNL     1      12.755   1.315   4.176  0.00  0.00    -0.082 Cl
ATOM     13 CL   UNL     1      11.689   3.833   2.677  0.00  0.00    -0.082 Cl
ENDBRANCH   5   6
BRANCH   3  14
ATOM     14  C   UNL     1       6.960  -1.480   8.688  0.00  0.00    +0.155 A 
ATOM     15  C   UNL     1       7.852  -1.491   9.714  0.00  0.00    +0.051 A 
ATOM     16  C   UNL     1       7.285  -2.278  10.737  0.00  0.00    +0.042 A 
ATOM     17  C   UNL     1       6.088  -2.704  10.289  0.00  0.00    +0.196 A 
ATOM     18  O   UNL     1       5.893  -2.216   9.053  0.00  0.00    -0.461 OA
ENDBRANCH   3  14
BRANCH   1  20
ATOM     19  N   UNL     1       4.846  -0.117   3.787  0.00  0.00    -0.310 N 
ATOM     20  C   UNL     1       6.109   0.286   4.029  0.00  0.00    +0.263 C 
ATOM     21  O   UNL     1       6.731   0.886   3.172  0.00  0.00    -0.269 OA
ATOM     22  H   UNL     1       4.376  -0.658   4.441  0.00  0.00    +0.149 HD
BRANCH  19  23
ATOM     23  C   UNL     1       4.182   0.263   2.538  0.00  0.00    +0.103 C 
BRANCH  23  24
ATOM     24  C   UNL     1       2.767  -0.318   2.514  0.00  0.00    +0.000 C 
BRANCH  24  25
ATOM     25  C   UNL     1       2.074   0.079   1.210  0.00  0.00    -0.077 C 
BRANCH  25  32
ATOM     26  C   UNL     1       0.007   1.530  -0.018  0.00  0.00    -0.013 C 
ATOM     27  C   UNL     1       0.011  -0.000  -0.008  0.00  0.00    -0.072 C 
ATOM     28  C   UNL     1      -1.431  -0.513   0.006  0.00  0.00    -0.016 C 
ATOM     29  C   UNL     1      -1.422  -2.045   0.016  0.00  0.00    -0.003 C 
ATOM     30  C   UNL     1      -0.620  -2.533   1.226  0.00  0.00    -0.019 C 
ATOM     31  C   UNL     1       0.791  -1.945   1.166  0.00  0.00    -0.078 C 
ATOM     32  N   UNL     1       0.716  -0.480   1.187  0.00  0.00    +0.381 N 
ATOM     33  H   UNL     1       0.218  -0.181   2.013  0.00  0.00    -0.081 HD
ENDBRANCH  25  32
ENDBRANCH  24  25
ENDBRANCH  23  24
ENDBRANCH  19  23
ENDBRANCH   1  20
TORSDOF 7
