REMARK  Name = ZINC08738604
REMARK  4 active torsions:
REMARK  status: ('A' for Active; 'I' for Inactive)
REMARK    1  A    between atoms: C_1  and  C_2
REMARK    2  A    between atoms: C_2  and  C_3
REMARK    3  A    between atoms: C_3  and  C_4
REMARK    4  A    between atoms: N_6  and  N_7
REMARK                            x       y       z     vdW  Elec       q    Type
REMARK                         _______ _______ _______ _____ _____    ______ ____
ROOT
ATOM      1  N   UNL     1       1.341  -4.066  -2.293  0.00  0.00    -0.234 N 
ATOM      2  C   UNL     1       1.933  -4.737  -3.329  0.00  0.00    +0.213 A 
ATOM      3  N   UNL     1       1.938  -6.098  -3.324  0.00  0.00    -0.294 N 
ATOM      4  H   UNL     1       1.507  -6.580  -2.600  0.00  0.00    +0.172 HD
ATOM      5  C   UNL     1       2.539  -6.779  -4.323  0.00  0.00    +0.257 A 
ATOM      6  O   UNL     1       2.570  -7.999  -4.315  0.00  0.00    -0.267 OA
ATOM      7  C   UNL     1       3.127  -6.056  -5.369  0.00  0.00    +0.049 A 
ATOM      8  C   UNL     1       3.067  -4.672  -5.341  0.00  0.00    +0.084 A 
ATOM      9  N   UNL     1       2.481  -4.050  -4.311  0.00  0.00    -0.214 NA
ATOM     10  C   UNL     1       3.626  -3.904  -6.476  0.00  0.00    +0.004 A 
ATOM     11  C   UNL     1       3.865  -2.537  -6.361  0.00  0.00    +0.010 A 
ATOM     12  C   UNL     1       4.406  -1.845  -7.426  0.00  0.00    +0.001 A 
ATOM     13  C   UNL     1       4.710  -2.509  -8.602  0.00  0.00    +0.000 A 
ATOM     14  C   UNL     1       4.466  -3.865  -8.722  0.00  0.00    +0.004 A 
ATOM     15  C   UNL     1       3.916  -4.566  -7.668  0.00  0.00    -0.037 A 
ATOM     16  C   UNL     1       3.600  -6.030  -7.814  0.00  0.00    +0.047 C 
ATOM     17  C   UNL     1       3.827  -6.766  -6.495  0.00  0.00    +0.007 C 
ATOM     18  C   UNL     1       5.329  -6.829  -6.200  0.00  0.00    +0.012 C 
ATOM     19  C   UNL     1       6.042  -7.558  -7.341  0.00  0.00    +0.001 C 
ATOM     20  C   UNL     1       5.490  -8.979  -7.462  0.00  0.00    +0.000 C 
ATOM     21  C   UNL     1       3.989  -8.921  -7.752  0.00  0.00    +0.001 C 
ATOM     22  C   UNL     1       3.278  -8.192  -6.611  0.00  0.00    +0.012 C 
ATOM     23  H   UNL     1       0.934  -4.560  -1.564  0.00  0.00    +0.173 HD
ENDROOT
BRANCH   1  26
ATOM     24  C   UNL     1       0.739  -2.004  -1.265  0.00  0.00    +0.229 C 
ATOM     25  O   UNL     1       0.231  -2.623  -0.354  0.00  0.00    -0.274 OA
ATOM     26  N   UNL     1       1.322  -2.665  -2.285  0.00  0.00    -0.234 N 
ATOM     27  H   UNL     1       1.728  -2.170  -3.014  0.00  0.00    +0.173 HD
BRANCH  24  28
ATOM     28  C   UNL     1       0.718  -0.497  -1.257  0.00  0.00    +0.097 C 
BRANCH  28  30
ATOM     29  C   UNL     1      -0.019   1.526   0.010  0.00  0.00    +0.004 C 
ATOM     30  C   UNL     1       0.002  -0.004   0.002  0.00  0.00    +0.006 C 
ENDBRANCH  28  30
ENDBRANCH  24  28
ENDBRANCH   1  26
TORSDOF 3
