REMARK  Name = ZINC38705631
REMARK  15 active torsions:
REMARK  status: ('A' for Active; 'I' for Inactive)
REMARK    1  A    between atoms: C_1  and  C_2
REMARK    2  A    between atoms: C_2  and  C_3
REMARK    3  A    between atoms: C_3  and  C_4
REMARK    4  A    between atoms: C_4  and  O_5
REMARK    5  A    between atoms: O_5  and  C_6
REMARK    6  A    between atoms: C_10  and  C_12
REMARK    7  A    between atoms: C_15  and  C_33
REMARK    8  A    between atoms: N_22  and  C_23
REMARK    9  A    between atoms: C_23  and  C_24
REMARK   10  A    between atoms: C_24  and  C_25
REMARK   11  A    between atoms: C_28  and  O_31
REMARK   12  A    between atoms: O_31  and  C_32
REMARK   13  A    between atoms: C_34  and  C_41
REMARK   14  A    between atoms: C_36  and  C_40
REMARK   15  A    between atoms: C_38  and  O_39
REMARK                            x       y       z     vdW  Elec       q    Type
REMARK                         _______ _______ _______ _____ _____    ______ ____
ROOT
ATOM      1  C   UNL     1       2.977  -6.273  -5.116  0.00  0.00    +0.141 C 
ATOM      2  C   UNL     1       1.958  -6.841  -6.066  0.00  0.00    +0.035 A 
ATOM      3  C   UNL     1       0.845  -6.606  -6.880  0.00  0.00    +0.102 A 
ATOM      4  N   UNL     1       0.516  -7.753  -7.439  0.00  0.00    -0.173 NA
ATOM      5  N   UNL     1       1.311  -8.689  -7.059  0.00  0.00    -0.272 N 
ATOM      6  H   UNL     1       1.257  -9.615  -7.344  0.00  0.00    +0.189 HD
ATOM      7  C   UNL     1       2.242  -8.187  -6.196  0.00  0.00    +0.126 A 
ATOM      8  C   UNL     1       3.407  -8.500  -5.361  0.00  0.00    +0.265 C 
ATOM      9  O   UNL     1       3.909  -9.603  -5.256  0.00  0.00    -0.268 OA
ATOM     10  N   UNL     1       3.844  -7.394  -4.730  0.00  0.00    -0.285 N 
ENDROOT
BRANCH   3  11
ATOM     11  C   UNL     1       0.160  -5.304  -7.077  0.00  0.00    +0.047 A 
ATOM     12  C   UNL     1      -1.224  -5.216  -6.950  0.00  0.00    -0.037 A 
ATOM     13  C   UNL     1      -1.857  -4.003  -7.135  0.00  0.00    +0.007 A 
ATOM     14  C   UNL     1      -1.120  -2.873  -7.445  0.00  0.00    -0.047 A 
ATOM     15  C   UNL     1       0.254  -2.950  -7.573  0.00  0.00    +0.049 A 
ATOM     16  C   UNL     1       0.902  -4.160  -7.385  0.00  0.00    +0.127 A 
ATOM     17  C   UNL     1      -1.820  -1.553  -7.644  0.00  0.00    +0.044 C 
ATOM     18  C   UNL     1      -2.030  -6.443  -6.613  0.00  0.00    +0.044 C 
BRANCH  16  19
ATOM     19  O   UNL     1       2.253  -4.236  -7.504  0.00  0.00    -0.506 OA
ATOM     20  H   UNL     1       2.561  -4.357  -8.413  0.00  0.00    +0.292 HD
ENDBRANCH  16  19
ENDBRANCH   3  11
BRANCH   1  25
ATOM     21  C   UNL     1       1.662  -3.815  -2.566  0.00  0.00    +0.121 A 
ATOM     22  C   UNL     1       1.034  -4.664  -1.665  0.00  0.00    +0.045 A 
ATOM     23  C   UNL     1       1.037  -6.027  -1.886  0.00  0.00    +0.004 A 
ATOM     24  C   UNL     1       1.666  -6.547  -3.002  0.00  0.00    +0.006 A 
ATOM     25  C   UNL     1       2.293  -5.703  -3.901  0.00  0.00    -0.019 A 
ATOM     26  C   UNL     1       2.287  -4.338  -3.688  0.00  0.00    +0.051 A 
BRANCH  21  27
ATOM     27  O   UNL     1       1.660  -2.473  -2.351  0.00  0.00    -0.492 OA
BRANCH  27  28
ATOM     28  C   UNL     1       0.997  -2.005  -1.175  0.00  0.00    +0.229 C 
BRANCH  28  29
ATOM     29  C   UNL     1       1.099  -0.480  -1.105  0.00  0.00    +0.041 C 
BRANCH  29  31
ATOM     30  C   UNL     1       0.490   1.546   0.225  0.00  0.00    +0.004 C 
ATOM     31  C   UNL     1       0.389   0.021   0.154  0.00  0.00    -0.000 C 
ENDBRANCH  29  31
ENDBRANCH  28  29
ENDBRANCH  27  28
ENDBRANCH  21  27
ENDBRANCH   1  25
BRANCH  10  32
ATOM     32  C   UNL     1       4.985  -7.321  -3.814  0.00  0.00    +0.114 C 
BRANCH  32  33
ATOM     33  C   UNL     1       4.510  -7.586  -2.384  0.00  0.00    +0.054 C 
BRANCH  33  34
ATOM     34  C   UNL     1       5.684  -7.510  -1.443  0.00  0.00    -0.046 A 
ATOM     35  C   UNL     1       6.423  -8.646  -1.168  0.00  0.00    +0.007 A 
ATOM     36  C   UNL     1       7.500  -8.580  -0.305  0.00  0.00    +0.046 A 
ATOM     37  C   UNL     1       7.840  -7.371   0.286  0.00  0.00    +0.120 A 
ATOM     38  C   UNL     1       7.097  -6.233   0.008  0.00  0.00    +0.046 A 
ATOM     39  C   UNL     1       6.025  -6.304  -0.860  0.00  0.00    +0.007 A 
BRANCH  37  40
ATOM     40  O   UNL     1       8.898  -7.303   1.136  0.00  0.00    -0.495 OA
ATOM     41  C   UNL     1       9.190  -6.026   1.707  0.00  0.00    +0.277 C 
ENDBRANCH  37  40
ENDBRANCH  33  34
ENDBRANCH  32  33
ENDBRANCH  10  32
TORSDOF 11
