REMARK  Name = ZINC33123069
REMARK  7 active torsions:
REMARK  status: ('A' for Active; 'I' for Inactive)
REMARK    1  A    between atoms: C_1  and  C_2
REMARK    2  A    between atoms: C_7  and  N_8
REMARK    3  A    between atoms: N_8  and  S_9
REMARK    4  A    between atoms: S_9  and  C_12
REMARK    5  A    between atoms: C_14  and  C_19
REMARK    6  A    between atoms: C_17  and  C_18
REMARK    7  A    between atoms: C_20  and  C_31
REMARK                            x       y       z     vdW  Elec       q    Type
REMARK                         _______ _______ _______ _____ _____    ______ ____
ROOT
ATOM      1  C   UNL     1       2.384   1.458  -0.566  0.00  0.00    +0.112 A 
ATOM      2  C   UNL     1       1.147   2.070  -0.542  0.00  0.00    +0.037 A 
ATOM      3  C   UNL     1      -0.011   1.295  -0.502  0.00  0.00    -0.011 A 
ATOM      4  C   UNL     1       0.088  -0.095  -0.487  0.00  0.00    +0.009 A 
ATOM      5  C   UNL     1       1.330  -0.697  -0.511  0.00  0.00    +0.006 A 
ATOM      6  C   UNL     1       2.475   0.078  -0.550  0.00  0.00    -0.024 A 
ATOM      7  C   UNL     1       3.829  -0.585  -0.575  0.00  0.00    +0.046 C 
ENDROOT
BRANCH   3   8
ATOM      8  C   UNL     1      -1.343   1.947  -0.483  0.00  0.00    +0.045 A 
ATOM      9  C   UNL     1      -1.858   2.757   0.546  0.00  0.00    +0.070 A 
ATOM     10  N   UNL     1      -3.045   3.161   0.196  0.00  0.00    -0.167 NA
ATOM     11  N   UNL     1      -3.341   2.665  -1.089  0.00  0.00    -0.185 N 
ATOM     12  C   UNL     1      -2.309   1.875  -1.481  0.00  0.00    +0.139 A 
ATOM     13  N   UNL     1      -2.188   1.050  -2.581  0.00  0.00    -0.270 N 
ATOM     14  C   UNL     1      -2.719   1.304  -3.795  0.00  0.00    +0.219 C 
ATOM     15  O   UNL     1      -2.571   0.510  -4.700  0.00  0.00    -0.275 OA
ATOM     16  C   UNL     1      -3.489   2.562  -4.023  0.00  0.00    +0.105 C 
ATOM     17  C   UNL     1      -4.720   2.627  -3.157  0.00  0.00    +0.110 C 
ATOM     18  C   UNL     1      -4.464   3.006  -1.755  0.00  0.00    +0.250 C 
ATOM     19  O   UNL     1      -5.301   3.655  -1.174  0.00  0.00    -0.271 OA
ATOM     20  C   UNL     1      -1.155   3.099   1.835  0.00  0.00    +0.068 C 
ATOM     21  H   UNL     1      -1.625   0.108  -2.504  0.00  0.00    +0.156 HD
ENDBRANCH   3   8
BRANCH   1  22
ATOM     22  S   UNL     1       3.848   2.436  -0.616  0.00  0.00    +0.073 S 
ATOM     23  O   UNL     1       4.641   1.926  -1.679  0.00  0.00    -0.150 OA
ATOM     24  O   UNL     1       3.432   3.794  -0.559  0.00  0.00    -0.150 OA
BRANCH  22  25
ATOM     25  N   UNL     1       4.684   2.139   0.782  0.00  0.00    -0.216 N 
ATOM     26  H   UNL     1       5.647   1.609   0.745  0.00  0.00    +0.174 HD
BRANCH  25  33
ATOM     27  C   UNL     1       6.507   3.047   2.768  0.00  0.00    +0.046 C 
ATOM     28  C   UNL     1       5.020   3.012   3.007  0.00  0.00    -0.028 A 
ATOM     29  C   UNL     1       4.504   3.429   4.218  0.00  0.00    +0.005 A 
ATOM     30  C   UNL     1       3.139   3.398   4.438  0.00  0.00    +0.000 A 
ATOM     31  C   UNL     1       2.286   2.949   3.446  0.00  0.00    +0.002 A 
ATOM     32  C   UNL     1       2.795   2.535   2.231  0.00  0.00    +0.025 A 
ATOM     33  C   UNL     1       4.166   2.561   2.009  0.00  0.00    +0.051 A 
ENDBRANCH  25  33
ENDBRANCH  22  25
ENDBRANCH   1  22
TORSDOF 4
