REMARK  Name = ZINC07292208
REMARK  7 active torsions:
REMARK  status: ('A' for Active; 'I' for Inactive)
REMARK    1  A    between atoms: C_1  and  C_2
REMARK    2  A    between atoms: C_5  and  C_8
REMARK    3  A    between atoms: C_11  and  S_14
REMARK    4  A    between atoms: N_12  and  N_13
REMARK    5  A    between atoms: S_14  and  C_15
REMARK    6  A    between atoms: C_15  and  C_16
REMARK    7  A    between atoms: C_18  and  C_21
REMARK                            x       y       z     vdW  Elec       q    Type
REMARK                         _______ _______ _______ _____ _____    ______ ____
ROOT
ATOM      1  C   UNL     1       0.058  -4.251  -0.021  0.00  0.00    +0.182 A 
ATOM      2  N   UNL     1      -0.205  -5.029  -1.045  0.00  0.00    -0.127 NA
ATOM      3  N   UNL     1      -0.094  -6.262  -0.700  0.00  0.00    -0.121 NA
ATOM      4  C   UNL     1       0.247  -6.346   0.567  0.00  0.00    +0.209 A 
ATOM      5  N   UNL     1       0.361  -5.071   1.041  0.00  0.00    -0.224 N 
ENDROOT
BRANCH   1  10
ATOM      6  C   UNL     1      -0.018   1.503   0.010  0.00  0.00    +0.044 C 
ATOM      7  C   UNL     1       0.002  -0.004   0.002  0.00  0.00    -0.050 A 
ATOM      8  C   UNL     1       0.006  -0.686  -1.202  0.00  0.00    +0.004 A 
ATOM      9  C   UNL     1       0.024  -2.066  -1.216  0.00  0.00    +0.012 A 
ATOM     10  C   UNL     1       0.039  -2.773  -0.013  0.00  0.00    +0.021 A 
ATOM     11  C   UNL     1       0.036  -2.079   1.198  0.00  0.00    +0.012 A 
ATOM     12  C   UNL     1       0.023  -0.699   1.198  0.00  0.00    +0.004 A 
ENDBRANCH   1  10
BRANCH   5  13
ATOM     13  N   UNL     1       0.701  -4.689   2.308  0.00  0.00    -0.295 N 
ATOM     14  H   UNL     1      -0.117  -4.601   2.891  0.00  0.00    +0.163 HD
ATOM     15  H   UNL     1       1.367  -5.330   2.713  0.00  0.00    +0.163 HD
ENDBRANCH   5  13
BRANCH   4  16
ATOM     16  S   UNL     1       0.514  -7.829   1.481  0.00  0.00    -0.078 S 
BRANCH  16  17
ATOM     17  C   UNL     1       0.210  -9.149   0.274  0.00  0.00    +0.136 C 
BRANCH  17  18
ATOM     18  C   UNL     1       0.407 -10.489   0.935  0.00  0.00    +0.094 A 
ATOM     19  C   UNL     1       1.613 -11.201   1.006  0.00  0.00    +0.077 A 
ATOM     20  C   UNL     1       1.379 -12.359   1.681  0.00  0.00    +0.167 A 
ATOM     21  O   UNL     1       0.077 -12.378   2.022  0.00  0.00    -0.354 OA
ATOM     22  N   UNL     1      -0.514 -11.183   1.544  0.00  0.00    -0.082 NA
BRANCH  20  23
ATOM     23  C   UNL     1       2.375 -13.408   1.985  0.00  0.00    +0.020 A 
ATOM     24  C   UNL     1       3.700 -13.256   1.575  0.00  0.00    +0.011 A 
ATOM     25  C   UNL     1       4.625 -14.239   1.861  0.00  0.00    +0.001 A 
ATOM     26  C   UNL     1       4.241 -15.373   2.554  0.00  0.00    +0.000 A 
ATOM     27  C   UNL     1       2.929 -15.530   2.964  0.00  0.00    +0.001 A 
ATOM     28  C   UNL     1       1.996 -14.552   2.689  0.00  0.00    +0.011 A 
ENDBRANCH  20  23
ENDBRANCH  17  18
ENDBRANCH  16  17
ENDBRANCH   4  16
TORSDOF 6
