REMARK  Name = ZINC22926818
REMARK  12 active torsions:
REMARK  status: ('A' for Active; 'I' for Inactive)
REMARK    1  A    between atoms: C_1  and  C_2
REMARK    2  A    between atoms: C_5  and  C_8
REMARK    3  A    between atoms: C_11  and  O_15
REMARK    4  A    between atoms: C_12  and  C_14
REMARK    5  A    between atoms: O_15  and  C_16
REMARK    6  A    between atoms: C_16  and  C_17
REMARK    7  A    between atoms: C_17  and  C_19
REMARK    8  A    between atoms: C_17  and  O_39
REMARK    9  A    between atoms: C_19  and  N_20
REMARK   10  A    between atoms: N_23  and  C_26
REMARK   11  A    between atoms: C_26  and  C_27
REMARK   12  A    between atoms: C_26  and  C_33
REMARK                            x       y       z     vdW  Elec       q    Type
REMARK                         _______ _______ _______ _____ _____    ______ ____
ROOT
ATOM      1  C   UNL     1      -0.062   1.031   2.429  0.00  0.00    +0.119 C 
ENDROOT
BRANCH   1   2
ATOM      2  N   UNL     1      -0.885   1.377   1.262  0.00  0.00    -0.303 NA
ATOM      3  C   UNL     1      -0.389   0.709   0.051  0.00  0.00    +0.066 C 
ATOM      4  C   UNL     1      -1.316   1.031  -1.123  0.00  0.00    -0.062 C 
ATOM      5  N   UNL     1      -1.372   2.487  -1.315  0.00  0.00    +0.389 N 
ATOM      6  C   UNL     1      -1.868   3.156  -0.104  0.00  0.00    -0.062 C 
ATOM      7  C   UNL     1      -0.941   2.833   1.070  0.00  0.00    +0.066 C 
ATOM      8  H   UNL     1      -0.349   2.844  -1.505  0.00  0.00    -0.080 HD
BRANCH   5   9
ATOM      9  C   UNL     1      -2.193   2.834  -2.482  0.00  0.00    -0.007 C 
BRANCH   9  10
ATOM     10  C   UNL     1      -2.227   4.332  -2.646  0.00  0.00    -0.057 A 
ATOM     11  C   UNL     1      -1.083   5.076  -2.428  0.00  0.00    +0.002 A 
ATOM     12  C   UNL     1      -1.112   6.450  -2.583  0.00  0.00    +0.000 A 
ATOM     13  C   UNL     1      -2.288   7.079  -2.946  0.00  0.00    +0.000 A 
ATOM     14  C   UNL     1      -3.433   6.335  -3.159  0.00  0.00    +0.000 A 
ATOM     15  C   UNL     1      -3.402   4.961  -3.009  0.00  0.00    +0.002 A 
ENDBRANCH   9  10
BRANCH   9  16
ATOM     16  C   UNL     1      -1.601   2.206  -3.717  0.00  0.00    -0.057 A 
ATOM     17  C   UNL     1      -0.230   2.188  -3.894  0.00  0.00    +0.002 A 
ATOM     18  C   UNL     1       0.313   1.608  -5.025  0.00  0.00    +0.000 A 
ATOM     19  C   UNL     1      -0.515   1.056  -5.984  0.00  0.00    +0.000 A 
ATOM     20  C   UNL     1      -1.886   1.079  -5.810  0.00  0.00    +0.000 A 
ATOM     21  C   UNL     1      -2.429   1.654  -4.677  0.00  0.00    +0.002 A 
ENDBRANCH   9  16
ENDBRANCH   5   9
ENDBRANCH   1   2
BRANCH   1  22
ATOM     22  C   UNL     1      -0.548   1.819   3.647  0.00  0.00    +0.166 C 
BRANCH  22  23
ATOM     23  O   UNL     1      -1.919   1.508   3.900  0.00  0.00    -0.387 OA
ATOM     24  H   UNL     1      -2.680   1.711   3.132  0.00  0.00    +0.210 HD
ENDBRANCH  22  23
BRANCH  22  25
ATOM     25  C   UNL     1       0.294   1.441   4.867  0.00  0.00    +0.261 C 
BRANCH  25  26
ATOM     26  O   UNL     1      -0.080   2.261   5.976  0.00  0.00    -0.489 OA
BRANCH  26  30
ATOM     27  C   UNL     1       1.916   1.626   9.534  0.00  0.00    -0.017 A 
ATOM     28  C   UNL     1       2.231   0.863   8.411  0.00  0.00    +0.012 A 
ATOM     29  C   UNL     1       1.559   1.073   7.226  0.00  0.00    +0.046 A 
ATOM     30  C   UNL     1       0.577   2.052   7.147  0.00  0.00    +0.124 A 
ATOM     31  C   UNL     1       0.261   2.814   8.264  0.00  0.00    -0.008 A 
ATOM     32  C   UNL     1       0.926   2.603   9.454  0.00  0.00    +0.015 A 
ATOM     33  C   UNL     1      -0.809   3.871   8.176  0.00  0.00    +0.047 C 
BRANCH  27  38
ATOM     34  C   UNL     1       4.698   0.738  14.498  0.00  0.00    +0.044 C 
ATOM     35  C   UNL     1       3.970   0.970  13.199  0.00  0.00    -0.050 A 
ATOM     36  C   UNL     1       4.286   0.211  12.087  0.00  0.00    +0.004 A 
ATOM     37  C   UNL     1       3.622   0.419  10.895  0.00  0.00    +0.009 A 
ATOM     38  C   UNL     1       2.632   1.397  10.813  0.00  0.00    -0.018 A 
ATOM     39  C   UNL     1       2.322   2.162  11.935  0.00  0.00    +0.009 A 
ATOM     40  C   UNL     1       2.988   1.941  13.124  0.00  0.00    +0.004 A 
ENDBRANCH  27  38
ENDBRANCH  26  30
ENDBRANCH  25  26
ENDBRANCH  22  25
ENDBRANCH   1  22
TORSDOF 10
