REMARK  Name = ZINC39607658
REMARK  10 active torsions:
REMARK  status: ('A' for Active; 'I' for Inactive)
REMARK    1  A    between atoms: C_1  and  C_2
REMARK    2  A    between atoms: C_2  and  C_3
REMARK    3  A    between atoms: C_3  and  O_4
REMARK    4  A    between atoms: O_4  and  C_5
REMARK    5  A    between atoms: C_5  and  C_6
REMARK    6  A    between atoms: C_6  and  N_7
REMARK    7  A    between atoms: C_8  and  C_10
REMARK    8  A    between atoms: C_21  and  C_23
REMARK    9  A    between atoms: C_28  and  O_29
REMARK   10  A    between atoms: O_29  and  C_30
REMARK                            x       y       z     vdW  Elec       q    Type
REMARK                         _______ _______ _______ _____ _____    ______ ____
ROOT
ATOM      1  C   UNL     1      -1.188  -6.333  -2.458  0.00  0.00    +0.100 C 
ATOM      2  C   UNL     1      -2.010  -5.812  -3.657  0.00  0.00    +0.121 C 
ATOM      3  N   UNL     1      -2.028  -6.941  -4.618  0.00  0.00    -0.296 N 
ATOM      4  C   UNL     1      -2.185  -8.145  -3.768  0.00  0.00    +0.115 C 
ATOM      5  C   UNL     1      -1.308  -7.865  -2.532  0.00  0.00    -0.004 C 
ATOM      6  C   UNL     1       0.070  -8.495  -2.711  0.00  0.00    -0.010 C 
ATOM      7  C   UNL     1      -0.069 -10.020  -2.725  0.00  0.00    -0.082 C 
ATOM      8  N   UNL     1      -0.675 -10.469  -1.466  0.00  0.00    +0.379 N 
ATOM      9  C   UNL     1      -2.036  -9.933  -1.346  0.00  0.00    -0.082 C 
ATOM     10  C   UNL     1      -1.980  -8.405  -1.274  0.00  0.00    -0.010 C 
ATOM     11  C   UNL     1      -1.925  -6.884  -5.961  0.00  0.00    +0.252 C 
ATOM     12  O   UNL     1      -2.052  -7.896  -6.623  0.00  0.00    -0.270 OA
ATOM     13  H   UNL     1      -0.710 -11.478  -1.452  0.00  0.00    -0.086 HD
ATOM     14  H   UNL     1      -0.117 -10.144  -0.691  0.00  0.00    -0.086 HD
ENDROOT
BRANCH  11  15
ATOM     15  C   UNL     1      -1.658  -5.595  -6.626  0.00  0.00    +0.099 A 
ATOM     16  C   UNL     1      -2.189  -4.405  -6.114  0.00  0.00    +0.020 A 
ATOM     17  C   UNL     1      -1.909  -3.223  -6.776  0.00  0.00    +0.021 A 
ATOM     18  C   UNL     1      -1.121  -3.249  -7.912  0.00  0.00    +0.114 A 
ATOM     19  N   UNL     1      -0.631  -4.381  -8.377  0.00  0.00    -0.220 NA
ATOM     20  C   UNL     1      -0.863  -5.538  -7.781  0.00  0.00    +0.233 A 
BRANCH  20  21
ATOM     21  O   UNL     1      -0.335  -6.677  -8.290  0.00  0.00    -0.437 OA
BRANCH  21  22
ATOM     22  C   UNL     1       0.347  -6.594  -9.463  0.00  0.00    +0.130 A 
ATOM     23  C   UNL     1       1.643  -6.100  -9.480  0.00  0.00    +0.048 A 
ATOM     24  C   UNL     1       2.334  -6.018 -10.674  0.00  0.00    +0.023 A 
ATOM     25  C   UNL     1       1.734  -6.427 -11.851  0.00  0.00    +0.041 A 
ATOM     26  C   UNL     1       0.441  -6.919 -11.837  0.00  0.00    +0.023 A 
ATOM     27  C   UNL     1      -0.251  -7.009 -10.645  0.00  0.00    +0.048 A 
ATOM     28 CL   UNL     1       2.605  -6.322 -13.350  0.00  0.00    -0.084 Cl
ENDBRANCH  21  22
ENDBRANCH  20  21
ENDBRANCH  11  15
BRANCH   1  30
ATOM     29  N   UNL     1       1.005  -5.732  -1.484  0.00  0.00    -0.313 N 
ATOM     30  C   UNL     1       0.254  -5.913  -2.588  0.00  0.00    +0.218 C 
ATOM     31  O   UNL     1       0.738  -5.738  -3.686  0.00  0.00    -0.275 OA
ATOM     32  H   UNL     1       0.618  -5.872  -0.606  0.00  0.00    +0.149 HD
BRANCH  29  33
ATOM     33  C   UNL     1       2.406  -5.323  -1.611  0.00  0.00    +0.132 C 
BRANCH  33  34
ATOM     34  C   UNL     1       3.026  -5.189  -0.218  0.00  0.00    +0.178 C 
BRANCH  34  35
ATOM     35  O   UNL     1       3.061  -6.470   0.413  0.00  0.00    -0.378 OA
BRANCH  35  36
ATOM     36  C   UNL     1       3.625  -6.456   1.726  0.00  0.00    +0.159 C 
BRANCH  36  38
ATOM     37  C   UNL     1       4.216  -7.858   3.708  0.00  0.00    +0.006 C 
ATOM     38  C   UNL     1       3.612  -7.873   2.302  0.00  0.00    +0.025 C 
ENDBRANCH  36  38
ENDBRANCH  35  36
ENDBRANCH  34  35
ENDBRANCH  33  34
ENDBRANCH  29  33
ENDBRANCH   1  30
TORSDOF 9
