REMARK  Name = ZINC11440318
REMARK  7 active torsions:
REMARK  status: ('A' for Active; 'I' for Inactive)
REMARK    1  A    between atoms: C_11  and  C_16
REMARK    2  A    between atoms: C_16  and  O_17
REMARK    3  A    between atoms: O_17  and  C_18
REMARK    4  A    between atoms: C_18  and  C_20
REMARK    5  A    between atoms: C_20  and  C_21
REMARK    6  A    between atoms: C_21  and  N_22
REMARK    7  A    between atoms: N_25  and  C_26
REMARK                            x       y       z     vdW  Elec       q    Type
REMARK                         _______ _______ _______ _____ _____    ______ ____
ROOT
ATOM      1  C   UNL     1       5.231   1.063  -2.912  0.00  0.00    +0.309 C 
ATOM      2  O   UNL     1       4.379   0.219  -3.053  0.00  0.00    -0.251 OA
ENDROOT
BRANCH   1   3
ATOM      3  O   UNL     1       4.984   2.146  -2.158  0.00  0.00    -0.460 OA
BRANCH   3   4
ATOM      4  C   UNL     1       3.672   2.236  -1.543  0.00  0.00    +0.268 C 
BRANCH   4  15
ATOM      5  C   UNL     1      -1.247   1.775  -0.050  0.00  0.00    +0.001 A 
ATOM      6  C   UNL     1      -0.034   1.097  -0.028  0.00  0.00    +0.001 A 
ATOM      7  C   UNL     1       1.151   1.777  -0.024  0.00  0.00    +0.009 A 
ATOM      8  C   UNL     1       1.167   3.171  -0.021  0.00  0.00    -0.007 A 
ATOM      9  C   UNL     1      -0.073   3.851   0.121  0.00  0.00    -0.017 A 
ATOM     10  C   UNL     1      -1.276   3.136   0.013  0.00  0.00    +0.008 A 
ATOM     11  C   UNL     1      -0.082   5.227   0.419  0.00  0.00    +0.012 A 
ATOM     12  C   UNL     1       1.075   5.929   0.483  0.00  0.00    +0.047 A 
ATOM     13  C   UNL     1       2.304   5.339   0.177  0.00  0.00    +0.140 A 
ATOM     14  C   UNL     1       2.373   3.979  -0.178  0.00  0.00    +0.032 A 
ATOM     15  C   UNL     1       3.579   3.510  -0.742  0.00  0.00    +0.008 A 
ATOM     16  C   UNL     1       4.707   4.271  -0.621  0.00  0.00    +0.099 A 
ATOM     17  C   UNL     1       4.628   5.546  -0.030  0.00  0.00    +0.338 A 
ATOM     18  O   UNL     1       5.644   6.174   0.198  0.00  0.00    -0.245 OA
ATOM     19  O   UNL     1       3.431   6.077   0.266  0.00  0.00    -0.422 OA
ENDBRANCH   4  15
ENDBRANCH   3   4
ENDBRANCH   1   3
BRANCH   1  20
ATOM     20  C   UNL     1       6.571   0.901  -3.582  0.00  0.00    +0.139 C 
BRANCH  20  21
ATOM     21  C   UNL     1       6.590  -0.408  -4.373  0.00  0.00    +0.117 C 
BRANCH  21  22
ATOM     22  N   UNL     1       7.893  -0.566  -5.025  0.00  0.00    -0.299 N 
ATOM     23  C   UNL     1       8.141  -1.653  -5.781  0.00  0.00    +0.300 C 
ATOM     24  O   UNL     1       7.284  -2.503  -5.923  0.00  0.00    -0.253 OA
ATOM     25  N   UNL     1       9.340  -1.798  -6.381  0.00  0.00    -0.294 N 
ATOM     26  H   UNL     1       8.578   0.112  -4.911  0.00  0.00    +0.150 HD
ATOM     27  H   UNL     1      10.024  -1.120  -6.267  0.00  0.00    +0.151 HD
BRANCH  25  28
ATOM     28  C   UNL     1       9.609  -2.980  -7.203  0.00  0.00    +0.037 C 
ATOM     29  C   UNL     1       9.469  -4.240  -6.346  0.00  0.00    +0.029 C 
ATOM     30  C   UNL     1       9.750  -5.475  -7.205  0.00  0.00    -0.008 C 
ATOM     31  C   UNL     1      11.172  -5.394  -7.765  0.00  0.00    +0.007 C 
ATOM     32  C   UNL     1      11.312  -4.134  -8.621  0.00  0.00    -0.008 C 
ATOM     33  C   UNL     1      11.031  -2.899  -7.762  0.00  0.00    +0.029 C 
ATOM     34  C   UNL     1      10.312  -4.189  -9.777  0.00  0.00    +0.007 C 
ATOM     35  C   UNL     1       8.890  -4.270  -9.218  0.00  0.00    -0.008 C 
ATOM     36  C   UNL     1       8.750  -5.530  -8.362  0.00  0.00    +0.007 C 
ATOM     37  C   UNL     1       8.609  -3.036  -8.359  0.00  0.00    +0.029 C 
ENDBRANCH  25  28
ENDBRANCH  21  22
ENDBRANCH  20  21
ENDBRANCH   1  20
TORSDOF 7
