REMARK  Name = ZINC08938576
REMARK  10 active torsions:
REMARK  status: ('A' for Active; 'I' for Inactive)
REMARK    1  A    between atoms: C_1  and  C_2
REMARK    2  A    between atoms: C_5  and  C_8
REMARK    3  A    between atoms: C_8  and  C_10
REMARK    4  A    between atoms: C_8  and  N_62
REMARK    5  A    between atoms: C_15  and  C_17
REMARK    6  A    between atoms: C_15  and  C_18
REMARK    7  A    between atoms: C_15  and  N_62
REMARK    8  A    between atoms: N_20  and  C_21
REMARK    9  A    between atoms: C_24  and  S_27
REMARK   10  A    between atoms: S_27  and  N_30
REMARK                            x       y       z     vdW  Elec       q    Type
REMARK                         _______ _______ _______ _____ _____    ______ ____
ROOT
ATOM      1  C   UNL     1      -2.422  -3.831   1.758  0.00  0.00    +0.203 C 
ATOM      2  O   UNL     1      -1.396  -4.459   1.598  0.00  0.00    -0.277 OA
ATOM      3  N   UNL     1      -3.517  -4.444   2.250  0.00  0.00    -0.287 N 
ATOM      4  H   UNL     1      -4.316  -3.928   2.441  0.00  0.00    +0.155 HD
ENDROOT
BRANCH   3   5
ATOM      5  C   UNL     1      -3.502  -5.823   2.485  0.00  0.00    +0.033 A 
ATOM      6  C   UNL     1      -4.651  -6.576   2.283  0.00  0.00    +0.025 A 
ATOM      7  C   UNL     1      -4.630  -7.938   2.511  0.00  0.00    +0.030 A 
ATOM      8  C   UNL     1      -3.471  -8.550   2.950  0.00  0.00    +0.106 A 
ATOM      9  C   UNL     1      -2.326  -7.802   3.157  0.00  0.00    +0.030 A 
ATOM     10  C   UNL     1      -2.338  -6.440   2.926  0.00  0.00    +0.025 A 
BRANCH   8  11
ATOM     11  S   UNL     1      -3.451 -10.287   3.245  0.00  0.00    +0.061 S 
ATOM     12  O   UNL     1      -4.492 -10.845   2.455  0.00  0.00    -0.153 OA
ATOM     13  O   UNL     1      -2.098 -10.704   3.127  0.00  0.00    -0.153 OA
BRANCH  11  14
ATOM     14  N   UNL     1      -3.881 -10.520   4.827  0.00  0.00    -0.172 NA
ATOM     15  C   UNL     1      -2.864 -10.561   5.891  0.00  0.00    +0.137 C 
ATOM     16  C   UNL     1      -3.298  -9.595   7.005  0.00  0.00    +0.177 C 
ATOM     17  O   UNL     1      -4.638  -9.902   7.397  0.00  0.00    -0.377 OA
ATOM     18  C   UNL     1      -5.605  -9.731   6.358  0.00  0.00    +0.177 C 
ATOM     19  C   UNL     1      -5.290 -10.698   5.211  0.00  0.00    +0.137 C 
ENDBRANCH  11  14
ENDBRANCH   8  11
ENDBRANCH   3   5
BRANCH   1  20
ATOM     20  C   UNL     1      -2.471  -2.366   1.408  0.00  0.00    +0.014 C 
ATOM     21  C   UNL     1      -2.819  -1.554   2.657  0.00  0.00    -0.004 C 
BRANCH  20  22
ATOM     22  N   UNL     1      -1.152  -1.946   0.899  0.00  0.00    +0.394 N 
ATOM     23  H   UNL     1      -0.544  -1.706   1.691  0.00  0.00    -0.083 HD
ATOM     24  H   UNL     1      -0.732  -2.717   0.367  0.00  0.00    -0.083 HD
BRANCH  22  25
ATOM     25  C   UNL     1      -1.293  -0.769   0.021  0.00  0.00    -0.002 C 
BRANCH  25  30
ATOM     26  C   UNL     1       3.680   2.175  -0.021  0.00  0.00    +0.044 C 
ATOM     27  C   UNL     1       2.383   1.407  -0.010  0.00  0.00    -0.050 A 
ATOM     28  C   UNL     1       1.178   2.085   0.016  0.00  0.00    +0.003 A 
ATOM     29  C   UNL     1      -0.011   1.381   0.025  0.00  0.00    +0.002 A 
ATOM     30  C   UNL     1       0.004  -0.001   0.010  0.00  0.00    -0.057 A 
ATOM     31  C   UNL     1       1.208  -0.679  -0.014  0.00  0.00    +0.002 A 
ATOM     32  C   UNL     1       2.398   0.025  -0.024  0.00  0.00    +0.003 A 
ENDBRANCH  25  30
BRANCH  25  33
ATOM     33  C   UNL     1      -1.620  -1.222  -1.379  0.00  0.00    -0.020 A 
ATOM     34  C   UNL     1      -2.481  -0.677  -2.273  0.00  0.00    +0.010 A 
ATOM     35  C   UNL     1      -2.621  -1.269  -3.514  0.00  0.00    +0.008 A 
ATOM     36  C   UNL     1      -1.894  -2.377  -3.801  0.00  0.00    +0.045 A 
ATOM     37  S   UNL     1      -0.968  -2.611  -2.292  0.00  0.00    -0.103 S 
ENDBRANCH  25  33
ENDBRANCH  22  25
ENDBRANCH  20  22
ENDBRANCH   1  20
TORSDOF 8
