REMARK  Name = ZINC62126248
REMARK  15 active torsions:
REMARK  status: ('A' for Active; 'I' for Inactive)
REMARK    1  A    between atoms: C_1  and  C_2
REMARK    2  A    between atoms: C_2  and  C_3
REMARK    3  A    between atoms: C_2  and  C_4
REMARK    4  A    between atoms: C_2  and  C_5
REMARK    5  A    between atoms: C_5  and  C_6
REMARK    6  A    between atoms: C_6  and  C_7
REMARK    7  A    between atoms: C_7  and  N_8
REMARK    8  A    between atoms: C_9  and  C_11
REMARK    9  A    between atoms: C_11  and  C_12
REMARK   10  A    between atoms: C_12  and  C_13
REMARK   11  A    between atoms: C_21  and  O_23
REMARK   12  A    between atoms: O_23  and  C_24
REMARK   13  A    between atoms: C_24  and  C_25
REMARK   14  A    between atoms: C_24  and  C_26
REMARK   15  A    between atoms: C_24  and  C_27
REMARK                            x       y       z     vdW  Elec       q    Type
REMARK                         _______ _______ _______ _____ _____    ______ ____
ROOT
ATOM      1  C   UNL     1       8.612   0.287  -4.838  0.00  0.00    +0.216 C 
ATOM      2  O   UNL     1       9.008   0.984  -3.928  0.00  0.00    -0.276 OA
ATOM      3  N   UNL     1       9.437  -0.022  -5.858  0.00  0.00    -0.298 N 
ATOM      4  C   UNL     1       8.969  -0.861  -6.970  0.00  0.00    +0.127 C 
ATOM      5  C   UNL     1       9.198  -0.106  -8.284  0.00  0.00    +0.130 C 
ATOM      6  N   UNL     1      10.581   0.391  -8.305  0.00  0.00    -0.264 N 
ATOM      7  C   UNL     1      11.049   1.231  -7.194  0.00  0.00    +0.130 C 
ATOM      8  C   UNL     1      10.818   0.479  -5.882  0.00  0.00    +0.127 C 
ATOM      9  C   UNL     1      11.406   0.083  -9.326  0.00  0.00    +0.403 C 
ATOM     10  O   UNL     1      11.008  -0.613 -10.240  0.00  0.00    -0.226 OA
ENDROOT
BRANCH   1  11
ATOM     11  C   UNL     1       7.199  -0.235  -4.827  0.00  0.00    +0.105 C 
BRANCH  11  12
ATOM     12  C   UNL     1       6.482   0.259  -3.568  0.00  0.00    +0.105 C 
BRANCH  12  14
ATOM     13  N   UNL     1       4.244   0.046  -2.537  0.00  0.00    -0.315 N 
ATOM     14  C   UNL     1       5.069  -0.263  -3.557  0.00  0.00    +0.213 C 
ATOM     15  O   UNL     1       4.673  -0.961  -4.467  0.00  0.00    -0.276 OA
ATOM     16  H   UNL     1       4.561   0.604  -1.809  0.00  0.00    +0.149 HD
BRANCH  13  17
ATOM     17  C   UNL     1       2.870  -0.461  -2.526  0.00  0.00    +0.104 C 
BRANCH  17  18
ATOM     18  C   UNL     1       2.154   0.032  -1.268  0.00  0.00    +0.019 C 
BRANCH  18  19
ATOM     19  C   UNL     1       0.718  -0.497  -1.257  0.00  0.00    +0.007 C 
BRANCH  19  21
ATOM     20  C   UNL     1      -0.019   1.526   0.010  0.00  0.00    +0.010 C 
ATOM     21  C   UNL     1       0.002  -0.004   0.002  0.00  0.00    -0.038 C 
ATOM     22  C   UNL     1       0.742  -0.511   1.242  0.00  0.00    +0.010 C 
ATOM     23  C   UNL     1      -1.433  -0.534   0.013  0.00  0.00    +0.010 C 
ENDBRANCH  19  21
ENDBRANCH  18  19
ENDBRANCH  17  18
ENDBRANCH  13  17
ENDBRANCH  12  14
ENDBRANCH  11  12
ENDBRANCH   1  11
BRANCH   9  24
ATOM     24  O   UNL     1      12.671   0.544  -9.333  0.00  0.00    -0.445 OA
BRANCH  24  25
ATOM     25  C   UNL     1      13.489   0.178 -10.446  0.00  0.00    +0.107 C 
ATOM     26  C   UNL     1      12.855   0.696 -11.738  0.00  0.00    +0.055 C 
ATOM     27  C   UNL     1      14.881   0.791 -10.279  0.00  0.00    +0.055 C 
ATOM     28  C   UNL     1      13.607  -1.346 -10.511  0.00  0.00    +0.055 C 
ENDBRANCH  24  25
ENDBRANCH   9  24
TORSDOF 9
