REMARK  Name = ZINC55997790
REMARK  11 active torsions:
REMARK  status: ('A' for Active; 'I' for Inactive)
REMARK    1  A    between atoms: C_1  and  C_2
REMARK    2  A    between atoms: C_5  and  C_29
REMARK    3  A    between atoms: N_8  and  C_10
REMARK    4  A    between atoms: C_10  and  C_11
REMARK    5  A    between atoms: C_14  and  C_17
REMARK    6  A    between atoms: C_17  and  N_18
REMARK    7  A    between atoms: C_19  and  C_21
REMARK    8  A    between atoms: C_21  and  C_22
REMARK    9  A    between atoms: C_21  and  C_23
REMARK   10  A    between atoms: C_21  and  N_24
REMARK   11  A    between atoms: N_27  and  C_28
REMARK                            x       y       z     vdW  Elec       q    Type
REMARK                         _______ _______ _______ _____ _____    ______ ____
ROOT
ATOM      1  C   UNL     1       2.146   0.211   3.650  0.00  0.00    -0.064 A 
ATOM      2  C   UNL     1       2.582   1.442   4.103  0.00  0.00    +0.002 A 
ATOM      3  C   UNL     1       1.975   2.031   5.197  0.00  0.00    +0.005 A 
ATOM      4  C   UNL     1       0.932   1.388   5.838  0.00  0.00    -0.030 A 
ATOM      5  C   UNL     1       0.496   0.158   5.384  0.00  0.00    +0.005 A 
ATOM      6  C   UNL     1       1.100  -0.429   4.288  0.00  0.00    +0.002 A 
ENDROOT
BRANCH   1   7
ATOM      7  C   UNL     1       2.808  -0.431   2.458  0.00  0.00    -0.043 C 
BRANCH   7  13
ATOM      8  C   UNL     1      -0.019   1.526   0.010  0.00  0.00    +0.005 C 
ATOM      9  C   UNL     1       0.002  -0.004   0.002  0.00  0.00    -0.031 C 
ATOM     10  C   UNL     1       0.721  -0.499  -1.257  0.00  0.00    +0.003 C 
ATOM     11  C   UNL     1       2.177  -0.027  -1.220  0.00  0.00    -0.031 C 
ATOM     12  C   UNL     1       2.839  -0.534   0.063  0.00  0.00    -0.075 C 
ATOM     13  N   UNL     1       2.123  -0.005   1.230  0.00  0.00    +0.383 N 
ATOM     14  C   UNL     1       0.744  -0.512   1.240  0.00  0.00    -0.075 C 
ATOM     15  C   UNL     1       2.924  -0.581  -2.434  0.00  0.00    +0.005 C 
ATOM     16  H   UNL     1       2.109   1.003   1.187  0.00  0.00    -0.081 HD
ENDBRANCH   7  13
ENDBRANCH   1   7
BRANCH   4  17
ATOM     17  C   UNL     1       0.272   2.030   7.030  0.00  0.00    +0.139 C 
BRANCH  17  18
ATOM     18  N   UNL     1      -0.844   2.866   6.580  0.00  0.00    -0.309 N 
ATOM     19  C   UNL     1      -1.586   3.542   7.480  0.00  0.00    +0.236 C 
ATOM     20  O   UNL     1      -1.330   3.458   8.662  0.00  0.00    -0.273 OA
ATOM     21  H   UNL     1      -1.049   2.933   5.634  0.00  0.00    +0.149 HD
BRANCH  19  22
ATOM     22  C   UNL     1      -2.733   4.401   7.016  0.00  0.00    +0.106 C 
ATOM     23  C   UNL     1      -3.985   3.537   6.853  0.00  0.00    +0.041 C 
ATOM     24  C   UNL     1      -3.001   5.496   8.052  0.00  0.00    +0.041 C 
BRANCH  22  25
ATOM     25  N   UNL     1      -2.394   5.018   5.731  0.00  0.00    -0.286 N 
ATOM     26  C   UNL     1      -3.276   5.834   5.122  0.00  0.00    +0.300 C 
ATOM     27  O   UNL     1      -4.354   6.059   5.638  0.00  0.00    -0.253 OA
ATOM     28  N   UNL     1      -2.964   6.401   3.939  0.00  0.00    -0.302 N 
ATOM     29  C   UNL     1      -3.923   7.288   3.277  0.00  0.00    +0.129 C 
ATOM     30  H   UNL     1      -1.534   4.838   5.319  0.00  0.00    +0.151 HD
ATOM     31  H   UNL     1      -2.104   6.221   3.527  0.00  0.00    +0.150 HD
ENDBRANCH  22  25
ENDBRANCH  19  22
ENDBRANCH  17  18
ENDBRANCH   4  17
TORSDOF 6
