REMARK  Name = ZINC38980309
REMARK  7 active torsions:
REMARK  status: ('A' for Active; 'I' for Inactive)
REMARK    1  A    between atoms: C_1  and  C_2
REMARK    2  A    between atoms: C_5  and  S_9
REMARK    3  A    between atoms: C_7  and  C_8
REMARK    4  A    between atoms: S_9  and  N_12
REMARK    5  A    between atoms: C_14  and  N_24
REMARK    6  A    between atoms: N_24  and  C_25
REMARK    7  A    between atoms: C_30  and  C_31
REMARK                            x       y       z     vdW  Elec       q    Type
REMARK                         _______ _______ _______ _____ _____    ______ ____
ROOT
ATOM      1  N   UNL     1       1.683  -4.690   0.284  0.00  0.00    -0.110 NA
ATOM      2  C   UNL     1       1.899  -5.954   0.069  0.00  0.00    +0.192 C 
ATOM      3  C   UNL     1       3.311  -6.476  -0.081  0.00  0.00    +0.237 C 
ATOM      4  N   UNL     1       3.488  -7.917  -0.322  0.00  0.00    -0.359 N 
ATOM      5  C   UNL     1       2.427  -8.671  -0.394  0.00  0.00    +0.063 A 
ATOM      6  C   UNL     1       2.550 -10.116  -0.633  0.00  0.00    +0.027 A 
ATOM      7  C   UNL     1       1.428 -10.865  -0.701  0.00  0.00    +0.002 A 
ATOM      8  C   UNL     1       0.151 -10.299  -0.549  0.00  0.00    +0.002 A 
ATOM      9  C   UNL     1      -0.041  -8.980  -0.327  0.00  0.00    +0.030 A 
ATOM     10  C   UNL     1       1.067  -8.099  -0.238  0.00  0.00    +0.089 A 
ATOM     11  N   UNL     1       0.874  -6.816  -0.017  0.00  0.00    -0.226 NA
ATOM     12  H   UNL     1       4.375  -8.296  -0.426  0.00  0.00    +0.162 HD
ENDROOT
BRANCH   1  13
ATOM     13  S   UNL     1       0.133  -4.132   0.454  0.00  0.00    +0.100 S 
ATOM     14  O   UNL     1      -0.376  -4.705   1.651  0.00  0.00    -0.146 OA
ATOM     15  O   UNL     1      -0.502  -4.309  -0.805  0.00  0.00    -0.146 OA
BRANCH  13  20
ATOM     16  C   UNL     1       0.467   1.818   1.395  0.00  0.00    +0.044 C 
ATOM     17  C   UNL     1       0.384   0.332   1.160  0.00  0.00    -0.047 A 
ATOM     18  C   UNL     1       0.285  -0.160  -0.128  0.00  0.00    +0.005 A 
ATOM     19  C   UNL     1       0.209  -1.523  -0.344  0.00  0.00    +0.029 A 
ATOM     20  C   UNL     1       0.231  -2.395   0.729  0.00  0.00    +0.113 A 
ATOM     21  C   UNL     1       0.331  -1.903   2.017  0.00  0.00    +0.032 A 
ATOM     22  C   UNL     1       0.411  -0.540   2.232  0.00  0.00    -0.046 A 
ATOM     23  C   UNL     1       0.525  -0.004   3.636  0.00  0.00    +0.044 C 
ENDBRANCH  13  20
ENDBRANCH   1  13
BRANCH   3  24
ATOM     24  N   UNL     1       4.046  -6.133   1.138  0.00  0.00    -0.318 N 
ATOM     25  H   UNL     1       3.631  -6.258   2.006  0.00  0.00    +0.148 HD
BRANCH  24  26
ATOM     26  C   UNL     1       5.346  -5.628   1.051  0.00  0.00    +0.032 A 
ATOM     27  C   UNL     1       5.989  -5.570  -0.179  0.00  0.00    +0.024 A 
ATOM     28  C   UNL     1       7.274  -5.069  -0.262  0.00  0.00    +0.017 A 
ATOM     29  C   UNL     1       7.920  -4.625   0.878  0.00  0.00    +0.018 A 
ATOM     30  C   UNL     1       7.281  -4.681   2.104  0.00  0.00    +0.020 A 
ATOM     31  C   UNL     1       5.995  -5.176   2.193  0.00  0.00    -0.029 A 
ATOM     32  C   UNL     1       5.298  -5.231   3.528  0.00  0.00    +0.046 C 
ATOM     33 BR   UNL     1       9.678  -3.941   0.760  0.00  0.00    -0.050 Br
ENDBRANCH  24  26
ENDBRANCH   3  24
TORSDOF 4
