REMARK  Name = ZINC15774771
REMARK  8 active torsions:
REMARK  status: ('A' for Active; 'I' for Inactive)
REMARK    1  A    between atoms: C_1  and  C_2
REMARK    2  A    between atoms: C_5  and  S_8
REMARK    3  A    between atoms: S_8  and  N_11
REMARK    4  A    between atoms: N_11  and  N_12
REMARK    5  A    between atoms: C_13  and  C_14
REMARK    6  A    between atoms: C_13  and  C_24
REMARK    7  A    between atoms: C_14  and  N_15
REMARK    8  A    between atoms: C_25  and  C_26
REMARK                            x       y       z     vdW  Elec       q    Type
REMARK                         _______ _______ _______ _____ _____    ______ ____
ROOT
ATOM      1  N   UNL     1      -3.359   3.884  -2.357  0.00  0.00    -0.160 NA
ATOM      2  C   UNL     1      -4.183   3.730  -1.361  0.00  0.00    +0.132 C 
ENDROOT
BRANCH   1   3
ATOM      3  N   UNL     1      -3.832   3.809  -3.674  0.00  0.00    -0.136 N 
ATOM      4  H   UNL     1      -4.772   3.643  -3.844  0.00  0.00    +0.197 HD
BRANCH   3   5
ATOM      5  S   UNL     1      -2.784   4.005  -4.942  0.00  0.00    +0.086 S 
ATOM      6  O   UNL     1      -3.523   3.734  -6.125  0.00  0.00    -0.149 OA
ATOM      7  O   UNL     1      -2.114   5.240  -4.728  0.00  0.00    -0.149 OA
BRANCH   5  12
ATOM      8  C   UNL     1       1.395  -0.324  -4.489  0.00  0.00    +0.044 C 
ATOM      9  C   UNL     1       0.351   0.757  -4.602  0.00  0.00    -0.050 A 
ATOM     10  C   UNL     1      -0.805   0.529  -5.325  0.00  0.00    +0.005 A 
ATOM     11  C   UNL     1      -1.762   1.521  -5.429  0.00  0.00    +0.029 A 
ATOM     12  C   UNL     1      -1.564   2.741  -4.809  0.00  0.00    +0.110 A 
ATOM     13  C   UNL     1      -0.406   2.971  -4.091  0.00  0.00    +0.029 A 
ATOM     14  C   UNL     1       0.550   1.977  -3.983  0.00  0.00    +0.005 A 
ENDBRANCH   5  12
ENDBRANCH   3   5
ENDBRANCH   1   3
BRANCH   2  15
ATOM     15  C   UNL     1      -5.572   3.484  -1.610  0.00  0.00    -0.042 C 
ATOM     16  C   UNL     1      -6.710   3.283  -1.815  0.00  0.00    -0.060 C 
BRANCH  16  17
ATOM     17  C   UNL     1      -8.098   3.037  -2.065  0.00  0.00    +0.025 A 
ATOM     18  C   UNL     1      -8.985   2.866  -0.998  0.00  0.00    +0.017 A 
ATOM     19  C   UNL     1     -10.321   2.634  -1.246  0.00  0.00    +0.001 A 
ATOM     20  C   UNL     1     -10.784   2.562  -2.549  0.00  0.00    +0.000 A 
ATOM     21  C   UNL     1      -9.912   2.725  -3.611  0.00  0.00    +0.001 A 
ATOM     22  C   UNL     1      -8.573   2.962  -3.378  0.00  0.00    +0.017 A 
ENDBRANCH  16  17
ENDBRANCH   2  15
BRANCH   2  23
ATOM     23  C   UNL     1      -3.675   3.810   0.056  0.00  0.00    +0.212 C 
BRANCH  23  24
ATOM     24  N   UNL     1      -2.233   4.067   0.044  0.00  0.00    -0.237 N 
ATOM     25  C   UNL     1      -1.230   3.127   0.030  0.00  0.00    +0.089 A 
ATOM     26  C   UNL     1      -1.209   1.737   0.017  0.00  0.00    +0.029 A 
ATOM     27  C   UNL     1      -0.013   1.076   0.008  0.00  0.00    +0.002 A 
ATOM     28  C   UNL     1       1.184   1.781   0.000  0.00  0.00    +0.002 A 
ATOM     29  C   UNL     1       1.191   3.145   0.007  0.00  0.00    +0.032 A 
ATOM     30  C   UNL     1      -0.022   3.847   0.022  0.00  0.00    +0.113 A 
ATOM     31  N   UNL     1      -0.328   5.160   0.032  0.00  0.00    -0.129 NA
ATOM     32  N   UNL     1      -1.604   5.321   0.044  0.00  0.00    -0.064 NA
ENDBRANCH  23  24
ENDBRANCH   2  23
TORSDOF 7
