REMARK  Name = ZINC08990757
REMARK  8 active torsions:
REMARK  status: ('A' for Active; 'I' for Inactive)
REMARK    1  A    between atoms: C_1  and  C_2
REMARK    2  A    between atoms: C_4  and  C_28
REMARK    3  A    between atoms: C_6  and  N_27
REMARK    4  A    between atoms: C_7  and  C_11
REMARK    5  A    between atoms: C_19  and  N_23
REMARK    6  A    between atoms: C_24  and  C_26
REMARK    7  A    between atoms: C_28  and  O_29
REMARK    8  A    between atoms: O_29  and  C_30
REMARK                            x       y       z     vdW  Elec       q    Type
REMARK                         _______ _______ _______ _____ _____    ______ ____
ROOT
ATOM      1  C   UNL     1       0.056  -5.999   1.994  0.00  0.00    +0.258 C 
ATOM      2  O   UNL     1       0.069  -6.912   1.188  0.00  0.00    -0.269 OA
ATOM      3  N   UNL     1       0.068  -6.267   3.315  0.00  0.00    -0.260 N 
ATOM      4  C   UNL     1       0.093  -7.579   3.755  0.00  0.00    +0.166 A 
ATOM      5  N   UNL     1       0.116  -8.684   3.048  0.00  0.00    -0.225 NA
ATOM      6  C   UNL     1       0.140  -9.910   3.616  0.00  0.00    +0.080 A 
ATOM      7  C   UNL     1       0.165 -11.169   2.973  0.00  0.00    +0.031 A 
ATOM      8  C   UNL     1       0.188 -12.322   3.693  0.00  0.00    +0.025 A 
ATOM      9  C   UNL     1       0.187 -12.312   5.086  0.00  0.00    +0.035 A 
ATOM     10  C   UNL     1       0.163 -11.094   5.754  0.00  0.00    +0.040 A 
ATOM     11  C   UNL     1       0.141  -9.929   5.029  0.00  0.00    +0.043 A 
ATOM     12  S   UNL     1       0.113  -8.199   5.431  0.00  0.00    -0.052 S 
ATOM     13  H   UNL     1       0.058  -5.540   3.958  0.00  0.00    +0.157 HD
ENDROOT
BRANCH   1  20
ATOM     14  C   UNL     1      -0.092   1.518   0.054  0.00  0.00    +0.065 C 
ATOM     15  C   UNL     1      -0.064   0.011   0.041  0.00  0.00    +0.040 A 
ATOM     16  C   UNL     1      -0.057  -0.667  -1.169  0.00  0.00    +0.029 A 
ATOM     17  C   UNL     1      -0.032  -2.042  -1.195  0.00  0.00    -0.009 A 
ATOM     18  C   UNL     1      -0.013  -2.752   0.031  0.00  0.00    +0.034 A 
ATOM     19  C   UNL     1       0.015  -4.190   0.247  0.00  0.00    +0.054 A 
ATOM     20  C   UNL     1       0.030  -4.656   1.544  0.00  0.00    +0.097 A 
ATOM     21  S   UNL     1       0.007  -3.165   2.519  0.00  0.00    -0.062 S 
ATOM     22  C   UNL     1      -0.022  -1.968   1.207  0.00  0.00    +0.111 A 
ATOM     23  N   UNL     1      -0.041  -0.653   1.180  0.00  0.00    -0.245 NA
BRANCH  19  24
ATOM     24  N   UNL     1       0.026  -5.071  -0.825  0.00  0.00    -0.356 N 
ATOM     25  H   UNL     1       0.015  -4.729  -1.733  0.00  0.00    +0.142 HD
ATOM     26  H   UNL     1       0.044  -6.028  -0.667  0.00  0.00    +0.142 HD
ENDBRANCH  19  24
BRANCH  17  27
ATOM     27  C   UNL     1      -0.025  -2.782  -2.508  0.00  0.00    +0.195 C 
BRANCH  27  28
ATOM     28  O   UNL     1      -0.047  -1.842  -3.584  0.00  0.00    -0.378 OA
ATOM     29  C   UNL     1      -0.043  -2.443  -4.880  0.00  0.00    +0.194 C 
ENDBRANCH  27  28
ENDBRANCH  17  27
ENDBRANCH   1  20
BRANCH   9  30
ATOM     30  N   UNL     1       0.210 -13.515   5.804  0.00  0.00    -0.286 N 
ATOM     31  C   UNL     1       0.881 -13.590   6.971  0.00  0.00    +0.214 C 
ATOM     32  O   UNL     1       1.393 -12.596   7.441  0.00  0.00    -0.276 OA
ATOM     33  C   UNL     1       0.995 -14.909   7.691  0.00  0.00    +0.109 C 
ATOM     34  H   UNL     1      -0.257 -14.293   5.462  0.00  0.00    +0.155 HD
ENDBRANCH   9  30
TORSDOF 5
