REMARK  Name = ZINC19760353
REMARK  6 active torsions:
REMARK  status: ('A' for Active; 'I' for Inactive)
REMARK    1  A    between atoms: C_1  and  C_2
REMARK    2  A    between atoms: N_5  and  C_19
REMARK    3  A    between atoms: C_8  and  C_13
REMARK    4  A    between atoms: C_19  and  C_20
REMARK    5  A    between atoms: C_20  and  C_21
REMARK    6  A    between atoms: C_20  and  C_22
REMARK                            x       y       z     vdW  Elec       q    Type
REMARK                         _______ _______ _______ _____ _____    ______ ____
ROOT
ATOM      1  C   UNL     1       0.331   2.999   4.171  0.00  0.00    +0.053 C 
ATOM      2  C   UNL     1      -0.576   2.738   2.966  0.00  0.00    +0.188 C 
ATOM      3  C   UNL     1       0.212   2.005   1.873  0.00  0.00    +0.149 C 
ATOM      4  N   UNL     1      -0.661   1.831   0.705  0.00  0.00    -0.323 N 
ATOM      5  C   UNL     1      -1.898   1.278   1.050  0.00  0.00    +0.073 A 
ATOM      6  C   UNL     1      -2.653   0.669   0.055  0.00  0.00    +0.036 A 
ATOM      7  C   UNL     1      -3.892   0.112   0.358  0.00  0.00    +0.003 A 
ATOM      8  C   UNL     1      -4.375   0.165   1.665  0.00  0.00    +0.014 A 
ATOM      9  C   UNL     1      -3.623   0.768   2.652  0.00  0.00    +0.048 A 
ATOM     10  C   UNL     1      -2.386   1.324   2.352  0.00  0.00    +0.142 A 
ATOM     11  O   UNL     1      -1.670   1.902   3.356  0.00  0.00    -0.486 OA
ENDROOT
BRANCH   7  12
ATOM     12  C   UNL     1      -4.696  -0.537  -0.706  0.00  0.00    +0.080 A 
ATOM     13  C   UNL     1      -5.910  -1.090  -0.413  0.00  0.00    +0.076 A 
ATOM     14  S   UNL     1      -6.398  -1.696  -2.022  0.00  0.00    -0.060 S 
ATOM     15  C   UNL     1      -4.943  -1.164  -2.914  0.00  0.00    +0.156 A 
ATOM     16  N   UNL     1      -4.240  -0.590  -1.955  0.00  0.00    -0.225 NA
ATOM     17  N   UNL     1      -4.635  -1.314  -4.257  0.00  0.00    -0.338 N 
ATOM     18  H   UNL     1      -3.685  -0.923  -4.650  0.00  0.00    +0.144 HD
ATOM     19  H   UNL     1      -5.340  -1.824  -4.929  0.00  0.00    +0.144 HD
ENDBRANCH   7  12
BRANCH   4  20
ATOM     20  C   UNL     1       0.003   1.031  -0.333  0.00  0.00    +0.108 C 
BRANCH  20  21
ATOM     21  C   UNL     1       0.439  -0.312   0.258  0.00  0.00    +0.000 C 
ATOM     22  C   UNL     1      -0.799  -1.135   0.621  0.00  0.00    +0.009 C 
ATOM     23  C   UNL     1       1.275  -1.075  -0.771  0.00  0.00    +0.009 C 
ENDBRANCH  20  21
ENDBRANCH   4  20
TORSDOF 3
