REMARK  Name = ZINC22818775
REMARK  11 active torsions:
REMARK  status: ('A' for Active; 'I' for Inactive)
REMARK    1  A    between atoms: C_1  and  O_2
REMARK    2  A    between atoms: O_2  and  C_3
REMARK    3  A    between atoms: C_6  and  C_9
REMARK    4  A    between atoms: C_16  and  N_39
REMARK    5  A    between atoms: C_17  and  C_37
REMARK    6  A    between atoms: C_18  and  C_20
REMARK    7  A    between atoms: C_23  and  O_28
REMARK    8  A    between atoms: C_24  and  O_26
REMARK    9  A    between atoms: O_26  and  C_27
REMARK   10  A    between atoms: O_28  and  C_29
REMARK   11  A    between atoms: C_29  and  C_30
REMARK                            x       y       z     vdW  Elec       q    Type
REMARK                         _______ _______ _______ _____ _____    ______ ____
ROOT
ATOM      1  C   UNL     1      -5.226  -2.872   0.244  0.00  0.00    +0.100 A 
ATOM      2  C   UNL     1      -5.415  -3.939  -0.640  0.00  0.00    +0.054 A 
ATOM      3  C   UNL     1      -6.699  -4.379  -0.504  0.00  0.00    +0.223 A 
ATOM      4  N   UNL     1      -7.298  -3.615   0.434  0.00  0.00    -0.246 N 
ATOM      5  H   UNL     1      -8.214  -3.701   0.739  0.00  0.00    +0.192 HD
ATOM      6  N   UNL     1      -6.358  -2.680   0.895  0.00  0.00    -0.171 NA
ATOM      7  O   UNL     1      -7.202  -5.409  -1.230  0.00  0.00    -0.423 OA
ATOM      8  C   UNL     1      -6.490  -5.827  -2.296  0.00  0.00    +0.200 C 
ATOM      9  C   UNL     1      -5.207  -5.471  -2.531  0.00  0.00    +0.098 C 
ATOM     10  C   UNL     1      -4.439  -4.562  -1.605  0.00  0.00    +0.102 C 
ENDROOT
BRANCH   1  14
ATOM     11  C   UNL     1      -1.634  -0.653   0.758  0.00  0.00    +0.120 A 
ATOM     12  C   UNL     1      -2.385  -1.022   1.866  0.00  0.00    +0.046 A 
ATOM     13  C   UNL     1      -3.550  -1.741   1.702  0.00  0.00    +0.013 A 
ATOM     14  C   UNL     1      -3.973  -2.098   0.423  0.00  0.00    +0.003 A 
ATOM     15  C   UNL     1      -3.218  -1.726  -0.687  0.00  0.00    +0.013 A 
ATOM     16  C   UNL     1      -2.056  -1.002  -0.518  0.00  0.00    +0.046 A 
BRANCH  11  18
ATOM     17  C   UNL     1      -0.111   0.382   2.262  0.00  0.00    +0.277 C 
ATOM     18  O   UNL     1      -0.486   0.056   0.922  0.00  0.00    -0.495 OA
ENDBRANCH  11  18
ENDBRANCH   1  14
BRANCH  10  19
ATOM     19  C   UNL     1      -3.411  -5.360  -0.845  0.00  0.00    -0.031 A 
ATOM     20  C   UNL     1      -3.815  -6.387  -0.011  0.00  0.00    +0.008 A 
ATOM     21  C   UNL     1      -2.876  -7.123   0.688  0.00  0.00    +0.050 A 
ATOM     22  C   UNL     1      -1.528  -6.832   0.555  0.00  0.00    +0.162 A 
ATOM     23  C   UNL     1      -1.122  -5.798  -0.284  0.00  0.00    +0.162 A 
ATOM     24  C   UNL     1      -2.068  -5.068  -0.986  0.00  0.00    +0.054 A 
BRANCH  23  25
ATOM     25  O   UNL     1       0.200  -5.509  -0.419  0.00  0.00    -0.491 OA
ATOM     26  C   UNL     1       0.540  -4.401  -1.254  0.00  0.00    +0.277 C 
ENDBRANCH  23  25
BRANCH  22  27
ATOM     27  O   UNL     1      -0.604  -7.554   1.243  0.00  0.00    -0.484 OA
BRANCH  27  28
ATOM     28  C   UNL     1      -1.093  -8.599   2.085  0.00  0.00    +0.264 C 
BRANCH  28  29
ATOM     29  C   UNL     1       0.067  -9.284   2.761  0.00  0.00    -0.010 A 
ATOM     30  C   UNL     1       0.678 -10.366   2.155  0.00  0.00    +0.010 A 
ATOM     31  C   UNL     1       1.742 -10.994   2.774  0.00  0.00    +0.039 A 
ATOM     32  C   UNL     1       2.196 -10.540   4.001  0.00  0.00    +0.123 A 
ATOM     33  C   UNL     1       1.583  -9.456   4.607  0.00  0.00    +0.039 A 
ATOM     34  C   UNL     1       0.522  -8.826   3.984  0.00  0.00    +0.010 A 
ATOM     35  F   UNL     1       3.236 -11.154   4.607  0.00  0.00    -0.205 F 
ENDBRANCH  28  29
ENDBRANCH  27  28
ENDBRANCH  22  27
ENDBRANCH  10  19
BRANCH   8  36
ATOM     36  N   UNL     1      -7.103  -6.663  -3.196  0.00  0.00    -0.328 N 
ATOM     37  H   UNL     1      -8.023  -6.936  -3.054  0.00  0.00    +0.145 HD
ATOM     38  H   UNL     1      -6.617  -6.981  -3.973  0.00  0.00    +0.145 HD
ENDBRANCH   8  36
BRANCH   9  39
ATOM     39  C   UNL     1      -4.554  -5.977  -3.701  0.00  0.00    +0.101 C 
ATOM     40  N   UNL     1      -4.035  -6.377  -4.629  0.00  0.00    -0.191 NA
ENDBRANCH   9  39
TORSDOF 9
