REMARK  Name = ZINC13755939
REMARK  7 active torsions:
REMARK  status: ('A' for Active; 'I' for Inactive)
REMARK    1  A    between atoms: C_1  and  O_2
REMARK    2  A    between atoms: O_2  and  C_3
REMARK    3  A    between atoms: C_3  and  C_5
REMARK    4  A    between atoms: C_11  and  C_12
REMARK    5  A    between atoms: C_20  and  N_33
REMARK    6  A    between atoms: C_21  and  C_31
REMARK    7  A    between atoms: C_22  and  C_24
REMARK                            x       y       z     vdW  Elec       q    Type
REMARK                         _______ _______ _______ _____ _____    ______ ____
ROOT
ATOM      1  C   UNL     1      -3.932   2.747   0.921  0.00  0.00    +0.080 C 
ATOM      2  C   UNL     1      -3.759   1.412   0.666  0.00  0.00    +0.100 A 
ATOM      3  N   UNL     1      -2.642   0.690   1.033  0.00  0.00    -0.257 N 
ATOM      4  C   UNL     1      -2.611  -0.619   0.715  0.00  0.00    +0.271 A 
ATOM      5  O   UNL     1      -1.654  -1.310   1.011  0.00  0.00    -0.266 OA
ATOM      6  C   UNL     1      -3.759  -1.193   0.002  0.00  0.00    +0.079 A 
ATOM      7  C   UNL     1      -3.962  -2.466  -0.422  0.00  0.00    +0.028 C 
ATOM      8  S   UNL     1      -4.817   0.237  -0.155  0.00  0.00    -0.065 S 
ATOM      9  C   UNL     1      -1.604   1.340   1.711  0.00  0.00    +0.118 C 
ATOM     10  C   UNL     1      -1.625   2.650   2.041  0.00  0.00    +0.079 C 
ATOM     11  C   UNL     1      -2.828   3.484   1.654  0.00  0.00    +0.102 C 
ENDROOT
BRANCH   7  12
ATOM     12  C   UNL     1      -2.870  -3.447  -0.350  0.00  0.00    -0.024 A 
ATOM     13  C   UNL     1      -1.564  -3.071  -0.686  0.00  0.00    +0.011 A 
ATOM     14  C   UNL     1      -0.545  -3.995  -0.612  0.00  0.00    +0.039 A 
ATOM     15  C   UNL     1      -0.812  -5.297  -0.215  0.00  0.00    +0.123 A 
ATOM     16  C   UNL     1      -2.104  -5.677   0.114  0.00  0.00    +0.039 A 
ATOM     17  C   UNL     1      -3.132  -4.763   0.049  0.00  0.00    +0.011 A 
ATOM     18  F   UNL     1       0.192  -6.199  -0.149  0.00  0.00    -0.205 F 
ENDBRANCH   7  12
BRANCH  11  19
ATOM     19  C   UNL     1      -2.359   4.619   0.780  0.00  0.00    -0.034 A 
ATOM     20  C   UNL     1      -1.831   4.356  -0.470  0.00  0.00    +0.007 A 
ATOM     21  C   UNL     1      -1.406   5.397  -1.274  0.00  0.00    +0.038 A 
ATOM     22  C   UNL     1      -1.499   6.702  -0.822  0.00  0.00    +0.123 A 
ATOM     23  C   UNL     1      -2.022   6.964   0.432  0.00  0.00    +0.038 A 
ATOM     24  C   UNL     1      -2.452   5.923   1.232  0.00  0.00    +0.007 A 
ATOM     25  F   UNL     1      -1.078   7.720  -1.605  0.00  0.00    -0.205 F 
ENDBRANCH  11  19
BRANCH   9  26
ATOM     26  N   UNL     1      -0.502   0.601   2.066  0.00  0.00    -0.343 N 
ATOM     27  H   UNL     1       0.377   1.011   2.068  0.00  0.00    +0.144 HD
ATOM     28  H   UNL     1      -0.603  -0.330   2.320  0.00  0.00    +0.144 HD
ENDBRANCH   9  26
BRANCH   1  29
ATOM     29  C   UNL     1      -5.097   3.412   0.516  0.00  0.00    +0.338 C 
ATOM     30  O   UNL     1      -5.973   2.803  -0.071  0.00  0.00    -0.245 OA
BRANCH  29  32
ATOM     31  C   UNL     1      -6.460   5.343   0.337  0.00  0.00    +0.280 C 
ATOM     32  O   UNL     1      -5.248   4.729   0.778  0.00  0.00    -0.465 OA
ENDBRANCH  29  32
ENDBRANCH   1  29
BRANCH  10  33
ATOM     33  C   UNL     1      -0.524   3.240   2.741  0.00  0.00    +0.099 C 
ATOM     34  N   UNL     1       0.349   3.709   3.297  0.00  0.00    -0.191 NA
ENDBRANCH  10  33
TORSDOF 6
