REMARK  Name = ZINC04626150
REMARK  9 active torsions:
REMARK  status: ('A' for Active; 'I' for Inactive)
REMARK    1  A    between atoms: C_1  and  C_2
REMARK    2  A    between atoms: C_3  and  C_21
REMARK    3  A    between atoms: C_6  and  S_8
REMARK    4  A    between atoms: S_8  and  C_9
REMARK    5  A    between atoms: C_9  and  C_10
REMARK    6  A    between atoms: N_12  and  C_13
REMARK    7  A    between atoms: C_18  and  C_19
REMARK    8  A    between atoms: C_21  and  C_22
REMARK    9  A    between atoms: C_25  and  O_28
REMARK                            x       y       z     vdW  Elec       q    Type
REMARK                         _______ _______ _______ _____ _____    ______ ____
ROOT
ATOM      1  C   UNL     1      -0.077   1.503   0.012  0.00  0.00    +0.067 C 
ATOM      2  C   UNL     1      -0.046  -0.004   0.003  0.00  0.00    +0.060 A 
ATOM      3  C   UNL     1      -0.039  -0.784  -1.091  0.00  0.00    +0.043 A 
ATOM      4  N   UNL     1      -0.008  -2.089  -0.653  0.00  0.00    -0.336 N 
ATOM      5  H   UNL     1       0.005  -2.884  -1.209  0.00  0.00    +0.168 HD
ATOM      6  C   UNL     1       0.004  -2.052   0.707  0.00  0.00    +0.167 A 
ATOM      7  N   UNL     1      -0.015  -0.796   1.088  0.00  0.00    -0.227 NA
ENDROOT
BRANCH   6   8
ATOM      8  S   UNL     1       0.043  -3.452   1.776  0.00  0.00    -0.079 S 
BRANCH   8   9
ATOM      9  C   UNL     1       0.042  -2.733   3.442  0.00  0.00    +0.173 C 
BRANCH   9  10
ATOM     10  C   UNL     1       0.075  -3.838   4.466  0.00  0.00    +0.228 C 
ATOM     11  O   UNL     1       0.096  -4.997   4.107  0.00  0.00    -0.275 OA
ATOM     12  N   UNL     1       0.080  -3.539   5.780  0.00  0.00    -0.284 N 
ATOM     13  H   UNL     1       0.144  -2.615   6.067  0.00  0.00    +0.155 HD
BRANCH  12  14
ATOM     14  C   UNL     1      -0.006  -4.558   6.727  0.00  0.00    +0.051 A 
ATOM     15  C   UNL     1      -0.596  -5.770   6.396  0.00  0.00    +0.024 A 
ATOM     16  C   UNL     1      -0.681  -6.779   7.335  0.00  0.00    +0.002 A 
ATOM     17  C   UNL     1      -0.179  -6.590   8.613  0.00  0.00    +0.001 A 
ATOM     18  C   UNL     1       0.410  -5.393   8.960  0.00  0.00    +0.021 A 
ATOM     19  C   UNL     1       0.508  -4.366   8.018  0.00  0.00    +0.073 A 
BRANCH  19  20
ATOM     20  C   UNL     1       1.124  -3.123   8.370  0.00  0.00    +0.101 C 
ATOM     21  N   UNL     1       1.613  -2.136   8.650  0.00  0.00    -0.191 NA
ENDBRANCH  19  20
ENDBRANCH  12  14
ENDBRANCH   9  10
ENDBRANCH   8   9
ENDBRANCH   6   8
BRANCH   3  22
ATOM     22  C   UNL     1      -0.062  -0.319  -2.524  0.00  0.00    +0.090 C 
BRANCH  22  23
ATOM     23  C   UNL     1       1.343  -0.016  -2.977  0.00  0.00    -0.041 A 
ATOM     24  C   UNL     1       1.863   1.254  -2.809  0.00  0.00    +0.007 A 
ATOM     25  C   UNL     1       3.151   1.535  -3.224  0.00  0.00    +0.045 A 
ATOM     26  C   UNL     1       3.922   0.541  -3.808  0.00  0.00    +0.117 A 
ATOM     27  C   UNL     1       3.398  -0.733  -3.974  0.00  0.00    +0.045 A 
ATOM     28  C   UNL     1       2.112  -1.010  -3.553  0.00  0.00    +0.007 A 
BRANCH  26  29
ATOM     29  O   UNL     1       5.189   0.814  -4.216  0.00  0.00    -0.507 OA
ATOM     30  H   UNL     1       5.862   0.664  -3.538  0.00  0.00    +0.292 HD
ENDBRANCH  26  29
ENDBRANCH  22  23
ENDBRANCH   3  22
TORSDOF 8
