REMARK  Name = ZINC40805283
REMARK  5 active torsions:
REMARK  status: ('A' for Active; 'I' for Inactive)
REMARK    1  A    between atoms: C_1  and  C_2
REMARK    2  A    between atoms: C_5  and  C_8
REMARK    3  A    between atoms: C_14  and  C_16
REMARK    4  A    between atoms: C_16  and  C_28
REMARK    5  A    between atoms: C_22  and  C_27
REMARK                            x       y       z     vdW  Elec       q    Type
REMARK                         _______ _______ _______ _____ _____    ______ ____
ROOT
ATOM      1  C   UNL     1       0.060  -4.255  -0.021  0.00  0.00    +0.080 A 
ATOM      2  C   UNL     1       0.070  -4.952   1.155  0.00  0.00    +0.076 A 
ATOM      3  S   UNL     1       0.092  -6.632   0.545  0.00  0.00    -0.060 S 
ATOM      4  C   UNL     1       0.085  -6.237  -1.198  0.00  0.00    +0.165 A 
ATOM      5  N   UNL     1       0.062  -4.918  -1.169  0.00  0.00    -0.225 NA
ATOM      6  N   UNL     1       0.095  -7.092  -2.294  0.00  0.00    -0.261 N 
ATOM      7  C   UNL     1       0.113  -8.426  -2.107  0.00  0.00    +0.272 C 
ATOM      8  O   UNL     1       0.119  -8.881  -0.983  0.00  0.00    -0.270 OA
ATOM      9  H   UNL     1       0.090  -6.728  -3.193  0.00  0.00    +0.157 HD
ENDROOT
BRANCH   7  10
ATOM     10  C   UNL     1       0.124  -9.353  -3.295  0.00  0.00    +0.258 C 
ATOM     11  C   UNL     1      -0.455 -10.687  -2.896  0.00  0.00    +0.270 C 
ATOM     12  O   UNL     1       0.275 -11.578  -2.514  0.00  0.00    -0.271 OA
ATOM     13  N   UNL     1      -1.788 -10.886  -2.966  0.00  0.00    -0.279 N 
ATOM     14  C   UNL     1      -2.599  -9.891  -3.528  0.00  0.00    +0.076 A 
ATOM     15  C   UNL     1      -3.978  -9.957  -3.411  0.00  0.00    +0.030 A 
ATOM     16  C   UNL     1      -4.764  -8.961  -3.960  0.00  0.00    -0.048 A 
ATOM     17  C   UNL     1      -4.178  -7.899  -4.624  0.00  0.00    +0.007 A 
ATOM     18  C   UNL     1      -2.802  -7.830  -4.748  0.00  0.00    +0.048 A 
ATOM     19  C   UNL     1      -2.009  -8.827  -4.206  0.00  0.00    +0.144 A 
ATOM     20  O   UNL     1      -0.657  -8.786  -4.349  0.00  0.00    -0.465 OA
ATOM     21  C   UNL     1      -6.264  -9.032  -3.835  0.00  0.00    +0.044 C 
ATOM     22  C   UNL     1       1.564  -9.547  -3.776  0.00  0.00    +0.076 C 
ATOM     23  H   UNL     1      -2.180 -11.708  -2.631  0.00  0.00    +0.155 HD
ENDBRANCH   7  10
BRANCH   1  28
ATOM     24  C   UNL     1      -0.018   1.503   0.010  0.00  0.00    +0.044 C 
ATOM     25  C   UNL     1       0.002  -0.004   0.002  0.00  0.00    -0.050 A 
ATOM     26  C   UNL     1       0.006  -0.686  -1.201  0.00  0.00    +0.004 A 
ATOM     27  C   UNL     1       0.024  -2.066  -1.215  0.00  0.00    +0.010 A 
ATOM     28  C   UNL     1       0.040  -2.772  -0.013  0.00  0.00    +0.001 A 
ATOM     29  C   UNL     1       0.037  -2.079   1.196  0.00  0.00    +0.010 A 
ATOM     30  C   UNL     1       0.023  -0.700   1.198  0.00  0.00    +0.004 A 
ENDBRANCH   1  28
TORSDOF 2
