REMARK  Name = ZINC55306674
REMARK  6 active torsions:
REMARK  status: ('A' for Active; 'I' for Inactive)
REMARK    1  A    between atoms: C_1  and  N_2
REMARK    2  A    between atoms: N_2  and  S_3
REMARK    3  A    between atoms: S_3  and  C_6
REMARK    4  A    between atoms: C_9  and  S_13
REMARK    5  A    between atoms: C_10  and  N_12
REMARK    6  A    between atoms: S_13  and  C_14
REMARK                            x       y       z     vdW  Elec       q    Type
REMARK                         _______ _______ _______ _____ _____    ______ ____
ROOT
ATOM      1  C   UNL     1       2.437  -0.430  -1.194  0.00  0.00    +0.107 A 
ATOM      2  C   UNL     1       2.921   0.668  -1.880  0.00  0.00    +0.030 A 
ATOM      3  C   UNL     1       4.270   0.969  -1.849  0.00  0.00    +0.019 A 
ATOM      4  C   UNL     1       5.142   0.168  -1.126  0.00  0.00    +0.033 A 
ATOM      5  C   UNL     1       4.653  -0.940  -0.433  0.00  0.00    +0.040 A 
ATOM      6  C   UNL     1       3.298  -1.231  -0.466  0.00  0.00    +0.052 A 
ENDROOT
BRANCH   1   7
ATOM      7  S   UNL     1       0.716  -0.806  -1.240  0.00  0.00    +0.058 S 
ATOM      8  O   UNL     1       0.596  -2.194  -0.958  0.00  0.00    -0.153 OA
ATOM      9  O   UNL     1       0.205  -0.224  -2.432  0.00  0.00    -0.153 OA
BRANCH   7  11
ATOM     10  C   UNL     1      -0.013   1.462   0.040  0.00  0.00    +0.127 C 
ATOM     11  N   UNL     1       0.005  -0.003   0.021  0.00  0.00    -0.193 NA
ATOM     12  H   UNL     1      -0.400  -0.502   0.748  0.00  0.00    +0.148 HD
ENDBRANCH   7  11
ENDBRANCH   1   7
BRANCH   5  13
ATOM     13  N   UNL     1       5.528  -1.753   0.298  0.00  0.00    -0.357 N 
ATOM     14  H   UNL     1       6.475  -1.547   0.323  0.00  0.00    +0.142 HD
ATOM     15  H   UNL     1       5.186  -2.523   0.779  0.00  0.00    +0.142 HD
ENDBRANCH   5  13
BRANCH   4  16
ATOM     16  S   UNL     1       6.862   0.548  -1.084  0.00  0.00    -0.088 S 
BRANCH  16  17
ATOM     17  C   UNL     1       7.028   1.896  -2.205  0.00  0.00    +0.014 A 
ATOM     18  C   UNL     1       7.008   3.203  -1.732  0.00  0.00    +0.015 A 
ATOM     19  C   UNL     1       7.138   4.258  -2.613  0.00  0.00    +0.002 A 
ATOM     20  C   UNL     1       7.288   4.016  -3.966  0.00  0.00    +0.015 A 
ATOM     21  C   UNL     1       7.309   2.717  -4.442  0.00  0.00    +0.019 A 
ATOM     22  C   UNL     1       7.186   1.656  -3.565  0.00  0.00    +0.030 A 
ATOM     23 BR   UNL     1       7.515   2.392  -6.294  0.00  0.00    -0.050 Br
ENDBRANCH  16  17
ENDBRANCH   4  16
TORSDOF 5
