REMARK  Name = ZINC28019908
REMARK  5 active torsions:
REMARK  status: ('A' for Active; 'I' for Inactive)
REMARK    1  A    between atoms: C_1  and  C_2
REMARK    2  A    between atoms: C_3  and  C_13
REMARK    3  A    between atoms: N_15  and  C_16
REMARK    4  A    between atoms: C_16  and  C_18
REMARK    5  A    between atoms: C_16  and  C_19
REMARK                            x       y       z     vdW  Elec       q    Type
REMARK                         _______ _______ _______ _____ _____    ______ ____
ROOT
ATOM      1  C   UNL     1      -1.158  -0.910   0.009  0.00  0.00    +0.249 C 
ATOM      2  O   UNL     1      -1.647  -1.280  -1.042  0.00  0.00    -0.270 OA
ATOM      3  N   UNL     1      -1.678  -1.331   1.179  0.00  0.00    -0.305 N 
ATOM      4  H   UNL     1      -1.235  -0.998   2.129  0.00  0.00    +0.150 HD
ENDROOT
BRANCH   1   7
ATOM      5  C   UNL     1      -1.259   2.209   0.020  0.00  0.00    +0.087 C 
ATOM      6  C   UNL     1      -0.016   1.357   0.009  0.00  0.00    +0.117 A 
ATOM      7  C   UNL     1       0.002  -0.004   0.002  0.00  0.00    +0.092 A 
ATOM      8  C   UNL     1       1.425  -0.380  -0.014  0.00  0.00    +0.116 A 
ATOM      9  C   UNL     1       2.136  -1.599  -0.027  0.00  0.00    +0.263 A 
ATOM     10  O   UNL     1       1.549  -2.667  -0.027  0.00  0.00    -0.267 OA
ATOM     11  N   UNL     1       3.488  -1.547  -0.040  0.00  0.00    -0.313 N 
ATOM     12  H   UNL     1       4.074  -2.478  -0.051  0.00  0.00    +0.170 HD
ATOM     13  C   UNL     1       4.122  -0.348  -0.039  0.00  0.00    +0.203 A 
ATOM     14  N   UNL     1       3.476   0.783  -0.027  0.00  0.00    -0.202 NA
ATOM     15  C   UNL     1       2.134   0.822  -0.014  0.00  0.00    +0.235 A 
ATOM     16  O   UNL     1       1.239   1.823   0.000  0.00  0.00    -0.441 OA
ENDBRANCH   1   7
BRANCH   3  17
ATOM     17  C   UNL     1      -2.832  -2.233   1.185  0.00  0.00    +0.100 C 
ATOM     18  C   UNL     1      -2.351  -3.679   1.048  0.00  0.00    +0.033 C 
BRANCH  17  19
ATOM     19  C   UNL     1      -3.585  -2.076   2.481  0.00  0.00    -0.027 A 
ATOM     20  C   UNL     1      -2.896  -1.922   3.670  0.00  0.00    +0.006 A 
ATOM     21  C   UNL     1      -3.592  -1.781   4.852  0.00  0.00    +0.004 A 
ATOM     22  C   UNL     1      -4.981  -1.792   4.859  0.00  0.00    -0.044 A 
ATOM     23  C   UNL     1      -5.668  -1.940   3.675  0.00  0.00    -0.044 A 
ATOM     24  C   UNL     1      -4.965  -2.079   2.485  0.00  0.00    +0.009 A 
ATOM     25  C   UNL     1      -7.172  -1.951   3.606  0.00  0.00    +0.035 C 
ATOM     26  C   UNL     1      -7.771  -2.224   4.984  0.00  0.00    +0.005 C 
ATOM     27  C   UNL     1      -7.139  -1.252   5.987  0.00  0.00    +0.005 C 
ATOM     28  C   UNL     1      -5.678  -1.647   6.187  0.00  0.00    +0.035 C 
ENDBRANCH  17  19
ENDBRANCH   3  17
TORSDOF 3
