REMARK  Name = ZINC15730711
REMARK  5 active torsions:
REMARK  status: ('A' for Active; 'I' for Inactive)
REMARK    1  A    between atoms: C_1  and  C_2
REMARK    2  A    between atoms: C_3  and  N_9
REMARK    3  A    between atoms: N_9  and  S_10
REMARK    4  A    between atoms: S_10  and  C_13
REMARK    5  A    between atoms: C_22  and  C_26
REMARK                            x       y       z     vdW  Elec       q    Type
REMARK                         _______ _______ _______ _____ _____    ______ ____
ROOT
ATOM      1  C   UNL     1      -2.466   5.733  -2.400  0.00  0.00    +0.110 A 
ATOM      2  C   UNL     1      -1.233   5.769  -3.026  0.00  0.00    +0.030 A 
ATOM      3  C   UNL     1      -1.162   5.576  -4.385  0.00  0.00    +0.018 A 
ATOM      4  C   UNL     1      -2.309   5.352  -5.159  0.00  0.00    +0.029 A 
ATOM      5  C   UNL     1      -3.547   5.317  -4.534  0.00  0.00    +0.049 A 
ATOM      6  C   UNL     1      -3.600   5.515  -3.144  0.00  0.00    +0.053 A 
ATOM      7  N   UNL     1      -4.764   5.118  -5.129  0.00  0.00    -0.284 N 
ATOM      8  C   UNL     1      -5.293   4.729  -6.235  0.00  0.00    +0.221 C 
ATOM      9  O   UNL     1      -6.479   4.478  -6.182  0.00  0.00    -0.275 OA
ATOM     10  C   UNL     1      -4.665   4.543  -7.571  0.00  0.00    +0.082 C 
ATOM     11  C   UNL     1      -3.279   3.973  -7.476  0.00  0.00    +0.087 C 
ATOM     12  S   UNL     1      -2.061   5.133  -6.874  0.00  0.00    -0.123 S 
ATOM     13  C   UNL     1      -5.534   3.595  -8.400  0.00  0.00    +0.018 C 
ATOM     14  H   UNL     1      -5.468   5.348  -4.502  0.00  0.00    +0.155 HD
ENDROOT
BRANCH   1  15
ATOM     15  S   UNL     1      -2.582   5.972  -0.658  0.00  0.00    +0.072 S 
ATOM     16  O   UNL     1      -3.899   6.439  -0.399  0.00  0.00    -0.150 OA
ATOM     17  O   UNL     1      -1.425   6.700  -0.270  0.00  0.00    -0.150 OA
BRANCH  15  18
ATOM     18  N   UNL     1      -2.462   4.479   0.050  0.00  0.00    -0.216 N 
ATOM     19  H   UNL     1      -3.191   4.140   0.593  0.00  0.00    +0.174 HD
BRANCH  18  22
ATOM     20  C   UNL     1      -2.756   1.657  -0.158  0.00  0.00    +0.047 C 
ATOM     21  C   UNL     1      -1.409   2.328  -0.241  0.00  0.00    -0.010 A 
ATOM     22  C   UNL     1      -1.312   3.709  -0.135  0.00  0.00    +0.052 A 
ATOM     23  C   UNL     1      -0.069   4.324  -0.219  0.00  0.00    +0.025 A 
ATOM     24  C   UNL     1       1.067   3.559  -0.401  0.00  0.00    +0.003 A 
ATOM     25  C   UNL     1       0.969   2.184  -0.501  0.00  0.00    +0.020 A 
ATOM     26  C   UNL     1      -0.268   1.568  -0.418  0.00  0.00    +0.046 A 
ATOM     27 CL   UNL     1      -0.387  -0.159  -0.544  0.00  0.00    -0.083 Cl
ENDBRANCH  18  22
ENDBRANCH  15  18
ENDBRANCH   1  15
TORSDOF 3
