REMARK  Name = ZINC49544329
REMARK  2 active torsions:
REMARK  status: ('A' for Active; 'I' for Inactive)
REMARK    1  A    between atoms: C_1  and  N_2
REMARK    2  A    between atoms: C_7  and  C_14
REMARK                            x       y       z     vdW  Elec       q    Type
REMARK                         _______ _______ _______ _____ _____    ______ ____
ROOT
ATOM      1  C   UNL     1      -0.018   1.461   0.010  0.00  0.00    +0.174 C 
ATOM      2  N   UNL     1       0.002  -0.004   0.002  0.00  0.00    -0.253 N 
ATOM      3  C   UNL     1       0.008  -0.800  -1.113  0.00  0.00    +0.127 A 
ATOM      4  C   UNL     1       0.028  -2.081  -0.685  0.00  0.00    +0.029 A 
ATOM      5  C   UNL     1       0.034  -2.065   0.725  0.00  0.00    +0.141 A 
ATOM      6  N   UNL     1       0.024  -0.827   1.128  0.00  0.00    -0.178 NA
ATOM      7  C   UNL     1       0.044  -3.359  -1.464  0.00  0.00    +0.111 C 
ATOM      8  S   UNL     1       0.958  -3.241  -3.004  0.00  0.00    -0.138 S 
ATOM      9  C   UNL     1       0.015  -2.130  -4.057  0.00  0.00    +0.166 C 
ATOM     10  C   UNL     1       0.032  -0.731  -3.581  0.00  0.00    +0.228 C 
ATOM     11  O   UNL     1       0.097   0.105  -4.458  0.00  0.00    -0.275 OA
ATOM     12  N   UNL     1      -0.012  -0.253  -2.374  0.00  0.00    -0.270 N 
ATOM     13  H   UNL     1      -0.074   0.715  -2.358  0.00  0.00    +0.156 HD
ENDROOT
BRANCH   7  14
ATOM     14  C   UNL     1       0.670  -4.435  -0.615  0.00  0.00    -0.029 A 
ATOM     15  C   UNL     1       1.978  -4.277  -0.158  0.00  0.00    +0.007 A 
ATOM     16  C   UNL     1       2.573  -5.229   0.611  0.00  0.00    +0.028 A 
ATOM     17  C   UNL     1       1.863  -6.393   0.954  0.00  0.00    +0.071 A 
ATOM     18  C   UNL     1       0.534  -6.551   0.489  0.00  0.00    +0.001 A 
ATOM     19  C   UNL     1      -0.050  -5.546  -0.298  0.00  0.00    +0.015 A 
ATOM     20  C   UNL     1      -0.175  -7.717   0.834  0.00  0.00    +0.011 A 
ATOM     21  C   UNL     1       0.455  -8.650   1.607  0.00  0.00    +0.020 A 
ATOM     22  C   UNL     1       1.764  -8.431   2.031  0.00  0.00    +0.111 A 
ATOM     23  N   UNL     1       2.422  -7.344   1.709  0.00  0.00    -0.255 NA
ENDBRANCH   7  14
TORSDOF 1
