REMARK  Name = ZINC09081304
REMARK  14 active torsions:
REMARK  status: ('A' for Active; 'I' for Inactive)
REMARK    1  A    between atoms: C_1  and  N_2
REMARK    2  A    between atoms: N_2  and  C_3
REMARK    3  A    between atoms: N_2  and  C_4
REMARK    4  A    between atoms: C_7  and  C_10
REMARK    5  A    between atoms: C_10  and  C_12
REMARK    6  A    between atoms: C_10  and  S_28
REMARK    7  A    between atoms: C_12  and  N_13
REMARK    8  A    between atoms: C_14  and  C_16
REMARK    9  A    between atoms: N_18  and  C_19
REMARK   10  A    between atoms: C_19  and  C_20
REMARK   11  A    between atoms: C_20  and  C_21
REMARK   12  A    between atoms: S_28  and  C_31
REMARK   13  A    between atoms: C_34  and  O_37
REMARK   14  A    between atoms: O_37  and  C_38
REMARK                            x       y       z     vdW  Elec       q    Type
REMARK                         _______ _______ _______ _____ _____    ______ ____
ROOT
ATOM      1  C   UNL     1      -0.375   1.324  -8.547  0.00  0.00    +0.183 C 
ENDROOT
BRANCH   1   5
ATOM      2  C   UNL     1       1.626  -0.054 -12.063  0.00  0.00    +0.029 A 
ATOM      3  C   UNL     1       1.482   1.308 -11.833  0.00  0.00    +0.023 A 
ATOM      4  C   UNL     1       0.835   1.750 -10.696  0.00  0.00    +0.007 A 
ATOM      5  C   UNL     1       0.331   0.838  -9.787  0.00  0.00    -0.021 A 
ATOM      6  C   UNL     1       0.477  -0.518 -10.010  0.00  0.00    +0.007 A 
ATOM      7  C   UNL     1       1.118  -0.967 -11.148  0.00  0.00    +0.023 A 
BRANCH   2   9
ATOM      8  C   UNL     1       2.815   0.460 -14.177  0.00  0.00    +0.129 C 
ATOM      9  N   UNL     1       2.280  -0.504 -13.212  0.00  0.00    -0.336 N 
ATOM     10  C   UNL     1       2.431  -1.942 -13.453  0.00  0.00    +0.129 C 
ENDBRANCH   2   9
ENDBRANCH   1   5
BRANCH   1  11
ATOM     11  S   UNL     1      -2.077   0.696  -8.534  0.00  0.00    +0.005 S 
ATOM     12  O   UNL     1      -2.075  -0.723  -8.606  0.00  0.00    -0.169 OA
ATOM     13  O   UNL     1      -2.840   1.371  -7.543  0.00  0.00    -0.169 OA
BRANCH  11  14
ATOM     14  C   UNL     1      -2.765   1.223 -10.068  0.00  0.00    +0.089 A 
ATOM     15  C   UNL     1      -3.411   2.443 -10.152  0.00  0.00    +0.030 A 
ATOM     16  C   UNL     1      -3.946   2.861 -11.355  0.00  0.00    +0.047 A 
ATOM     17  C   UNL     1      -3.846   2.050 -12.476  0.00  0.00    +0.120 A 
ATOM     18  C   UNL     1      -3.203   0.824 -12.388  0.00  0.00    +0.047 A 
ATOM     19  C   UNL     1      -2.664   0.413 -11.184  0.00  0.00    +0.030 A 
BRANCH  17  20
ATOM     20  O   UNL     1      -4.377   2.457 -13.660  0.00  0.00    -0.495 OA
ATOM     21  C   UNL     1      -5.025   3.730 -13.677  0.00  0.00    +0.277 C 
ENDBRANCH  17  20
ENDBRANCH  11  14
ENDBRANCH   1  11
BRANCH   1  22
ATOM     22  C   UNL     1       0.365   0.818  -7.308  0.00  0.00    +0.136 C 
BRANCH  22  23
ATOM     23  N   UNL     1      -0.321   1.290  -6.102  0.00  0.00    -0.305 N 
ATOM     24  C   UNL     1       0.156   0.964  -4.884  0.00  0.00    +0.299 C 
ATOM     25  O   UNL     1       1.153   0.279  -4.786  0.00  0.00    -0.265 OA
ATOM     26  H   UNL     1      -1.117   1.837  -6.181  0.00  0.00    +0.149 HD
BRANCH  24  27
ATOM     27  C   UNL     1      -0.543   1.446  -3.655  0.00  0.00    +0.299 C 
ATOM     28  O   UNL     1      -1.540   2.131  -3.753  0.00  0.00    -0.265 OA
ATOM     29  N   UNL     1      -0.067   1.120  -2.437  0.00  0.00    -0.307 N 
ATOM     30  H   UNL     1       0.730   0.573  -2.358  0.00  0.00    +0.149 HD
BRANCH  29  31
ATOM     31  C   UNL     1      -0.753   1.593  -1.232  0.00  0.00    +0.109 C 
BRANCH  31  32
ATOM     32  C   UNL     1      -0.013   1.086   0.008  0.00  0.00    +0.054 C 
BRANCH  32  33
ATOM     33  C   UNL     1      -0.718   1.572   1.248  0.00  0.00    -0.046 A 
ATOM     34  C   UNL     1      -0.359   2.779   1.818  0.00  0.00    +0.006 A 
ATOM     35  C   UNL     1      -1.009   3.228   2.953  0.00  0.00    +0.038 A 
ATOM     36  C   UNL     1      -2.012   2.463   3.524  0.00  0.00    +0.123 A 
ATOM     37  C   UNL     1      -2.367   1.252   2.955  0.00  0.00    +0.038 A 
ATOM     38  C   UNL     1      -1.719   0.807   1.817  0.00  0.00    +0.006 A 
ATOM     39  F   UNL     1      -2.644   2.899   4.635  0.00  0.00    -0.205 F 
ENDBRANCH  32  33
ENDBRANCH  31  32
ENDBRANCH  29  31
ENDBRANCH  24  27
ENDBRANCH  22  23
ENDBRANCH   1  22
TORSDOF 11
