REMARK  Name = ZINC32943099
REMARK  7 active torsions:
REMARK  status: ('A' for Active; 'I' for Inactive)
REMARK    1  A    between atoms: C_1  and  C_2
REMARK    2  A    between atoms: C_7  and  N_8
REMARK    3  A    between atoms: N_10  and  C_11
REMARK    4  A    between atoms: C_11  and  C_12
REMARK    5  A    between atoms: C_12  and  C_13
REMARK    6  A    between atoms: N_23  and  C_24
REMARK    7  A    between atoms: C_24  and  C_26
REMARK                            x       y       z     vdW  Elec       q    Type
REMARK                         _______ _______ _______ _____ _____    ______ ____
ROOT
ATOM      1  N   UNL     1      -1.275  -0.363   3.346  0.00  0.00    -0.328 N 
ATOM      2  C   UNL     1      -0.450  -0.821   4.332  0.00  0.00    +0.194 C 
ATOM      3  N   UNL     1       0.129   0.058   5.201  0.00  0.00    -0.357 N 
ATOM      4  N   UNL     1      -0.211  -2.119   4.445  0.00  0.00    -0.143 NA
ATOM      5  H   UNL     1       0.788  -0.255   5.840  0.00  0.00    +0.162 HD
ATOM      6  H   UNL     1      -2.189  -0.682   3.291  0.00  0.00    +0.169 HD
ENDROOT
BRANCH   1  13
ATOM      7  C   UNL     1      -3.170   1.302   2.029  0.00  0.00    +0.046 C 
ATOM      8  C   UNL     1      -1.692   1.400   1.748  0.00  0.00    -0.026 A 
ATOM      9  C   UNL     1      -1.222   2.322   0.834  0.00  0.00    +0.025 A 
ATOM     10  C   UNL     1       0.134   2.412   0.575  0.00  0.00    +0.041 A 
ATOM     11  C   UNL     1       1.023   1.580   1.233  0.00  0.00    +0.022 A 
ATOM     12  C   UNL     1       0.558   0.657   2.149  0.00  0.00    +0.027 A 
ATOM     13  C   UNL     1      -0.802   0.568   2.414  0.00  0.00    +0.045 A 
ATOM     14 CL   UNL     1       0.721   3.571  -0.576  0.00  0.00    -0.084 Cl
ENDBRANCH   1  13
BRANCH   4  15
ATOM     15  C   UNL     1      -0.645  -2.965   3.501  0.00  0.00    +0.270 C 
ATOM     16  O   UNL     1      -1.168  -2.533   2.490  0.00  0.00    -0.268 OA
BRANCH  15  17
ATOM     17  C   UNL     1      -0.489  -4.424   3.688  0.00  0.00    +0.043 A 
ATOM     18  C   UNL     1       0.002  -4.926   4.894  0.00  0.00    +0.017 A 
ATOM     19  C   UNL     1       0.147  -6.286   5.067  0.00  0.00    +0.050 A 
ATOM     20  C   UNL     1      -0.194  -7.160   4.043  0.00  0.00    +0.166 A 
ATOM     21  C   UNL     1      -0.685  -6.664   2.835  0.00  0.00    +0.167 A 
ATOM     22  C   UNL     1      -0.838  -5.302   2.660  0.00  0.00    +0.062 A 
ATOM     23  O   UNL     1      -0.941  -7.716   2.004  0.00  0.00    -0.453 OA
ATOM     24  C   UNL     1      -0.219  -8.830   2.562  0.00  0.00    +0.466 C 
ATOM     25  O   UNL     1      -0.143  -8.521   3.966  0.00  0.00    -0.453 OA
ENDBRANCH  15  17
ENDBRANCH   4  15
BRANCH   3  26
ATOM     26  C   UNL     1      -0.246   1.474   5.168  0.00  0.00    +0.120 C 
BRANCH  26  27
ATOM     27  C   UNL     1       0.599   2.248   6.182  0.00  0.00    +0.058 C 
BRANCH  27  28
ATOM     28  C   UNL     1       0.133   3.680   6.235  0.00  0.00    -0.021 A 
ATOM     29  C   UNL     1       0.773   4.747   5.732  0.00  0.00    +0.087 A 
ATOM     30  N   UNL     1       0.047   5.882   5.969  0.00  0.00    -0.360 N 
ATOM     31  H   UNL     1       0.307   6.777   5.700  0.00  0.00    +0.165 HD
ATOM     32  C   UNL     1      -1.109   5.565   6.648  0.00  0.00    +0.047 A 
ATOM     33  C   UNL     1      -1.109   4.171   6.838  0.00  0.00    +0.003 A 
ATOM     34  C   UNL     1      -2.174   3.558   7.501  0.00  0.00    +0.010 A 
ATOM     35  C   UNL     1      -3.214   4.317   7.959  0.00  0.00    +0.001 A 
ATOM     36  C   UNL     1      -3.221   5.692   7.770  0.00  0.00    +0.002 A 
ATOM     37  C   UNL     1      -2.175   6.318   7.127  0.00  0.00    +0.026 A 
ENDBRANCH  27  28
ENDBRANCH  26  27
ENDBRANCH   3  26
TORSDOF 6
