REMARK  Name = ZINC03114922
REMARK  14 active torsions:
REMARK  status: ('A' for Active; 'I' for Inactive)
REMARK    1  A    between atoms: C_1  and  C_2
REMARK    2  A    between atoms: C_2  and  N_47
REMARK    3  A    between atoms: C_3  and  C_4
REMARK    4  A    between atoms: C_3  and  N_47
REMARK    5  A    between atoms: C_5  and  C_7
REMARK    6  A    between atoms: C_5  and  N_11
REMARK    7  A    between atoms: C_5  and  N_47
REMARK    8  A    between atoms: N_14  and  C_15
REMARK    9  A    between atoms: C_15  and  C_17
REMARK   10  A    between atoms: C_15  and  N_49
REMARK   11  A    between atoms: C_21  and  C_22
REMARK   12  A    between atoms: C_21  and  N_49
REMARK   13  A    between atoms: C_23  and  C_24
REMARK   14  A    between atoms: C_23  and  N_49
REMARK                            x       y       z     vdW  Elec       q    Type
REMARK                         _______ _______ _______ _____ _____    ______ ____
ROOT
ATOM      1  N   UNL     1      -4.009  -0.409  -2.270  0.00  0.00    -0.309 N 
ATOM      2  C   UNL     1      -3.381   0.509  -1.509  0.00  0.00    +0.297 C 
ATOM      3  O   UNL     1      -2.589   0.154  -0.657  0.00  0.00    -0.253 OA
ATOM      4  N   UNL     1      -3.630   1.821  -1.693  0.00  0.00    -0.309 N 
ATOM      5  H   UNL     1      -4.641  -0.126  -2.949  0.00  0.00    +0.148 HD
ATOM      6  H   UNL     1      -4.261   2.104  -2.372  0.00  0.00    +0.148 HD
ENDROOT
BRANCH   1   7
ATOM      7  C   UNL     1      -3.739  -1.835  -2.070  0.00  0.00    +0.072 C 
BRANCH   7   8
ATOM      8  C   UNL     1      -5.059  -2.609  -2.063  0.00  0.00    +0.194 C 
ATOM      9 CL   UNL     1      -5.974  -2.250  -3.574  0.00  0.00    -0.084 Cl
ATOM     10 CL   UNL     1      -4.718  -4.377  -1.971  0.00  0.00    -0.084 Cl
ATOM     11 CL   UNL     1      -6.039  -2.111  -0.634  0.00  0.00    -0.084 Cl
ENDBRANCH   7   8
BRANCH   7  12
ATOM     12  N   UNL     1      -2.894  -2.357  -3.166  0.00  0.00    +0.394 N 
ATOM     13  H   UNL     1      -3.146  -3.336  -3.343  0.00  0.00    -0.079 HD
BRANCH  12  15
ATOM     14  C   UNL     1      -2.547  -2.344  -5.586  0.00  0.00    -0.017 C 
ATOM     15  C   UNL     1      -3.123  -1.572  -4.397  0.00  0.00    -0.079 C 
ENDBRANCH  12  15
BRANCH  12  16
ATOM     16  C   UNL     1      -1.469  -2.289  -2.781  0.00  0.00    -0.079 C 
ATOM     17  C   UNL     1      -1.196  -3.350  -1.713  0.00  0.00    -0.017 C 
ENDBRANCH  12  16
ENDBRANCH   7  12
ENDBRANCH   1   7
BRANCH   4  18
ATOM     18  C   UNL     1      -2.947   2.819  -0.866  0.00  0.00    +0.072 C 
BRANCH  18  19
ATOM     19  C   UNL     1      -3.965   3.840  -0.354  0.00  0.00    +0.194 C 
ATOM     20 CL   UNL     1      -4.554   4.843  -1.732  0.00  0.00    -0.084 Cl
ATOM     21 CL   UNL     1      -5.356   2.976   0.399  0.00  0.00    -0.084 Cl
ATOM     22 CL   UNL     1      -3.183   4.905   0.873  0.00  0.00    -0.084 Cl
ENDBRANCH  18  19
BRANCH  18  23
ATOM     23  N   UNL     1      -1.938   3.510  -1.696  0.00  0.00    +0.394 N 
ATOM     24  H   UNL     1      -2.341   3.702  -2.620  0.00  0.00    -0.079 HD
BRANCH  23  25
ATOM     25  C   UNL     1      -0.745   2.653  -1.860  0.00  0.00    -0.079 C 
ATOM     26  C   UNL     1      -1.019   1.642  -2.975  0.00  0.00    -0.017 C 
ENDBRANCH  23  25
BRANCH  23  27
ATOM     27  C   UNL     1      -1.556   4.791  -1.064  0.00  0.00    -0.079 C 
ATOM     28  C   UNL     1      -0.644   5.561  -2.020  0.00  0.00    -0.017 C 
ENDBRANCH  23  27
ENDBRANCH  18  23
ENDBRANCH   4  18
TORSDOF 10
