REMARK  Name = ZINC21052394
REMARK  12 active torsions:
REMARK  status: ('A' for Active; 'I' for Inactive)
REMARK    1  A    between atoms: C_1  and  C_2
REMARK    2  A    between atoms: C_2  and  C_3
REMARK    3  A    between atoms: C_2  and  C_4
REMARK    4  A    between atoms: C_4  and  C_6
REMARK    5  A    between atoms: C_4  and  N_24
REMARK    6  A    between atoms: N_8  and  C_9
REMARK    7  A    between atoms: C_9  and  C_10
REMARK    8  A    between atoms: C_10  and  N_11
REMARK    9  A    between atoms: C_14  and  C_17
REMARK   10  A    between atoms: C_17  and  C_18
REMARK   11  A    between atoms: N_24  and  S_25
REMARK   12  A    between atoms: S_25  and  C_28
REMARK                            x       y       z     vdW  Elec       q    Type
REMARK                         _______ _______ _______ _____ _____    ______ ____
ROOT
ATOM      1  C   UNL     1      -1.411   2.160   0.044  0.00  0.00    +0.232 C 
ATOM      2  O   UNL     1      -2.537   1.711   0.001  0.00  0.00    -0.274 OA
ATOM      3  N   UNL     1      -0.352   1.329  -0.008  0.00  0.00    -0.316 N 
ATOM      4  H   UNL     1       0.668   1.740  -0.053  0.00  0.00    +0.149 HD
ENDROOT
BRANCH   1   5
ATOM      5  C   UNL     1      -1.198   3.648   0.155  0.00  0.00    +0.165 C 
BRANCH   5   7
ATOM      6  C   UNL     1       0.232   3.707  -1.893  0.00  0.00    +0.009 C 
ATOM      7  C   UNL     1      -1.044   4.247  -1.244  0.00  0.00    +0.010 C 
ATOM      8  C   UNL     1      -2.253   3.864  -2.099  0.00  0.00    +0.009 C 
ENDBRANCH   5   7
BRANCH   5   9
ATOM      9  N   UNL     1      -2.349   4.258   0.824  0.00  0.00    -0.177 NA
ATOM     10  H   UNL     1      -3.370   3.969   0.535  0.00  0.00    +0.149 HD
BRANCH   9  11
ATOM     11  S   UNL     1      -2.130   5.553   1.834  0.00  0.00    +0.065 S 
ATOM     12  O   UNL     1      -3.420   5.927   2.299  0.00  0.00    -0.153 OA
ATOM     13  O   UNL     1      -1.073   5.205   2.717  0.00  0.00    -0.153 OA
BRANCH  11  14
ATOM     14  C   UNL     1      -1.543   6.889   0.847  0.00  0.00    +0.142 A 
ATOM     15  C   UNL     1      -2.251   7.842   0.193  0.00  0.00    +0.036 A 
ATOM     16  C   UNL     1      -1.570   8.805  -0.529  0.00  0.00    +0.010 A 
ATOM     17  C   UNL     1      -0.216   8.768  -0.560  0.00  0.00    +0.047 A 
ATOM     18  S   UNL     1       0.139   7.344   0.457  0.00  0.00    -0.077 S 
ENDBRANCH  11  14
ENDBRANCH   9  11
ENDBRANCH   5   9
ENDBRANCH   1   5
BRANCH   3  19
ATOM     19  C   UNL     1      -0.558  -0.121  -0.005  0.00  0.00    +0.086 C 
BRANCH  19  20
ATOM     20  C   UNL     1       0.797  -0.829  -0.077  0.00  0.00    -0.060 C 
BRANCH  20  21
ATOM     21  N   UNL     1       0.590  -2.283  -0.074  0.00  0.00    +0.381 N 
ATOM     22  C   UNL     1       0.023  -2.732   1.204  0.00  0.00    -0.078 C 
ATOM     23  C   UNL     1      -0.313  -4.222   1.120  0.00  0.00    -0.015 C 
ATOM     24  C   UNL     1       0.960  -5.011   0.800  0.00  0.00    -0.010 C 
ATOM     25  C   UNL     1       1.557  -4.491  -0.511  0.00  0.00    -0.015 C 
ATOM     26  C   UNL     1       1.839  -2.993  -0.379  0.00  0.00    -0.078 C 
ATOM     27  H   UNL     1      -0.134  -2.525  -0.865  0.00  0.00    -0.082 HD
BRANCH  24  28
ATOM     28  C   UNL     1       0.621  -6.495   0.655  0.00  0.00    +0.038 C 
BRANCH  28  29
ATOM     29  C   UNL     1       0.149  -7.035   1.980  0.00  0.00    -0.047 A 
ATOM     30  C   UNL     1       1.059  -7.573   2.871  0.00  0.00    +0.003 A 
ATOM     31  C   UNL     1       0.626  -8.064   4.089  0.00  0.00    +0.000 A 
ATOM     32  C   UNL     1      -0.717  -8.025   4.412  0.00  0.00    +0.000 A 
ATOM     33  C   UNL     1      -1.628  -7.492   3.519  0.00  0.00    +0.000 A 
ATOM     34  C   UNL     1      -1.194  -6.997   2.303  0.00  0.00    +0.003 A 
ENDBRANCH  28  29
ENDBRANCH  24  28
ENDBRANCH  20  21
ENDBRANCH  19  20
ENDBRANCH   3  19
TORSDOF 10
