REMARK  Name = ZINC43772686
REMARK  11 active torsions:
REMARK  status: ('A' for Active; 'I' for Inactive)
REMARK    1  A    between atoms: C_1  and  C_2
REMARK    2  A    between atoms: C_2  and  C_4
REMARK    3  A    between atoms: C_2  and  C_12
REMARK    4  A    between atoms: C_5  and  C_6
REMARK    5  A    between atoms: C_6  and  C_8
REMARK    6  A    between atoms: C_6  and  O_11
REMARK    7  A    between atoms: C_16  and  C_36
REMARK    8  A    between atoms: C_17  and  C_35
REMARK    9  A    between atoms: C_22  and  C_23
REMARK   10  A    between atoms: C_26  and  O_34
REMARK   11  A    between atoms: C_29  and  O_33
REMARK                            x       y       z     vdW  Elec       q    Type
REMARK                         _______ _______ _______ _____ _____    ______ ____
ROOT
ATOM      1  C   UNL     1       1.254   0.044   0.703  0.00  0.00    +0.002 C 
ATOM      2  C   UNL     1       1.263  -1.485   0.523  0.00  0.00    +0.005 C 
ATOM      3  C   UNL     1       2.681  -1.966   0.903  0.00  0.00    +0.012 C 
ATOM      4  C   UNL     1       3.558  -0.714   0.703  0.00  0.00    -0.005 C 
ATOM      5  C   UNL     1       2.663   0.434   1.218  0.00  0.00    -0.020 C 
ATOM      6  C   UNL     1       2.606   0.423   2.746  0.00  0.00    +0.008 C 
ATOM      7  C   UNL     1       4.002   0.558   3.348  0.00  0.00    +0.005 C 
ATOM      8  C   UNL     1       4.812  -0.696   2.989  0.00  0.00    +0.031 C 
ATOM      9  C   UNL     1       4.833  -0.809   1.480  0.00  0.00    -0.063 C 
ATOM     10  C   UNL     1       5.989  -0.991   0.843  0.00  0.00    +0.000 C 
ATOM     11  C   UNL     1       3.111   1.789   0.665  0.00  0.00    +0.012 C 
ATOM     12  C   UNL     1       3.867  -0.525  -0.783  0.00  0.00    +0.016 C 
ENDROOT
BRANCH  10  13
ATOM     13  C   UNL     1       7.218  -1.226   1.605  0.00  0.00    +0.004 C 
ATOM     14  C   UNL     1       8.405  -1.293   0.968  0.00  0.00    -0.040 C 
ATOM     15  C   UNL     1       9.697  -1.541   1.721  0.00  0.00    +0.067 C 
ATOM     16  C   UNL     1      10.491  -2.618   0.974  0.00  0.00    +0.122 C 
ATOM     17  C   UNL     1      10.750  -2.168  -0.464  0.00  0.00    +0.067 C 
ATOM     18  C   UNL     1       9.425  -2.087  -1.229  0.00  0.00    +0.147 C 
ATOM     19  C   UNL     1       8.508  -1.133  -0.497  0.00  0.00    -0.023 C 
ATOM     20  C   UNL     1       7.825  -0.191  -1.147  0.00  0.00    +0.015 C 
BRANCH  18  21
ATOM     21  O   UNL     1       9.663  -1.609  -2.554  0.00  0.00    -0.387 OA
ATOM     22  H   UNL     1       8.865  -1.534  -3.095  0.00  0.00    +0.210 HD
ENDBRANCH  18  21
BRANCH  16  23
ATOM     23  O   UNL     1      11.739  -2.832   1.636  0.00  0.00    -0.391 OA
ATOM     24  H   UNL     1      11.653  -3.124   2.554  0.00  0.00    +0.210 HD
ENDBRANCH  16  23
ENDBRANCH  10  13
BRANCH   1  26
ATOM     25  C   UNL     1       0.665   2.208  -0.399  0.00  0.00    +0.012 C 
ATOM     26  C   UNL     1       0.977   0.729  -0.637  0.00  0.00    +0.012 C 
BRANCH  26  27
ATOM     27  C   UNL     1      -0.202   0.068  -1.304  0.00  0.00    -0.025 C 
ATOM     28  C   UNL     1      -0.059  -0.491  -2.480  0.00  0.00    +0.000 C 
BRANCH  28  29
ATOM     29  C   UNL     1      -1.238  -1.152  -3.147  0.00  0.00    +0.140 C 
BRANCH  29  30
ATOM     30  C   UNL     1      -1.438  -0.552  -4.540  0.00  0.00    +0.022 C 
ATOM     31  C   UNL     1      -2.686   0.304  -4.768  0.00  0.00    +0.007 C 
ATOM     32  C   UNL     1      -2.594  -1.094  -5.384  0.00  0.00    +0.007 C 
ENDBRANCH  29  30
BRANCH  29  33
ATOM     33  O   UNL     1      -2.412  -0.937  -2.362  0.00  0.00    -0.387 OA
ATOM     34  H   UNL     1      -2.639  -0.005  -2.241  0.00  0.00    +0.210 HD
ENDBRANCH  29  33
ENDBRANCH  28  29
ENDBRANCH  26  27
ENDBRANCH   1  26
TORSDOF 8
