REMARK  Name = ZINC39887154
REMARK  5 active torsions:
REMARK  status: ('A' for Active; 'I' for Inactive)
REMARK    1  A    between atoms: C_1  and  C_2
REMARK    2  A    between atoms: C_6  and  N_8
REMARK    3  A    between atoms: C_9  and  C_19
REMARK    4  A    between atoms: C_14  and  C_17
REMARK    5  A    between atoms: C_22  and  C_24
REMARK                            x       y       z     vdW  Elec       q    Type
REMARK                         _______ _______ _______ _____ _____    ______ ____
ROOT
ATOM      1  N   UNL     1       0.052  -2.797   2.392  0.00  0.00    -0.267 N 
ATOM      2  C   UNL     1      -0.033  -4.261   2.398  0.00  0.00    +0.234 C 
ATOM      3  N   UNL     1      -1.004  -4.696   3.405  0.00  0.00    -0.286 N 
ATOM      4  C   UNL     1      -1.206  -3.970   4.522  0.00  0.00    +0.258 C 
ATOM      5  O   UNL     1      -1.984  -4.361   5.374  0.00  0.00    -0.269 OA
ATOM      6  C   UNL     1      -0.484  -2.709   4.706  0.00  0.00    +0.142 C 
ATOM      7  C   UNL     1       0.152  -2.134   3.590  0.00  0.00    +0.103 C 
ATOM      8  S   UNL     1       1.039  -0.618   3.721  0.00  0.00    -0.033 SA
ATOM      9  H   UNL     1      -1.506  -5.514   3.265  0.00  0.00    +0.151 HD
ENDROOT
BRANCH   1  15
ATOM     10  C   UNL     1      -2.209   0.337  -0.646  0.00  0.00    +0.044 C 
ATOM     11  C   UNL     1      -1.047  -0.563  -0.313  0.00  0.00    -0.049 A 
ATOM     12  C   UNL     1       0.006  -0.689  -1.200  0.00  0.00    +0.003 A 
ATOM     13  C   UNL     1       1.074  -1.513  -0.898  0.00  0.00    +0.002 A 
ATOM     14  C   UNL     1       1.092  -2.214   0.292  0.00  0.00    +0.023 A 
ATOM     15  C   UNL     1       0.036  -2.089   1.186  0.00  0.00    +0.037 A 
ATOM     16  C   UNL     1      -1.033  -1.256   0.881  0.00  0.00    +0.027 A 
ENDBRANCH   1  15
BRANCH   2  17
ATOM     17  C   UNL     1       1.320  -4.840   2.726  0.00  0.00    +0.144 A 
ATOM     18  C   UNL     1       1.542  -6.010   3.356  0.00  0.00    +0.049 A 
ATOM     19  C   UNL     1       2.939  -6.165   3.457  0.00  0.00    +0.050 A 
ATOM     20  C   UNL     1       3.498  -5.071   2.876  0.00  0.00    +0.135 A 
ATOM     21  O   UNL     1       2.504  -4.278   2.432  0.00  0.00    -0.456 OA
BRANCH  20  22
ATOM     22  C   UNL     1       4.945  -4.800   2.749  0.00  0.00    +0.017 A 
ATOM     23  C   UNL     1       5.875  -5.715   3.245  0.00  0.00    +0.013 A 
ATOM     24  C   UNL     1       7.225  -5.457   3.122  0.00  0.00    +0.021 A 
ATOM     25  C   UNL     1       7.658  -4.293   2.509  0.00  0.00    +0.041 A 
ATOM     26  C   UNL     1       6.740  -3.382   2.015  0.00  0.00    +0.021 A 
ATOM     27  C   UNL     1       5.388  -3.631   2.127  0.00  0.00    +0.013 A 
ATOM     28 CL   UNL     1       9.358  -3.975   2.360  0.00  0.00    -0.084 Cl
ENDBRANCH  20  22
ENDBRANCH   2  17
BRANCH   6  29
ATOM     29  C   UNL     1      -0.422  -2.078   5.990  0.00  0.00    +0.107 C 
ATOM     30  N   UNL     1      -0.373  -1.578   7.009  0.00  0.00    -0.191 NA
ENDBRANCH   6  29
TORSDOF 4
