REMARK  Name = ZINC41584793
REMARK  5 active torsions:
REMARK  status: ('A' for Active; 'I' for Inactive)
REMARK    1  A    between atoms: C_4  and  C_7
REMARK    2  A    between atoms: C_7  and  C_8
REMARK    3  A    between atoms: C_12  and  O_34
REMARK    4  A    between atoms: C_13  and  C_17
REMARK    5  A    between atoms: C_17  and  N_18
REMARK                            x       y       z     vdW  Elec       q    Type
REMARK                         _______ _______ _______ _____ _____    ______ ____
ROOT
ATOM      1  C   UNL     1       4.164  -0.959   1.377  0.00  0.00    +0.096 A 
ATOM      2  C   UNL     1       4.997  -0.071   2.192  0.00  0.00    +0.045 A 
ATOM      3  C   UNL     1       5.591   1.173   1.964  0.00  0.00    +0.017 A 
ATOM      4  C   UNL     1       6.330   1.764   2.947  0.00  0.00    +0.046 A 
ATOM      5  C   UNL     1       6.498   1.136   4.179  0.00  0.00    +0.122 A 
ATOM      6  C   UNL     1       5.918  -0.096   4.423  0.00  0.00    +0.023 A 
ATOM      7  C   UNL     1       5.162  -0.710   3.433  0.00  0.00    +0.172 A 
ATOM      8  O   UNL     1       4.490  -1.878   3.370  0.00  0.00    -0.354 OA
ATOM      9  N   UNL     1       3.884  -2.001   2.099  0.00  0.00    -0.082 NA
ENDROOT
BRANCH   5  10
ATOM     10  O   UNL     1       7.236   1.737   5.148  0.00  0.00    -0.506 OA
ATOM     11  H   UNL     1       6.724   2.313   5.732  0.00  0.00    +0.292 HD
ENDBRANCH   5  10
BRANCH   1  12
ATOM     12  C   UNL     1       3.711  -0.707  -0.038  0.00  0.00    +0.094 C 
BRANCH  12  16
ATOM     13  C   UNL     1      -0.017   1.378   0.010  0.00  0.00    +0.000 A 
ATOM     14  C   UNL     1       1.171   2.086   0.002  0.00  0.00    +0.000 A 
ATOM     15  C   UNL     1       2.377   1.411  -0.013  0.00  0.00    +0.004 A 
ATOM     16  C   UNL     1       2.396   0.029  -0.020  0.00  0.00    -0.041 A 
ATOM     17  C   UNL     1       1.208  -0.679  -0.012  0.00  0.00    +0.004 A 
ATOM     18  C   UNL     1       0.002  -0.004   0.002  0.00  0.00    +0.000 A 
ENDBRANCH  12  16
ENDBRANCH   1  12
BRANCH   6  19
ATOM     19  C   UNL     1       6.105  -0.770   5.758  0.00  0.00    -0.035 C 
BRANCH  19  20
ATOM     20  N   UNL     1       5.028  -0.359   6.669  0.00  0.00    +0.383 N 
ATOM     21  C   UNL     1       5.137  -1.110   7.923  0.00  0.00    -0.073 C 
ATOM     22  C   UNL     1       4.040  -0.713   8.899  0.00  0.00    -0.007 C 
ATOM     23  C   UNL     1       4.070   0.795   9.162  0.00  0.00    +0.011 C 
ATOM     24  C   UNL     1       3.942   1.500   7.807  0.00  0.00    +0.020 C 
ATOM     25  C   UNL     1       5.141   1.082   6.940  0.00  0.00    -0.069 C 
ATOM     26  C   UNL     1       2.681   1.025   7.120  0.00  0.00    +0.023 A 
ATOM     27  C   UNL     1       2.071   1.885   6.262  0.00  0.00    +0.022 A 
ATOM     28  C   UNL     1       0.937   1.487   5.544  0.00  0.00    +0.007 A 
ATOM     29  C   UNL     1       0.471   0.215   5.701  0.00  0.00    +0.070 A 
ATOM     30  C   UNL     1       1.126  -0.648   6.591  0.00  0.00    +0.251 A 
ATOM     31  O   UNL     1       0.756  -1.806   6.692  0.00  0.00    -0.268 OA
ATOM     32  N   UNL     1       2.168  -0.208   7.339  0.00  0.00    -0.312 N 
ATOM     33  C   UNL     1       2.662  -1.097   8.386  0.00  0.00    +0.126 C 
ATOM     34  H   UNL     1       4.135  -0.550   6.241  0.00  0.00    -0.081 HD
ENDBRANCH  19  20
ENDBRANCH   6  19
TORSDOF 5
