REMARK  Name = ZINC14168939
REMARK  10 active torsions:
REMARK  status: ('A' for Active; 'I' for Inactive)
REMARK    1  A    between atoms: C_1  and  C_2
REMARK    2  A    between atoms: C_2  and  C_4
REMARK    3  A    between atoms: C_2  and  N_14
REMARK    4  A    between atoms: C_7  and  S_10
REMARK    5  A    between atoms: S_10  and  N_13
REMARK    6  A    between atoms: C_15  and  C_17
REMARK    7  A    between atoms: C_17  and  S_18
REMARK    8  A    between atoms: S_18  and  C_19
REMARK    9  A    between atoms: C_22  and  C_30
REMARK   10  A    between atoms: N_23  and  C_24
REMARK                            x       y       z     vdW  Elec       q    Type
REMARK                         _______ _______ _______ _____ _____    ______ ____
ROOT
ATOM      1  N   UNL     1      -3.521   4.479   4.784  0.00  0.00    -0.308 N 
ATOM      2  C   UNL     1      -4.600   4.939   5.448  0.00  0.00    +0.224 C 
ATOM      3  O   UNL     1      -5.248   4.189   6.146  0.00  0.00    -0.275 OA
ATOM      4  H   UNL     1      -2.934   5.160   4.150  0.00  0.00    +0.149 HD
ENDROOT
BRANCH   1   6
ATOM      5  C   UNL     1      -2.260   2.890   6.150  0.00  0.00    +0.033 C 
ATOM      6  C   UNL     1      -3.131   3.072   4.906  0.00  0.00    +0.100 C 
BRANCH   6   7
ATOM      7  C   UNL     1      -2.353   2.659   3.683  0.00  0.00    -0.027 A 
ATOM      8  C   UNL     1      -2.559   1.412   3.121  0.00  0.00    +0.007 A 
ATOM      9  C   UNL     1      -1.846   1.033   2.000  0.00  0.00    +0.029 A 
ATOM     10  C   UNL     1      -0.927   1.900   1.439  0.00  0.00    +0.105 A 
ATOM     11  C   UNL     1      -0.717   3.145   2.004  0.00  0.00    +0.029 A 
ATOM     12  C   UNL     1      -1.434   3.526   3.123  0.00  0.00    +0.007 A 
BRANCH  10  13
ATOM     13  S   UNL     1      -0.017   1.417   0.010  0.00  0.00    +0.056 S 
ATOM     14  O   UNL     1       0.002  -0.004   0.002  0.00  0.00    -0.153 OA
ATOM     15  O   UNL     1       1.172   2.195   0.003  0.00  0.00    -0.153 OA
BRANCH  13  16
ATOM     16  N   UNL     1      -0.897   1.885  -1.312  0.00  0.00    -0.204 NA
ATOM     17  H   UNL     1      -0.361   1.601  -2.229  0.00  0.00    +0.144 HD
ATOM     18  H   UNL     1      -1.036   2.977  -1.292  0.00  0.00    +0.144 HD
ENDBRANCH  13  16
ENDBRANCH  10  13
ENDBRANCH   6   7
ENDBRANCH   1   6
BRANCH   2  19
ATOM     19  C   UNL     1      -5.001   6.386   5.322  0.00  0.00    +0.173 C 
BRANCH  19  20
ATOM     20  S   UNL     1      -6.477   6.692   6.325  0.00  0.00    -0.077 S 
BRANCH  20  21
ATOM     21  C   UNL     1      -6.716   8.408   6.001  0.00  0.00    +0.193 A 
ATOM     22  N   UNL     1      -5.968   9.167   5.233  0.00  0.00    -0.122 NA
ATOM     23  N   UNL     1      -6.427  10.367   5.216  0.00  0.00    -0.125 NA
ATOM     24  C   UNL     1      -7.494  10.451   5.981  0.00  0.00    +0.201 A 
ATOM     25  N   UNL     1      -7.711   9.197   6.507  0.00  0.00    -0.297 N 
BRANCH  25  26
ATOM     26  C   UNL     1      -8.784   8.793   7.419  0.00  0.00    +0.091 C 
ATOM     27  C   UNL     1      -8.177   8.264   8.720  0.00  0.00    +0.025 C 
ATOM     28  C   UNL     1      -9.298   7.842   9.672  0.00  0.00    +0.002 C 
ATOM     29  C   UNL     1     -10.136   6.743   9.017  0.00  0.00    +0.000 C 
ATOM     30  C   UNL     1     -10.744   7.272   7.716  0.00  0.00    +0.002 C 
ATOM     31  C   UNL     1      -9.623   7.694   6.764  0.00  0.00    +0.025 C 
ENDBRANCH  25  26
BRANCH  24  32
ATOM     32  C   UNL     1      -8.301  11.656   6.228  0.00  0.00    +0.172 A 
ATOM     33  C   UNL     1      -7.933  12.937   5.946  0.00  0.00    +0.053 A 
ATOM     34  C   UNL     1      -9.003  13.763   6.344  0.00  0.00    +0.042 A 
ATOM     35  C   UNL     1      -9.960  12.956   6.843  0.00  0.00    +0.196 A 
ATOM     36  O   UNL     1      -9.536  11.684   6.766  0.00  0.00    -0.460 OA
ENDBRANCH  24  32
ENDBRANCH  20  21
ENDBRANCH  19  20
ENDBRANCH   2  19
TORSDOF 9
