REMARK  Name = ZINC13499076
REMARK  13 active torsions:
REMARK  status: ('A' for Active; 'I' for Inactive)
REMARK    1  A    between atoms: C_1  and  C_2
REMARK    2  A    between atoms: C_4  and  C_34
REMARK    3  A    between atoms: C_7  and  C_14
REMARK    4  A    between atoms: C_14  and  N_69
REMARK    5  A    between atoms: C_15  and  C_16
REMARK    6  A    between atoms: C_15  and  N_69
REMARK    7  A    between atoms: C_16  and  O_17
REMARK    8  A    between atoms: C_18  and  C_20
REMARK    9  A    between atoms: C_18  and  C_31
REMARK   10  A    between atoms: C_18  and  N_69
REMARK   11  A    between atoms: N_24  and  C_25
REMARK   12  A    between atoms: C_31  and  C_32
REMARK   13  A    between atoms: C_31  and  C_33
REMARK                            x       y       z     vdW  Elec       q    Type
REMARK                         _______ _______ _______ _____ _____    ______ ____
ROOT
ATOM      1  N   UNL     1      -0.845   1.179   0.595  0.00  0.00    +0.391 N 
ATOM      2  H   UNL     1      -1.863   1.061   0.544  0.00  0.00    -0.080 HD
ENDROOT
BRANCH   1   3
ATOM      3  C   UNL     1      -0.297   0.212   1.569  0.00  0.00    -0.036 C 
BRANCH   3  10
ATOM      4  C   UNL     1      -5.385  -0.494   7.672  0.00  0.00    +0.044 C 
ATOM      5  C   UNL     1      -4.541  -0.539   6.424  0.00  0.00    -0.048 A 
ATOM      6  C   UNL     1      -4.815  -1.483   5.443  0.00  0.00    +0.007 A 
ATOM      7  C   UNL     1      -4.062  -1.540   4.304  0.00  0.00    -0.041 A 
ATOM      8  C   UNL     1      -3.006  -0.641   4.125  0.00  0.00    +0.002 A 
ATOM      9  C   UNL     1      -2.179  -0.676   2.918  0.00  0.00    +0.017 A 
ATOM     10  C   UNL     1      -1.168   0.220   2.800  0.00  0.00    +0.001 A 
ATOM     11  C   UNL     1      -0.924   1.156   3.827  0.00  0.00    +0.251 A 
ATOM     12  O   UNL     1      -0.007   1.950   3.703  0.00  0.00    -0.268 OA
ATOM     13  N   UNL     1      -1.681   1.199   4.937  0.00  0.00    -0.322 N 
ATOM     14  H   UNL     1      -1.489   1.858   5.622  0.00  0.00    +0.169 HD
ATOM     15  C   UNL     1      -2.724   0.316   5.118  0.00  0.00    +0.050 A 
ATOM     16  C   UNL     1      -3.505   0.356   6.269  0.00  0.00    +0.029 A 
ATOM     17  C   UNL     1      -4.370  -2.568   3.246  0.00  0.00    +0.044 C 
ENDBRANCH   3  10
ENDBRANCH   1   3
BRANCH   1  18
ATOM     18  C   UNL     1      -0.541   2.559   1.028  0.00  0.00    -0.049 C 
BRANCH  18  19
ATOM     19  C   UNL     1       0.971   2.780   1.098  0.00  0.00    +0.137 C 
BRANCH  19  20
ATOM     20  O   UNL     1       1.518   2.752  -0.221  0.00  0.00    -0.397 OA
ATOM     21  H   UNL     1       2.483   2.809  -0.248  0.00  0.00    +0.209 HD
ENDBRANCH  19  20
ENDBRANCH  18  19
ENDBRANCH   1  18
BRANCH   1  22
ATOM     22  C   UNL     1      -0.266   0.931  -0.743  0.00  0.00    +0.006 C 
BRANCH  22  23
ATOM     23  C   UNL     1      -0.711  -0.426  -1.222  0.00  0.00    +0.139 A 
ATOM     24  N   UNL     1      -1.927  -0.912  -1.176  0.00  0.00    -0.115 NA
ATOM     25  N   UNL     1      -1.902  -2.097  -1.682  0.00  0.00    -0.023 NA
ATOM     26  N   UNL     1      -0.699  -2.382  -2.043  0.00  0.00    -0.044 NA
ATOM     27  N   UNL     1       0.064  -1.377  -1.776  0.00  0.00    -0.228 N 
BRANCH  27  28
ATOM     28  C   UNL     1       1.505  -1.288  -2.027  0.00  0.00    +0.111 C 
ATOM     29  C   UNL     1       1.772  -1.449  -3.526  0.00  0.00    +0.027 C 
ATOM     30  C   UNL     1       3.276  -1.356  -3.789  0.00  0.00    +0.002 C 
ATOM     31  C   UNL     1       3.998  -2.464  -3.020  0.00  0.00    +0.000 C 
ATOM     32  C   UNL     1       3.731  -2.303  -1.522  0.00  0.00    +0.002 C 
ATOM     33  C   UNL     1       2.227  -2.397  -1.259  0.00  0.00    +0.027 C 
ENDBRANCH  27  28
ENDBRANCH  22  23
BRANCH  22  34
ATOM     34  C   UNL     1      -0.768   2.004  -1.710  0.00  0.00    -0.024 C 
ATOM     35  C   UNL     1      -0.141   1.783  -3.088  0.00  0.00    +0.006 C 
ATOM     36  C   UNL     1      -2.292   1.915  -1.824  0.00  0.00    +0.006 C 
ENDBRANCH  22  34
ENDBRANCH   1  22
TORSDOF 9
