REMARK  Name = ZINC21071657
REMARK  13 active torsions:
REMARK  status: ('A' for Active; 'I' for Inactive)
REMARK    1  A    between atoms: C_1  and  C_2
REMARK    2  A    between atoms: C_2  and  N_3
REMARK    3  A    between atoms: N_3  and  C_4
REMARK    4  A    between atoms: N_3  and  C_6
REMARK    5  A    between atoms: C_4  and  C_5
REMARK    6  A    between atoms: C_6  and  C_8
REMARK    7  A    between atoms: C_6  and  C_22
REMARK    8  A    between atoms: C_8  and  N_9
REMARK    9  A    between atoms: C_10  and  C_12
REMARK   10  A    between atoms: C_12  and  N_13
REMARK   11  A    between atoms: C_14  and  C_16
REMARK   12  A    between atoms: C_26  and  O_28
REMARK   13  A    between atoms: O_28  and  C_29
REMARK                            x       y       z     vdW  Elec       q    Type
REMARK                         _______ _______ _______ _____ _____    ______ ____
ROOT
ATOM      1  C   UNL     1      -2.079   2.844   0.190  0.00  0.00    +0.093 C 
ENDROOT
BRANCH   1   2
ATOM      2  N   UNL     1      -1.426   4.136  -0.032  0.00  0.00    -0.315 N 
ATOM      3  C   UNL     1      -1.573   4.772  -1.211  0.00  0.00    +0.230 C 
ATOM      4  O   UNL     1      -2.246   4.275  -2.088  0.00  0.00    -0.274 OA
ATOM      5  H   UNL     1      -0.816   4.588   0.764  0.00  0.00    +0.149 HD
BRANCH   3   6
ATOM      6  C   UNL     1      -0.902   6.102  -1.439  0.00  0.00    +0.200 C 
BRANCH   6   7
ATOM      7  N   UNL     1      -1.214   6.582  -2.787  0.00  0.00    -0.300 N 
ATOM      8  C   UNL     1      -0.718   7.760  -3.215  0.00  0.00    +0.280 C 
ATOM      9  O   UNL     1      -0.010   8.425  -2.481  0.00  0.00    -0.267 OA
ATOM     10  H   UNL     1      -1.853   5.981  -3.451  0.00  0.00    +0.150 HD
BRANCH   8  11
ATOM     11  C   UNL     1      -1.030   8.240  -4.564  0.00  0.00    +0.191 A 
ATOM     12  C   UNL     1      -0.595   9.409  -5.120  0.00  0.00    +0.056 A 
ATOM     13  C   UNL     1      -1.130   9.464  -6.416  0.00  0.00    +0.058 A 
ATOM     14  C   UNL     1      -1.861   8.338  -6.592  0.00  0.00    +0.171 A 
ATOM     15  O   UNL     1      -1.792   7.601  -5.476  0.00  0.00    -0.444 OA
ATOM     16 BR   UNL     1      -2.813   7.879  -8.160  0.00  0.00    -0.008 Br
ENDBRANCH   8  11
ENDBRANCH   6   7
ENDBRANCH   3   6
ENDBRANCH   1   2
BRANCH   1  17
ATOM     17  C   UNL     1      -1.753   2.343   1.599  0.00  0.00    -0.020 C 
BRANCH  17  18
ATOM     18  C   UNL     1      -2.252   0.930   1.757  0.00  0.00    -0.056 A 
ATOM     19  C   UNL     1      -1.699  -0.087   1.001  0.00  0.00    +0.002 A 
ATOM     20  C   UNL     1      -2.151  -1.386   1.148  0.00  0.00    +0.004 A 
ATOM     21  C   UNL     1      -3.165  -1.668   2.043  0.00  0.00    +0.045 A 
ATOM     22  C   UNL     1      -3.725  -0.649   2.799  0.00  0.00    +0.120 A 
ATOM     23  C   UNL     1      -3.266   0.652   2.653  0.00  0.00    +0.047 A 
BRANCH  22  24
ATOM     24  O   UNL     1      -4.723  -0.924   3.680  0.00  0.00    -0.495 OA
ATOM     25  C   UNL     1      -5.145  -2.286   3.777  0.00  0.00    +0.277 C 
ENDBRANCH  22  24
ENDBRANCH  17  18
BRANCH  17  26
ATOM     26  N   UNL     1      -0.299   2.374   1.805  0.00  0.00    +0.385 N 
ATOM     27  H   UNL     1       0.069   3.355   1.469  0.00  0.00    -0.081 HD
BRANCH  26  29
ATOM     28  C   UNL     1       0.156   1.634  -0.484  0.00  0.00    -0.017 C 
ATOM     29  C   UNL     1       0.370   1.342   1.002  0.00  0.00    -0.081 C 
ENDBRANCH  26  29
BRANCH  26  30
ATOM     30  C   UNL     1       0.034   2.231   3.229  0.00  0.00    -0.081 C 
ATOM     31  C   UNL     1      -0.470   3.456   3.996  0.00  0.00    -0.017 C 
ENDBRANCH  26  30
ENDBRANCH  17  26
ENDBRANCH   1  17
TORSDOF 10
