REMARK  Name = ZINC02905350
REMARK  10 active torsions:
REMARK  status: ('A' for Active; 'I' for Inactive)
REMARK    1  A    between atoms: C_4  and  C_7
REMARK    2  A    between atoms: C_8  and  C_9
REMARK    3  A    between atoms: N_11  and  C_12
REMARK    4  A    between atoms: C_12  and  C_14
REMARK    5  A    between atoms: C_12  and  N_18
REMARK    6  A    between atoms: N_18  and  C_19
REMARK    7  A    between atoms: C_19  and  N_21
REMARK    8  A    between atoms: N_21  and  C_22
REMARK    9  A    between atoms: C_25  and  S_28
REMARK   10  A    between atoms: S_28  and  N_31
REMARK                            x       y       z     vdW  Elec       q    Type
REMARK                         _______ _______ _______ _____ _____    ______ ____
ROOT
ATOM      1  N   UNL     1      -2.255   1.737   1.234  0.00  0.00    -0.305 N 
ATOM      2  H   UNL     1      -2.404   0.843   1.580  0.00  0.00    +0.150 HD
ENDROOT
BRANCH   1   3
ATOM      3  C   UNL     1      -2.228   2.789   2.075  0.00  0.00    +0.136 C 
ATOM      4  S   UNL     1      -1.966   4.367   1.465  0.00  0.00    -0.019 S 
BRANCH   3   5
ATOM      5  N   UNL     1      -2.408   2.600   3.397  0.00  0.00    -0.297 N 
ATOM      6  H   UNL     1      -2.617   1.715   3.736  0.00  0.00    +0.154 HD
BRANCH   5   7
ATOM      7  C   UNL     1      -2.292   3.678   4.281  0.00  0.00    +0.033 A 
ATOM      8  C   UNL     1      -1.573   3.537   5.461  0.00  0.00    +0.025 A 
ATOM      9  C   UNL     1      -1.456   4.606   6.328  0.00  0.00    +0.030 A 
ATOM     10  C   UNL     1      -2.064   5.811   6.029  0.00  0.00    +0.105 A 
ATOM     11  C   UNL     1      -2.785   5.953   4.857  0.00  0.00    +0.030 A 
ATOM     12  C   UNL     1      -2.901   4.890   3.983  0.00  0.00    +0.025 A 
BRANCH  10  13
ATOM     13  S   UNL     1      -1.918   7.170   7.141  0.00  0.00    +0.056 S 
ATOM     14  O   UNL     1      -0.738   6.947   7.901  0.00  0.00    -0.153 OA
ATOM     15  O   UNL     1      -2.118   8.348   6.372  0.00  0.00    -0.153 OA
BRANCH  13  16
ATOM     16  N   UNL     1      -3.188   7.074   8.200  0.00  0.00    -0.204 NA
ATOM     17  H   UNL     1      -3.832   6.353   8.121  0.00  0.00    +0.144 HD
ATOM     18  H   UNL     1      -3.288   7.739   8.899  0.00  0.00    +0.144 HD
ENDBRANCH  13  16
ENDBRANCH  10  13
ENDBRANCH   5   7
ENDBRANCH   3   5
ENDBRANCH   1   3
BRANCH   1  19
ATOM     19  C   UNL     1      -2.060   1.943  -0.203  0.00  0.00    +0.211 C 
BRANCH  19  22
ATOM     20  C   UNL     1       0.243   2.412  -0.846  0.00  0.00    +0.238 C 
ATOM     21  O   UNL     1      -0.007   3.600  -0.765  0.00  0.00    -0.271 OA
ATOM     22  N   UNL     1      -0.715   1.502  -0.582  0.00  0.00    -0.290 N 
ATOM     23  H   UNL     1      -0.515   0.555  -0.647  0.00  0.00    +0.151 HD
BRANCH  20  25
ATOM     24  C   UNL     1       2.544   2.882  -1.494  0.00  0.00    +0.013 C 
ATOM     25  C   UNL     1       1.586   1.972  -1.230  0.00  0.00    +0.068 C 
BRANCH  24  29
ATOM     26  C   UNL     1       6.434   1.605  -2.605  0.00  0.00    +0.000 A 
ATOM     27  C   UNL     1       6.153   2.957  -2.515  0.00  0.00    +0.001 A 
ATOM     28  C   UNL     1       4.891   3.380  -2.155  0.00  0.00    +0.008 A 
ATOM     29  C   UNL     1       3.894   2.439  -1.880  0.00  0.00    -0.025 A 
ATOM     30  C   UNL     1       4.187   1.075  -1.969  0.00  0.00    +0.008 A 
ATOM     31  C   UNL     1       5.453   0.667  -2.336  0.00  0.00    +0.001 A 
ENDBRANCH  24  29
ENDBRANCH  20  25
ENDBRANCH  19  22
BRANCH  19  32
ATOM     32  C   UNL     1      -3.100   1.133  -0.981  0.00  0.00    +0.225 C 
ATOM     33 CL   UNL     1      -2.910  -0.617  -0.594  0.00  0.00    -0.080 Cl
ATOM     34 CL   UNL     1      -4.755   1.676  -0.515  0.00  0.00    -0.080 Cl
ATOM     35 CL   UNL     1      -2.860   1.387  -2.749  0.00  0.00    -0.080 Cl
ENDBRANCH  19  32
ENDBRANCH   1  19
TORSDOF 10
