REMARK  Name = ZINC34787462
REMARK  4 active torsions:
REMARK  status: ('A' for Active; 'I' for Inactive)
REMARK    1  A    between atoms: C_6  and  C_7
REMARK    2  A    between atoms: N_16  and  C_17
REMARK    3  A    between atoms: C_17  and  C_18
REMARK    4  A    between atoms: C_26  and  C_28
REMARK                            x       y       z     vdW  Elec       q    Type
REMARK                         _______ _______ _______ _____ _____    ______ ____
ROOT
ATOM      1  C   UNL     1       0.580  -2.911   3.421  0.00  0.00    +0.199 C 
ATOM      2  O   UNL     1       0.564  -4.036   2.967  0.00  0.00    -0.278 OA
ATOM      3  N   UNL     1       0.474  -2.719   4.750  0.00  0.00    -0.300 N 
ATOM      4  C   UNL     1       0.485  -1.361   5.313  0.00  0.00    +0.126 C 
ATOM      5  C   UNL     1      -0.779  -1.172   6.161  0.00  0.00    +0.127 C 
ATOM      6  N   UNL     1      -0.908  -2.317   7.074  0.00  0.00    -0.295 N 
ATOM      7  C   UNL     1      -0.919  -3.674   6.511  0.00  0.00    +0.127 C 
ATOM      8  C   UNL     1       0.340  -3.863   5.663  0.00  0.00    +0.126 C 
ATOM      9  C   UNL     1      -1.014  -2.124   8.404  0.00  0.00    +0.247 C 
ATOM     10  O   UNL     1      -1.189  -3.074   9.143  0.00  0.00    -0.270 OA
ENDROOT
BRANCH   9  11
ATOM     11  C   UNL     1      -0.917  -0.762   8.963  0.00  0.00    +0.041 A 
ATOM     12  C   UNL     1      -1.710   0.265   8.445  0.00  0.00    +0.017 A 
ATOM     13  C   UNL     1      -1.619   1.536   8.969  0.00  0.00    +0.050 A 
ATOM     14  C   UNL     1      -0.740   1.802  10.010  0.00  0.00    +0.166 A 
ATOM     15  C   UNL     1       0.056   0.781  10.531  0.00  0.00    +0.167 A 
ATOM     16  C   UNL     1      -0.035  -0.497  10.014  0.00  0.00    +0.062 A 
ATOM     17  O   UNL     1       0.824   1.296  11.535  0.00  0.00    -0.453 OA
ATOM     18  C   UNL     1       0.789   2.724  11.351  0.00  0.00    +0.466 C 
ATOM     19  O   UNL     1      -0.469   2.953  10.690  0.00  0.00    -0.453 OA
ENDBRANCH   9  11
BRANCH   1  20
ATOM     20  C   UNL     1       0.717  -1.728   2.497  0.00  0.00    +0.020 C 
BRANCH  20  29
ATOM     21  C   UNL     1       1.068  -1.054   0.227  0.00  0.00    -0.005 C 
ATOM     22  C   UNL     1       1.065  -1.536  -1.221  0.00  0.00    -0.047 A 
ATOM     23  C   UNL     1       1.640  -0.835  -2.277  0.00  0.00    +0.010 A 
ATOM     24  C   UNL     1       1.592  -1.341  -3.532  0.00  0.00    +0.045 A 
ATOM     25  S   UNL     1       0.708  -2.873  -3.278  0.00  0.00    -0.101 S 
ATOM     26  C   UNL     1       0.470  -2.723  -1.531  0.00  0.00    -0.010 A 
ATOM     27  C   UNL     1      -0.215  -3.647  -0.578  0.00  0.00    +0.024 C 
ATOM     28  C   UNL     1      -0.435  -2.878   0.737  0.00  0.00    -0.072 C 
ATOM     29  N   UNL     1       0.814  -2.200   1.109  0.00  0.00    +0.393 N 
ATOM     30  H   UNL     1       1.580  -2.852   1.034  0.00  0.00    -0.080 HD
BRANCH  21  36
ATOM     31  C   UNL     1       2.567   0.923   0.554  0.00  0.00    +0.004 A 
ATOM     32  C   UNL     1       3.797   1.478   0.856  0.00  0.00    +0.020 A 
ATOM     33  C   UNL     1       4.869   0.658   1.159  0.00  0.00    +0.041 A 
ATOM     34  C   UNL     1       4.710  -0.717   1.160  0.00  0.00    +0.020 A 
ATOM     35  C   UNL     1       3.480  -1.270   0.858  0.00  0.00    +0.004 A 
ATOM     36  C   UNL     1       2.409  -0.450   0.555  0.00  0.00    -0.057 A 
ATOM     37 CL   UNL     1       6.414   1.354   1.537  0.00  0.00    -0.084 Cl
ENDBRANCH  21  36
ENDBRANCH  20  29
ENDBRANCH   1  20
TORSDOF 4
