REMARK  Name = ZINC34734681
REMARK  8 active torsions:
REMARK  status: ('A' for Active; 'I' for Inactive)
REMARK    1  A    between atoms: C_1  and  C_2
REMARK    2  A    between atoms: C_5  and  N_8
REMARK    3  A    between atoms: C_9  and  C_11
REMARK    4  A    between atoms: C_11  and  N_12
REMARK    5  A    between atoms: N_25  and  C_28
REMARK    6  A    between atoms: C_28  and  C_29
REMARK    7  A    between atoms: C_33  and  C_35
REMARK    8  A    between atoms: C_33  and  C_36
REMARK                            x       y       z     vdW  Elec       q    Type
REMARK                         _______ _______ _______ _____ _____    ______ ____
ROOT
ATOM      1  N   UNL     1       0.419  -6.843   2.496  0.00  0.00    -0.271 N 
ATOM      2  C   UNL     1       1.624  -6.862   3.096  0.00  0.00    +0.264 A 
ATOM      3  O   UNL     1       2.615  -6.468   2.504  0.00  0.00    -0.267 OA
ATOM      4  C   UNL     1       1.726  -7.348   4.438  0.00  0.00    +0.076 A 
ATOM      5  C   UNL     1       2.918  -7.460   5.276  0.00  0.00    -0.018 A 
ATOM      6  C   UNL     1       2.750  -7.957   6.521  0.00  0.00    +0.021 A 
ATOM      7  S   UNL     1       1.018  -8.300   6.649  0.00  0.00    -0.071 S 
ATOM      8  C   UNL     1       0.523  -7.776   5.026  0.00  0.00    +0.118 A 
ATOM      9  N   UNL     1      -0.635  -7.731   4.377  0.00  0.00    -0.208 NA
ATOM     10  C   UNL     1      -0.701  -7.273   3.144  0.00  0.00    +0.202 A 
ATOM     11  N   UNL     1      -1.913  -7.233   2.501  0.00  0.00    -0.304 N 
ATOM     12  C   UNL     1      -2.339  -8.333   1.621  0.00  0.00    +0.089 C 
ATOM     13  C   UNL     1      -3.752  -8.762   2.030  0.00  0.00    -0.059 C 
ATOM     14  N   UNL     1      -4.641  -7.594   2.013  0.00  0.00    +0.384 N 
ATOM     15  C   UNL     1      -4.213  -6.625   3.030  0.00  0.00    -0.059 C 
ATOM     16  C   UNL     1      -2.825  -6.093   2.675  0.00  0.00    +0.089 C 
ATOM     17  C   UNL     1       3.823  -8.161   7.545  0.00  0.00    +0.203 C 
ATOM     18  O   UNL     1       5.093  -8.044   6.884  0.00  0.00    -0.368 OA
ATOM     19  C   UNL     1       5.197  -6.886   6.052  0.00  0.00    +0.068 C 
ATOM     20  C   UNL     1       4.312  -7.046   4.812  0.00  0.00    +0.071 C 
ATOM     21  C   UNL     1       4.749  -5.653   6.839  0.00  0.00    +0.041 C 
ATOM     22  C   UNL     1       6.653  -6.704   5.616  0.00  0.00    +0.041 C 
ATOM     23  H   UNL     1      -4.608  -7.160   1.103  0.00  0.00    -0.081 HD
ENDROOT
BRANCH   1  24
ATOM     24  C   UNL     1       0.308  -6.346   1.123  0.00  0.00    +0.224 C 
BRANCH  24  26
ATOM     25  N   UNL     1       0.056  -4.165  -0.017  0.00  0.00    -0.284 N 
ATOM     26  C   UNL     1       0.173  -4.846   1.141  0.00  0.00    +0.237 C 
ATOM     27  O   UNL     1       0.170  -4.250   2.197  0.00  0.00    -0.274 OA
ATOM     28  H   UNL     1      -0.027  -4.646  -0.856  0.00  0.00    +0.155 HD
BRANCH  25  33
ATOM     29  C   UNL     1       0.046   1.508   0.014  0.00  0.00    +0.044 C 
ATOM     30  C   UNL     1       0.048   0.001   0.006  0.00  0.00    -0.050 A 
ATOM     31  C   UNL     1       0.678  -0.694   1.022  0.00  0.00    +0.005 A 
ATOM     32  C   UNL     1       0.683  -2.075   1.018  0.00  0.00    +0.023 A 
ATOM     33  C   UNL     1       0.053  -2.766  -0.009  0.00  0.00    +0.033 A 
ATOM     34  C   UNL     1      -0.579  -2.066  -1.028  0.00  0.00    +0.023 A 
ATOM     35  C   UNL     1      -0.584  -0.685  -1.015  0.00  0.00    +0.005 A 
ENDBRANCH  25  33
ENDBRANCH  24  26
ENDBRANCH   1  24
BRANCH  14  36
ATOM     36  C   UNL     1      -6.017  -8.023   2.297  0.00  0.00    -0.052 C 
BRANCH  36  37
ATOM     37  C   UNL     1      -6.949  -6.847   2.160  0.00  0.00    -0.053 C 
ATOM     38  C   UNL     1      -7.981  -6.919   1.356  0.00  0.00    +0.002 C 
ENDBRANCH  36  37
ENDBRANCH  14  36
TORSDOF 5
