REMARK  Name = ZINC42007885
REMARK  7 active torsions:
REMARK  status: ('A' for Active; 'I' for Inactive)
REMARK    1  A    between atoms: C_1  and  C_2
REMARK    2  A    between atoms: C_5  and  C_11
REMARK    3  A    between atoms: C_5  and  S_14
REMARK    4  A    between atoms: C_7  and  C_9
REMARK    5  A    between atoms: C_7  and  C_10
REMARK    6  A    between atoms: S_14  and  C_15
REMARK    7  A    between atoms: C_20  and  N_21
REMARK                            x       y       z     vdW  Elec       q    Type
REMARK                         _______ _______ _______ _____ _____    ______ ____
ROOT
ATOM      1  C   UNL     1       0.549   1.575   0.635  0.00  0.00    +0.007 C 
ATOM      2  C   UNL     1       0.366   0.070   0.433  0.00  0.00    -0.012 C 
ATOM      3  C   UNL     1       0.980  -0.344  -0.906  0.00  0.00    +0.032 C 
ATOM      4  C   UNL     1       0.796  -1.850  -1.108  0.00  0.00    +0.123 C 
ATOM      5  C   UNL     1       1.492  -2.604   0.027  0.00  0.00    +0.035 C 
ATOM      6  C   UNL     1       0.879  -2.191   1.366  0.00  0.00    -0.033 C 
ATOM      7  C   UNL     1       1.062  -0.685   1.568  0.00  0.00    +0.009 C 
ATOM      8  C   UNL     1      -0.614  -2.528   1.369  0.00  0.00    +0.011 C 
ATOM      9  C   UNL     1       1.574  -2.946   2.501  0.00  0.00    +0.011 C 
ENDROOT
BRANCH   4  10
ATOM     10  C   UNL     1      -0.673  -2.182  -1.105  0.00  0.00    +0.372 C 
ATOM     11  O   UNL     1      -1.498  -1.298  -0.941  0.00  0.00    -0.245 OA
ATOM     12  O   UNL     1      -1.038  -3.334  -1.266  0.00  0.00    -0.245 OA
ENDBRANCH   4  10
BRANCH   4  13
ATOM     13  S   UNL     1       1.524  -2.340  -2.695  0.00  0.00    -0.105 S 
BRANCH  13  14
ATOM     14  C   UNL     1       0.652  -1.371  -3.881  0.00  0.00    +0.030 A 
ATOM     15  C   UNL     1      -0.419  -0.585  -3.484  0.00  0.00    +0.019 A 
ATOM     16  C   UNL     1      -1.102   0.175  -4.415  0.00  0.00    +0.039 A 
ATOM     17  C   UNL     1      -0.719   0.155  -5.746  0.00  0.00    +0.125 A 
ATOM     18  C   UNL     1       0.349  -0.628  -6.150  0.00  0.00    +0.062 A 
ATOM     19  C   UNL     1       1.042  -1.388  -5.220  0.00  0.00    +0.041 A 
ATOM     20  F   UNL     1      -1.390   0.899  -6.651  0.00  0.00    -0.205 F 
BRANCH  19  21
ATOM     21  N   UNL     1       2.126  -2.176  -5.626  0.00  0.00    -0.357 N 
ATOM     22  H   UNL     1       2.607  -2.711  -4.975  0.00  0.00    +0.142 HD
ATOM     23  H   UNL     1       2.395  -2.187  -6.558  0.00  0.00    +0.142 HD
ENDBRANCH  19  21
ENDBRANCH  13  14
ENDBRANCH   4  13
TORSDOF 4
