REMARK  Name = ZINC42087983
REMARK  10 active torsions:
REMARK  status: ('A' for Active; 'I' for Inactive)
REMARK    1  A    between atoms: C_1  and  C_2
REMARK    2  A    between atoms: C_2  and  O_3
REMARK    3  A    between atoms: O_3  and  C_4
REMARK    4  A    between atoms: C_4  and  C_6
REMARK    5  A    between atoms: C_7  and  O_17
REMARK    6  A    between atoms: N_9  and  C_11
REMARK    7  A    between atoms: O_17  and  C_18
REMARK    8  A    between atoms: C_18  and  C_19
REMARK    9  A    between atoms: N_21  and  C_22
REMARK   10  A    between atoms: C_22  and  C_23
REMARK                            x       y       z     vdW  Elec       q    Type
REMARK                         _______ _______ _______ _____ _____    ______ ____
ROOT
ATOM      1  C   UNL     1       1.453  -2.346  -2.523  0.00  0.00    +0.211 A 
ATOM      2  C   UNL     1       1.635  -3.719  -2.832  0.00  0.00    +0.173 A 
ATOM      3  C   UNL     1       2.305  -3.739  -4.013  0.00  0.00    +0.161 A 
ATOM      4  N   UNL     1       2.506  -2.444  -4.380  0.00  0.00    -0.235 N 
ATOM      5  N   UNL     1       1.999  -1.652  -3.505  0.00  0.00    -0.156 NA
ENDROOT
BRANCH   4   6
ATOM      6  C   UNL     1       3.167  -2.034  -5.545  0.00  0.00    +0.065 A 
ATOM      7  C   UNL     1       3.668  -2.979  -6.430  0.00  0.00    +0.028 A 
ATOM      8  C   UNL     1       4.318  -2.572  -7.579  0.00  0.00    +0.002 A 
ATOM      9  C   UNL     1       4.470  -1.224  -7.848  0.00  0.00    +0.000 A 
ATOM     10  C   UNL     1       3.972  -0.280  -6.968  0.00  0.00    +0.002 A 
ATOM     11  C   UNL     1       3.316  -0.681  -5.821  0.00  0.00    +0.028 A 
ENDBRANCH   4   6
BRANCH   1  12
ATOM     12  C   UNL     1       0.776  -1.799  -1.335  0.00  0.00    +0.363 C 
ATOM     13  O   UNL     1       0.312  -2.550  -0.500  0.00  0.00    -0.243 OA
BRANCH  12  14
ATOM     14  O   UNL     1       0.671  -0.465  -1.174  0.00  0.00    -0.460 OA
BRANCH  14  16
ATOM     15  C   UNL     1      -0.019   1.526   0.010  0.00  0.00    +0.048 C 
ATOM     16  C   UNL     1       0.002  -0.004   0.002  0.00  0.00    +0.229 C 
ENDBRANCH  14  16
ENDBRANCH  12  14
ENDBRANCH   1  12
BRANCH   2  17
ATOM     17  O   UNL     1       1.225  -4.790  -2.099  0.00  0.00    -0.479 OA
BRANCH  17  18
ATOM     18  C   UNL     1       1.527  -6.086  -2.620  0.00  0.00    +0.324 C 
BRANCH  18  19
ATOM     19  C   UNL     1       1.000  -7.140  -1.680  0.00  0.00    +0.251 C 
ATOM     20  O   UNL     1       0.423  -6.813  -0.665  0.00  0.00    -0.272 OA
ATOM     21  N   UNL     1       1.170  -8.445  -1.968  0.00  0.00    -0.308 N 
ATOM     22  H   UNL     1       1.632  -8.707  -2.780  0.00  0.00    +0.149 HD
BRANCH  21  23
ATOM     23  C   UNL     1       0.658  -9.470  -1.055  0.00  0.00    +0.146 C 
BRANCH  23  24
ATOM     24  C   UNL     1       0.976 -10.837  -1.604  0.00  0.00    +0.007 A 
ATOM     25  C   UNL     1       2.070 -11.608  -1.391  0.00  0.00    +0.013 A 
ATOM     26  C   UNL     1       2.148 -12.844  -2.006  0.00  0.00    +0.008 A 
ATOM     27  C   UNL     1       1.129 -13.247  -2.803  0.00  0.00    +0.045 A 
ATOM     28  S   UNL     1       0.007 -11.863  -2.697  0.00  0.00    -0.100 S 
ENDBRANCH  23  24
ENDBRANCH  21  23
ENDBRANCH  18  19
ENDBRANCH  17  18
ENDBRANCH   2  17
TORSDOF 9
