REMARK  Name = ZINC11662529
REMARK  3 active torsions:
REMARK  status: ('A' for Active; 'I' for Inactive)
REMARK    1  A    between atoms: C_4  and  C_7
REMARK    2  A    between atoms: C_7  and  C_9
REMARK    3  A    between atoms: C_24  and  C_26
REMARK                            x       y       z     vdW  Elec       q    Type
REMARK                         _______ _______ _______ _____ _____    ______ ____
ROOT
ATOM      1  C   UNL     1       3.076  -5.530  -1.251  0.00  0.00    +0.288 C 
ATOM      2  O   UNL     1       4.209  -5.606  -1.681  0.00  0.00    -0.266 OA
ATOM      3  N   UNL     1       2.734  -4.519  -0.429  0.00  0.00    -0.282 N 
ATOM      4  C   UNL     1       1.400  -4.470   0.190  0.00  0.00    +0.114 C 
ATOM      5  C   UNL     1       0.653  -3.236  -0.335  0.00  0.00    +0.056 C 
ATOM      6  C   UNL     1       1.586  -2.054  -0.308  0.00  0.00    -0.015 A 
ATOM      7  C   UNL     1       1.236  -0.638  -0.374  0.00  0.00    +0.003 A 
ATOM      8  C   UNL     1       0.033   0.066  -0.469  0.00  0.00    +0.010 A 
ATOM      9  C   UNL     1       0.047   1.431  -0.514  0.00  0.00    +0.001 A 
ATOM     10  C   UNL     1       1.247   2.127  -0.467  0.00  0.00    +0.002 A 
ATOM     11  C   UNL     1       2.445   1.454  -0.372  0.00  0.00    +0.026 A 
ATOM     12  C   UNL     1       2.456   0.064  -0.325  0.00  0.00    +0.047 A 
ATOM     13  N   UNL     1       3.462  -0.872  -0.232  0.00  0.00    -0.356 N 
ATOM     14  H   UNL     1       4.409  -0.669  -0.181  0.00  0.00    +0.166 HD
ATOM     15  C   UNL     1       2.928  -2.129  -0.221  0.00  0.00    +0.046 A 
ATOM     16  C   UNL     1       3.685  -3.436  -0.128  0.00  0.00    +0.154 C 
ENDROOT
BRANCH  16  17
ATOM     17  C   UNL     1       4.236  -3.610   1.264  0.00  0.00    -0.020 A 
ATOM     18  C   UNL     1       3.391  -3.534   2.356  0.00  0.00    +0.006 A 
ATOM     19  C   UNL     1       3.894  -3.699   3.633  0.00  0.00    +0.002 A 
ATOM     20  C   UNL     1       5.244  -3.929   3.820  0.00  0.00    +0.020 A 
ATOM     21  C   UNL     1       6.091  -4.000   2.728  0.00  0.00    +0.041 A 
ATOM     22  C   UNL     1       5.586  -3.841   1.450  0.00  0.00    +0.025 A 
ATOM     23 CL   UNL     1       7.787  -4.289   2.962  0.00  0.00    -0.084 Cl
ENDBRANCH  16  17
BRANCH   1  24
ATOM     24  C   UNL     1       2.063  -6.557  -1.634  0.00  0.00    +0.247 C 
ATOM     25  O   UNL     1       1.313  -6.352  -2.566  0.00  0.00    -0.282 OA
BRANCH  24  29
ATOM     26  C   UNL     1       1.806 -10.196   0.535  0.00  0.00    +0.000 A 
ATOM     27  C   UNL     1       0.880  -9.919  -0.456  0.00  0.00    +0.001 A 
ATOM     28  C   UNL     1       0.957  -8.739  -1.165  0.00  0.00    +0.012 A 
ATOM     29  C   UNL     1       1.973  -7.821  -0.880  0.00  0.00    +0.027 A 
ATOM     30  C   UNL     1       2.908  -8.111   0.120  0.00  0.00    +0.012 A 
ATOM     31  C   UNL     1       2.814  -9.293   0.824  0.00  0.00    +0.001 A 
ENDBRANCH  24  29
ENDBRANCH   1  24
TORSDOF 3
