REMARK  Name = ZINC12885011
REMARK  7 active torsions:
REMARK  status: ('A' for Active; 'I' for Inactive)
REMARK    1  A    between atoms: C_1  and  C_2
REMARK    2  A    between atoms: C_16  and  C_18
REMARK    3  A    between atoms: C_18  and  C_20
REMARK    4  A    between atoms: C_18  and  O_21
REMARK    5  A    between atoms: N_24  and  C_27
REMARK    6  A    between atoms: C_27  and  C_28
REMARK    7  A    between atoms: C_28  and  C_29
REMARK                            x       y       z     vdW  Elec       q    Type
REMARK                         _______ _______ _______ _____ _____    ______ ____
ROOT
ATOM      1  C   UNL     1       4.327   2.091  -0.032  0.00  0.00    +0.047 C 
ATOM      2  C   UNL     1       3.549   0.800  -0.033  0.00  0.00    -0.011 A 
ATOM      3  C   UNL     1       4.219  -0.408  -0.050  0.00  0.00    +0.046 A 
ATOM      4  C   UNL     1       3.513  -1.598  -0.049  0.00  0.00    +0.020 A 
ATOM      5  C   UNL     1       2.129  -1.577  -0.033  0.00  0.00    +0.006 A 
ATOM      6  C   UNL     1       1.458  -0.375  -0.017  0.00  0.00    -0.027 A 
ATOM      7  C   UNL     1       2.157   0.829  -0.017  0.00  0.00    +0.040 A 
ATOM      8  N   UNL     1       1.266   1.904   0.000  0.00  0.00    -0.286 N 
ATOM      9  C   UNL     1      -0.018   1.500   0.010  0.00  0.00    +0.211 C 
ATOM     10  O   UNL     1      -1.001   2.211   0.019  0.00  0.00    -0.277 OA
ATOM     11  C   UNL     1       0.002  -0.004   0.002  0.00  0.00    +0.050 C 
ATOM     12  C   UNL     1      -0.738  -0.570  -1.216  0.00  0.00    +0.088 C 
ATOM     13  C   UNL     1      -2.146  -0.950  -0.678  0.00  0.00    +0.075 C 
ATOM     14  C   UNL     1      -2.121  -0.550   0.813  0.00  0.00    -0.028 C 
ATOM     15  C   UNL     1      -3.068  -0.016  -1.427  0.00  0.00    +0.224 C 
ATOM     16  O   UNL     1      -4.274   0.021  -1.310  0.00  0.00    -0.275 OA
ATOM     17  N   UNL     1      -2.347   0.764  -2.241  0.00  0.00    -0.241 N 
ATOM     18  C   UNL     1      -1.029   0.540  -2.200  0.00  0.00    +0.225 C 
ATOM     19  O   UNL     1      -0.197   1.135  -2.851  0.00  0.00    -0.275 OA
ATOM     20 CL   UNL     1       5.954  -0.433  -0.070  0.00  0.00    -0.083 Cl
ATOM     21  H   UNL     1       1.541   2.835   0.004  0.00  0.00    +0.155 HD
ATOM     22  N   UNL     1      -0.696  -0.547   1.154  0.00  0.00    +0.396 N 
ATOM     23  H   UNL     1      -0.530   0.041   1.979  0.00  0.00    -0.083 HD
ATOM     24  H   UNL     1      -0.375  -1.503   1.346  0.00  0.00    -0.083 HD
ENDROOT
BRANCH  14  25
ATOM     25  C   UNL     1      -2.894  -1.570   1.651  0.00  0.00    +0.098 C 
ATOM     26  C   UNL     1      -2.856  -1.154   3.123  0.00  0.00    +0.036 C 
BRANCH  25  27
ATOM     27  O   UNL     1      -2.294  -2.859   1.505  0.00  0.00    -0.394 OA
ATOM     28  H   UNL     1      -1.371  -2.897   1.789  0.00  0.00    +0.210 HD
ENDBRANCH  25  27
ENDBRANCH  14  25
BRANCH  17  29
ATOM     29  C   UNL     1      -2.952   1.781  -3.105  0.00  0.00    +0.121 C 
BRANCH  29  30
ATOM     30  C   UNL     1      -3.029   3.110  -2.352  0.00  0.00    +0.054 C 
BRANCH  30  31
ATOM     31  C   UNL     1      -3.651   4.156  -3.241  0.00  0.00    -0.046 A 
ATOM     32  C   UNL     1      -2.850   4.935  -4.055  0.00  0.00    +0.004 A 
ATOM     33  C   UNL     1      -3.421   5.891  -4.875  0.00  0.00    +0.000 A 
ATOM     34  C   UNL     1      -4.791   6.075  -4.872  0.00  0.00    +0.000 A 
ATOM     35  C   UNL     1      -5.591   5.300  -4.053  0.00  0.00    +0.000 A 
ATOM     36  C   UNL     1      -5.021   4.340  -3.238  0.00  0.00    +0.004 A 
ENDBRANCH  30  31
ENDBRANCH  29  30
ENDBRANCH  17  29
TORSDOF 5
