REMARK  Name = ZINC61914341
REMARK  10 active torsions:
REMARK  status: ('A' for Active; 'I' for Inactive)
REMARK    1  A    between atoms: C_1  and  C_2
REMARK    2  A    between atoms: C_3  and  C_8
REMARK    3  A    between atoms: N_6  and  C_7
REMARK    4  A    between atoms: C_8  and  C_9
REMARK    5  A    between atoms: C_8  and  N_10
REMARK    6  A    between atoms: N_13  and  C_14
REMARK    7  A    between atoms: C_19  and  C_20
REMARK    8  A    between atoms: C_20  and  C_21
REMARK    9  A    between atoms: C_20  and  C_22
REMARK   10  A    between atoms: C_20  and  C_23
REMARK                            x       y       z     vdW  Elec       q    Type
REMARK                         _______ _______ _______ _____ _____    ______ ____
ROOT
ATOM      1  N   UNL     1      -0.679  -0.927  -3.737  0.00  0.00    -0.293 N 
ATOM      2  C   UNL     1      -1.272  -0.837  -4.944  0.00  0.00    +0.300 C 
ATOM      3  O   UNL     1      -1.464   0.254  -5.447  0.00  0.00    -0.253 OA
ATOM      4  N   UNL     1      -1.651  -1.955  -5.594  0.00  0.00    -0.296 N 
ATOM      5  H   UNL     1      -0.525  -1.797  -3.336  0.00  0.00    +0.151 HD
ATOM      6  H   UNL     1      -1.498  -2.825  -5.193  0.00  0.00    +0.151 HD
ENDROOT
BRANCH   4   7
ATOM      7  C   UNL     1      -2.296  -1.856  -6.906  0.00  0.00    +0.078 C 
ATOM      8  C   UNL     1      -1.230  -1.891  -8.002  0.00  0.00    +0.022 C 
ATOM      9  C   UNL     1      -0.451  -3.205  -7.914  0.00  0.00    +0.002 C 
ATOM     10  C   UNL     1      -1.412  -4.381  -8.100  0.00  0.00    +0.000 C 
ATOM     11  C   UNL     1      -2.478  -4.346  -7.003  0.00  0.00    +0.006 C 
ATOM     12  C   UNL     1      -3.257  -3.032  -7.091  0.00  0.00    +0.015 C 
BRANCH  12  13
ATOM     13  C   UNL     1      -4.324  -2.997  -5.995  0.00  0.00    -0.033 C 
ATOM     14  C   UNL     1      -5.005  -1.627  -5.989  0.00  0.00    +0.011 C 
ATOM     15  C   UNL     1      -5.367  -4.084  -6.263  0.00  0.00    +0.011 C 
ATOM     16  C   UNL     1      -3.666  -3.246  -4.636  0.00  0.00    +0.011 C 
ENDBRANCH  12  13
ENDBRANCH   4   7
BRANCH   1  17
ATOM     17  C   UNL     1      -0.266   0.288  -3.031  0.00  0.00    +0.105 C 
ATOM     18  C   UNL     1       1.121   0.715  -3.517  0.00  0.00    +0.033 C 
BRANCH  17  21
ATOM     19  C   UNL     1      -0.570   2.415  -0.757  0.00  0.00    +0.065 C 
ATOM     20  C   UNL     1      -0.349   0.936  -0.566  0.00  0.00    +0.041 A 
ATOM     21  C   UNL     1      -0.217   0.016  -1.550  0.00  0.00    +0.013 A 
ATOM     22  C   UNL     1      -0.028  -1.232  -0.948  0.00  0.00    +0.140 A 
ATOM     23  N   UNL     1      -0.045  -1.068   0.350  0.00  0.00    -0.179 NA
ATOM     24  N   UNL     1      -0.241   0.294   0.616  0.00  0.00    -0.271 N 
ATOM     25  C   UNL     1      -0.319   0.911   1.942  0.00  0.00    +0.172 C 
ENDBRANCH  17  21
ENDBRANCH   1  17
TORSDOF 4
