REMARK  Name = ZINC00856564
REMARK  2 active torsions:
REMARK  status: ('A' for Active; 'I' for Inactive)
REMARK    1  A    between atoms: C_4  and  C_7
REMARK    2  A    between atoms: C_12  and  C_22
REMARK                            x       y       z     vdW  Elec       q    Type
REMARK                         _______ _______ _______ _____ _____    ______ ____
ROOT
ATOM      1  C   UNL     1      -2.503   0.934  -0.106  0.00  0.00    +0.032 C 
ATOM      2  C   UNL     1      -3.371   1.327  -1.300  0.00  0.00    +0.059 C 
ATOM      3  C   UNL     1      -4.693   0.579  -1.249  0.00  0.00    +0.017 C 
ATOM      4  C   UNL     1      -5.247   0.255  -0.068  0.00  0.00    +0.036 C 
ATOM      5  C   UNL     1      -6.550  -0.484   0.126  0.00  0.00    +0.136 C 
ATOM      6  N   UNL     1      -7.347  -0.622  -1.074  0.00  0.00    -0.331 N 
ATOM      7  C   UNL     1      -6.891  -1.371  -2.158  0.00  0.00    +0.049 A 
ATOM      8  C   UNL     1      -7.503  -2.559  -2.523  0.00  0.00    +0.025 A 
ATOM      9  C   UNL     1      -6.948  -3.327  -3.532  0.00  0.00    +0.002 A 
ATOM     10  C   UNL     1      -5.795  -2.913  -4.173  0.00  0.00    +0.002 A 
ATOM     11  C   UNL     1      -5.194  -1.715  -3.825  0.00  0.00    +0.025 A 
ATOM     12  C   UNL     1      -5.757  -0.938  -2.828  0.00  0.00    +0.052 A 
ATOM     13  N   UNL     1      -5.233   0.296  -2.461  0.00  0.00    -0.316 N 
ATOM     14  C   UNL     1      -4.599   0.600   1.141  0.00  0.00    +0.163 C 
ATOM     15  O   UNL     1      -5.136   0.320   2.195  0.00  0.00    -0.292 OA
ATOM     16  C   UNL     1      -3.272   1.297   1.169  0.00  0.00    +0.088 C 
ATOM     17  H   UNL     1      -8.212  -0.186  -1.125  0.00  0.00    +0.147 HD
ATOM     18  H   UNL     1      -5.254   1.007  -3.121  0.00  0.00    +0.152 HD
ENDROOT
BRANCH   5  19
ATOM     19  C   UNL     1      -6.242  -1.861   0.656  0.00  0.00    -0.023 A 
ATOM     20  C   UNL     1      -5.517  -2.751  -0.114  0.00  0.00    +0.008 A 
ATOM     21  C   UNL     1      -5.231  -4.012   0.373  0.00  0.00    +0.038 A 
ATOM     22  C   UNL     1      -5.680  -4.388   1.627  0.00  0.00    +0.123 A 
ATOM     23  C   UNL     1      -6.411  -3.497   2.395  0.00  0.00    +0.038 A 
ATOM     24  C   UNL     1      -6.691  -2.235   1.909  0.00  0.00    +0.008 A 
ATOM     25  F   UNL     1      -5.405  -5.622   2.102  0.00  0.00    -0.205 F 
ENDBRANCH   5  19
BRANCH   1  29
ATOM     26  C   UNL     1       1.189   3.078  -0.237  0.00  0.00    +0.000 A 
ATOM     27  C   UNL     1       1.193   1.696  -0.236  0.00  0.00    +0.000 A 
ATOM     28  C   UNL     1      -0.002   1.002  -0.190  0.00  0.00    +0.004 A 
ATOM     29  C   UNL     1      -1.200   1.690  -0.150  0.00  0.00    -0.044 A 
ATOM     30  C   UNL     1      -1.203   3.073  -0.147  0.00  0.00    +0.004 A 
ATOM     31  C   UNL     1      -0.009   3.767  -0.193  0.00  0.00    +0.000 A 
ENDBRANCH   1  29
TORSDOF 2
