REMARK  Name = ZINC17005500
REMARK  3 active torsions:
REMARK  status: ('A' for Active; 'I' for Inactive)
REMARK    1  A    between atoms: C_1  and  C_2
REMARK    2  A    between atoms: C_13  and  O_15
REMARK    3  A    between atoms: C_23  and  O_26
REMARK                            x       y       z     vdW  Elec       q    Type
REMARK                         _______ _______ _______ _____ _____    ______ ____
ROOT
ATOM      1  C   UNL     1       0.095  -0.095  -2.489  0.00  0.00    +0.014 C 
ATOM      2  C   UNL     1       0.799  -0.484  -1.189  0.00  0.00    -0.003 C 
ATOM      3  C   UNL     1       0.002  -0.004   0.002  0.00  0.00    +0.010 C 
ATOM      4  C   UNL     1      -0.019   1.535   0.011  0.00  0.00    +0.005 C 
ATOM      5  C   UNL     1       1.402   2.088  -0.000  0.00  0.00    +0.002 C 
ATOM      6  C   UNL     1       2.159   1.606  -1.247  0.00  0.00    -0.001 C 
ATOM      7  C   UNL     1       2.232   0.096  -1.113  0.00  0.00    +0.001 C 
ATOM      8  C   UNL     1       2.950  -0.664  -2.229  0.00  0.00    +0.007 C 
ATOM      9  C   UNL     1       2.349  -2.095  -2.141  0.00  0.00    +0.032 C 
ATOM     10  C   UNL     1       1.090  -1.991  -1.242  0.00  0.00    +0.121 C 
ATOM     11  C   UNL     1       3.559   2.215  -1.267  0.00  0.00    +0.037 C 
ATOM     12  C   UNL     1       3.522   3.712  -0.952  0.00  0.00    +0.136 C 
ATOM     13  C   UNL     1       2.076   4.249  -1.121  0.00  0.00    +0.063 C 
ATOM     14  C   UNL     1       1.436   3.603   0.124  0.00  0.00    +0.015 C 
ATOM     15  C   UNL     1       0.099   4.200   0.471  0.00  0.00    +0.013 C 
ATOM     16  C   UNL     1       0.183   5.718   0.633  0.00  0.00    +0.032 C 
ATOM     17  C   UNL     1       0.754   6.330  -0.648  0.00  0.00    +0.116 C 
ATOM     18  C   UNL     1       2.152   5.771  -0.897  0.00  0.00    +0.052 C 
ATOM     19  C   UNL     1       2.525   3.930   1.179  0.00  0.00    +0.168 C 
ATOM     20  O   UNL     1       3.775   3.867   0.467  0.00  0.00    -0.375 OA
ATOM     21 BR   UNL     1       1.209   3.813  -2.825  0.00  0.00    -0.081 Br
ENDROOT
BRANCH  10  22
ATOM     22  O   UNL     1      -0.008  -2.680  -1.836  0.00  0.00    -0.391 OA
ATOM     23  H   UNL     1       0.116  -3.637  -1.898  0.00  0.00    +0.210 HD
ENDBRANCH  10  22
BRANCH  17  24
ATOM     24  O   UNL     1       0.826   7.751  -0.509  0.00  0.00    -0.392 OA
ATOM     25  H   UNL     1      -0.028   8.174  -0.348  0.00  0.00    +0.210 HD
ENDBRANCH  17  24
TORSDOF 2
