REMARK  Name = ZINC54201720
REMARK  7 active torsions:
REMARK  status: ('A' for Active; 'I' for Inactive)
REMARK    1  A    between atoms: C_1  and  C_2
REMARK    2  A    between atoms: C_5  and  N_8
REMARK    3  A    between atoms: C_9  and  C_11
REMARK    4  A    between atoms: C_11  and  C_12
REMARK    5  A    between atoms: C_20  and  C_31
REMARK    6  A    between atoms: C_23  and  C_25
REMARK    7  A    between atoms: C_36  and  O_37
REMARK                            x       y       z     vdW  Elec       q    Type
REMARK                         _______ _______ _______ _____ _____    ______ ____
ROOT
ATOM      1  C   UNL     1       0.424  -6.867   2.557  0.00  0.00    +0.150 C 
ATOM      2  C   UNL     1       0.579  -8.383   2.591  0.00  0.00    +0.252 C 
ATOM      3  O   UNL     1       1.531  -8.950   2.092  0.00  0.00    -0.272 OA
ATOM      4  N   UNL     1      -0.381  -9.028   3.194  0.00  0.00    -0.157 NA
ATOM      5  C   UNL     1      -1.437  -8.452   3.753  0.00  0.00    +0.170 C 
ATOM      6  S   UNL     1      -1.173  -6.707   3.460  0.00  0.00    -0.078 S 
ATOM      7  N   UNL     1      -2.481  -9.050   4.399  0.00  0.00    -0.195 N 
ATOM      8  C   UNL     1      -2.638 -10.498   4.614  0.00  0.00    +0.139 C 
ATOM      9  C   UNL     1      -3.970 -10.607   5.383  0.00  0.00    +0.087 C 
ATOM     10  C   UNL     1      -4.429  -9.173   5.521  0.00  0.00    +0.069 C 
ATOM     11  N   UNL     1      -3.567  -8.390   4.969  0.00  0.00    -0.182 NA
ENDROOT
BRANCH  10  12
ATOM     12  C   UNL     1      -5.669  -8.737   6.189  0.00  0.00    -0.002 A 
ATOM     13  C   UNL     1      -6.525  -9.679   6.764  0.00  0.00    +0.010 A 
ATOM     14  C   UNL     1      -7.683  -9.264   7.389  0.00  0.00    +0.001 A 
ATOM     15  C   UNL     1      -7.998  -7.918   7.445  0.00  0.00    +0.000 A 
ATOM     16  C   UNL     1      -7.155  -6.979   6.877  0.00  0.00    +0.001 A 
ATOM     17  C   UNL     1      -5.991  -7.379   6.255  0.00  0.00    +0.010 A 
ENDBRANCH  10  12
BRANCH   8  18
ATOM     18  C   UNL     1      -1.500 -11.038   5.440  0.00  0.00    +0.017 A 
ATOM     19  C   UNL     1      -0.793 -10.197   6.278  0.00  0.00    +0.009 A 
ATOM     20  C   UNL     1       0.252 -10.692   7.036  0.00  0.00    +0.001 A 
ATOM     21  C   UNL     1       0.592 -12.030   6.958  0.00  0.00    +0.004 A 
ATOM     22  C   UNL     1      -0.112 -12.876   6.123  0.00  0.00    +0.046 A 
ATOM     23  C   UNL     1      -1.164 -12.382   5.365  0.00  0.00    +0.122 A 
BRANCH  23  24
ATOM     24  O   UNL     1      -1.862 -13.213   4.547  0.00  0.00    -0.506 OA
ATOM     25  H   UNL     1      -1.502 -13.276   3.651  0.00  0.00    +0.292 HD
ENDBRANCH  23  24
ENDBRANCH   8  18
BRANCH   1  26
ATOM     26  C   UNL     1       0.309  -6.349   1.121  0.00  0.00    +0.120 C 
BRANCH  26  28
ATOM     27  N   UNL     1       0.059  -4.170  -0.021  0.00  0.00    -0.285 N 
ATOM     28  C   UNL     1       0.175  -4.848   1.138  0.00  0.00    +0.219 C 
ATOM     29  O   UNL     1       0.173  -4.251   2.193  0.00  0.00    -0.275 OA
ATOM     30  H   UNL     1      -0.017  -4.651  -0.860  0.00  0.00    +0.155 HD
BRANCH  27  35
ATOM     31  C   UNL     1       0.008   1.503   0.007  0.00  0.00    +0.044 C 
ATOM     32  C   UNL     1       0.022  -0.004  -0.001  0.00  0.00    -0.050 A 
ATOM     33  C   UNL     1       0.777  -0.692   0.931  0.00  0.00    +0.005 A 
ATOM     34  C   UNL     1       0.791  -2.073   0.927  0.00  0.00    +0.023 A 
ATOM     35  C   UNL     1       0.046  -2.771  -0.014  0.00  0.00    +0.033 A 
ATOM     36  C   UNL     1      -0.712  -2.077  -0.948  0.00  0.00    +0.023 A 
ATOM     37  C   UNL     1      -0.726  -0.696  -0.936  0.00  0.00    +0.005 A 
ENDBRANCH  27  35
ENDBRANCH  26  28
ENDBRANCH   1  26
TORSDOF 6
