REMARK  Name = ZINC34748124
REMARK  4 active torsions:
REMARK  status: ('A' for Active; 'I' for Inactive)
REMARK    1  A    between atoms: C_6  and  C_7
REMARK    2  A    between atoms: C_7  and  N_8
REMARK    3  A    between atoms: N_21  and  C_24
REMARK    4  A    between atoms: C_24  and  C_25
REMARK                            x       y       z     vdW  Elec       q    Type
REMARK                         _______ _______ _______ _____ _____    ______ ____
ROOT
ATOM      1  N   UNL     1      -1.090  -0.707  -1.927  0.00  0.00    -0.276 N 
ATOM      2  C   UNL     1      -1.759   0.279  -2.553  0.00  0.00    +0.264 A 
ATOM      3  O   UNL     1      -1.399   1.438  -2.443  0.00  0.00    -0.267 OA
ATOM      4  C   UNL     1      -2.898  -0.056  -3.351  0.00  0.00    +0.076 A 
ATOM      5  C   UNL     1      -3.767   0.853  -4.116  0.00  0.00    -0.023 A 
ATOM      6  C   UNL     1      -4.784   0.295  -4.792  0.00  0.00    -0.004 A 
ATOM      7  S   UNL     1      -4.653  -1.448  -4.465  0.00  0.00    -0.073 S 
ATOM      8  C   UNL     1      -3.227  -1.418  -3.412  0.00  0.00    +0.117 A 
ATOM      9  N   UNL     1      -2.525  -2.344  -2.768  0.00  0.00    -0.208 NA
ATOM     10  C   UNL     1      -1.476  -2.010  -2.044  0.00  0.00    +0.202 A 
ATOM     11  N   UNL     1      -0.764  -2.987  -1.394  0.00  0.00    -0.304 N 
ATOM     12  C   UNL     1      -0.423  -2.853   0.031  0.00  0.00    +0.089 C 
ATOM     13  C   UNL     1      -0.837  -4.140   0.753  0.00  0.00    -0.059 C 
ATOM     14  N   UNL     1      -0.219  -5.294   0.088  0.00  0.00    +0.387 N 
ATOM     15  C   UNL     1      -0.741  -5.422  -1.279  0.00  0.00    -0.059 C 
ATOM     16  C   UNL     1      -0.327  -4.201  -2.100  0.00  0.00    +0.089 C 
ATOM     17  C   UNL     1      -5.606   1.318  -5.530  0.00  0.00    +0.043 C 
ATOM     18  C   UNL     1      -5.222   2.666  -4.880  0.00  0.00    +0.010 C 
ATOM     19  C   UNL     1      -3.805   2.366  -4.351  0.00  0.00    +0.037 C 
ATOM     20  H   UNL     1       0.781  -5.165   0.053  0.00  0.00    -0.081 HD
ENDROOT
BRANCH   1  21
ATOM     21  C   UNL     1       0.079  -0.375  -1.108  0.00  0.00    +0.163 C 
BRANCH  21  27
ATOM     22  C   UNL     1       1.751   0.529  -2.736  0.00  0.00    +0.007 A 
ATOM     23  C   UNL     1       2.898   0.400  -3.496  0.00  0.00    +0.020 A 
ATOM     24  C   UNL     1       3.625  -0.777  -3.457  0.00  0.00    +0.041 A 
ATOM     25  C   UNL     1       3.202  -1.823  -2.657  0.00  0.00    +0.020 A 
ATOM     26  C   UNL     1       2.055  -1.693  -1.898  0.00  0.00    +0.007 A 
ATOM     27  C   UNL     1       1.330  -0.517  -1.937  0.00  0.00    -0.027 A 
ATOM     28 CL   UNL     1       5.065  -0.940  -4.412  0.00  0.00    -0.084 Cl
ENDBRANCH  21  27
ENDBRANCH   1  21
BRANCH  14  29
ATOM     29  C   UNL     1      -0.526  -6.515   0.844  0.00  0.00    +0.019 C 
BRANCH  29  30
ATOM     30  C   UNL     1       0.208  -7.681   0.233  0.00  0.00    +0.199 C 
ATOM     31  O   UNL     1       0.916  -7.512  -0.736  0.00  0.00    -0.278 OA
ATOM     32  N   UNL     1       0.076  -8.913   0.765  0.00  0.00    -0.303 N 
ATOM     33  C   UNL     1      -0.752  -9.260   1.930  0.00  0.00    +0.108 C 
ATOM     34  C   UNL     1      -0.571 -10.771   2.186  0.00  0.00    +0.020 C 
ATOM     35  C   UNL     1       0.786 -11.080   1.501  0.00  0.00    +0.020 C 
ATOM     36  C   UNL     1       0.733 -10.137   0.271  0.00  0.00    +0.108 C 
ENDBRANCH  29  30
ENDBRANCH  14  29
TORSDOF 4
