REMARK  Name = ZINC42168174
REMARK  5 active torsions:
REMARK  status: ('A' for Active; 'I' for Inactive)
REMARK    1  A    between atoms: C_1  and  C_2
REMARK    2  A    between atoms: N_6  and  S_15
REMARK    3  A    between atoms: S_15  and  C_18
REMARK    4  A    between atoms: C_21  and  C_24
REMARK    5  A    between atoms: N_26  and  C_27
REMARK                            x       y       z     vdW  Elec       q    Type
REMARK                         _______ _______ _______ _____ _____    ______ ____
ROOT
ATOM      1  S   UNL     1      -2.051  -1.205   3.718  0.00  0.00    +0.061 S 
ATOM      2  O   UNL     1      -3.186  -2.007   3.421  0.00  0.00    -0.153 OA
ATOM      3  O   UNL     1      -0.836  -1.756   4.207  0.00  0.00    -0.153 OA
ENDROOT
BRANCH   1   8
ATOM      4  C   UNL     1      -0.974   1.501  -0.387  0.00  0.00    +0.008 C 
ATOM      5  C   UNL     1      -0.662   0.006  -0.291  0.00  0.00    -0.008 C 
ATOM      6  C   UNL     1      -1.961  -0.775  -0.069  0.00  0.00    +0.020 C 
ATOM      7  C   UNL     1      -2.636  -0.298   1.219  0.00  0.00    +0.110 C 
ATOM      8  N   UNL     1      -1.675  -0.386   2.329  0.00  0.00    -0.173 NA
ATOM      9  C   UNL     1      -0.373   0.272   2.172  0.00  0.00    +0.083 C 
ATOM     10  C   UNL     1       0.282  -0.243   0.885  0.00  0.00    +0.011 C 
ATOM     11  C   UNL     1       1.611   0.482   0.674  0.00  0.00    +0.005 C 
ATOM     12  C   UNL     1       2.535   0.185   1.858  0.00  0.00    +0.000 C 
ATOM     13  C   UNL     1       1.884   0.662   3.157  0.00  0.00    +0.002 C 
ATOM     14  C   UNL     1       0.535  -0.045   3.359  0.00  0.00    +0.021 C 
ENDBRANCH   1   8
BRANCH   1  15
ATOM     15  C   UNL     1      -2.575  -0.010   4.902  0.00  0.00    +0.106 A 
ATOM     16  C   UNL     1      -1.676   0.476   5.835  0.00  0.00    +0.029 A 
ATOM     17  C   UNL     1      -2.080   1.412   6.765  0.00  0.00    +0.015 A 
ATOM     18  C   UNL     1      -3.398   1.869   6.763  0.00  0.00    +0.037 A 
ATOM     19  C   UNL     1      -4.300   1.375   5.819  0.00  0.00    +0.015 A 
ATOM     20  C   UNL     1      -3.882   0.444   4.891  0.00  0.00    +0.029 A 
BRANCH  18  21
ATOM     21  C   UNL     1      -3.838   2.872   7.756  0.00  0.00    +0.244 C 
ATOM     22  O   UNL     1      -3.050   3.299   8.577  0.00  0.00    -0.270 OA
ATOM     23  N   UNL     1      -5.112   3.311   7.752  0.00  0.00    -0.314 N 
ATOM     24  C   UNL     1      -5.548   4.305   8.736  0.00  0.00    +0.128 C 
ATOM     25  H   UNL     1      -5.741   2.970   7.096  0.00  0.00    +0.149 HD
ENDBRANCH  18  21
ENDBRANCH   1  15
TORSDOF 3
