REMARK  Name = ZINC63529137
REMARK  5 active torsions:
REMARK  status: ('A' for Active; 'I' for Inactive)
REMARK    1  A    between atoms: C_1  and  C_2
REMARK    2  A    between atoms: C_4  and  C_27
REMARK    3  A    between atoms: C_6  and  N_8
REMARK    4  A    between atoms: C_9  and  C_11
REMARK    5  A    between atoms: C_13  and  C_26
REMARK                            x       y       z     vdW  Elec       q    Type
REMARK                         _______ _______ _______ _____ _____    ______ ____
ROOT
ATOM      1  C   UNL     1       0.280  -2.900   4.854  0.00  0.00    +0.265 C 
ATOM      2  C   UNL     1       1.645  -3.626   4.934  0.00  0.00    +0.067 C 
ATOM      3  C   UNL     1       2.480  -2.613   5.685  0.00  0.00    +0.005 C 
ATOM      4  C   UNL     1       1.671  -1.716   6.231  0.00  0.00    +0.101 C 
ATOM      5  O   UNL     1       0.361  -2.006   5.977  0.00  0.00    -0.483 OA
ATOM      6  C   UNL     1       2.084  -0.490   7.019  0.00  0.00    +0.078 C 
ATOM      7  C   UNL     1       3.564  -0.549   7.426  0.00  0.00    +0.042 C 
ATOM      8  C   UNL     1       4.304  -1.183   6.285  0.00  0.00    -0.019 C 
ATOM      9  C   UNL     1       5.250  -0.792   5.468  0.00  0.00    +0.136 C 
ATOM     10  N   UNL     1       5.421  -1.702   4.474  0.00  0.00    -0.162 NA
ATOM     11  N   UNL     1       4.717  -2.717   4.582  0.00  0.00    -0.175 NA
ATOM     12  C   UNL     1       3.974  -2.608   5.832  0.00  0.00    +0.185 C 
ATOM     13  C   UNL     1       1.527  -4.933   5.720  0.00  0.00    +0.016 C 
ENDROOT
BRANCH   1  15
ATOM     14  N   UNL     1       0.052  -2.797   2.393  0.00  0.00    -0.282 N 
ATOM     15  C   UNL     1       0.150  -2.134   3.562  0.00  0.00    +0.259 C 
ATOM     16  O   UNL     1       0.134  -0.922   3.575  0.00  0.00    -0.271 OA
ATOM     17  H   UNL     1      -0.012  -3.765   2.388  0.00  0.00    +0.155 HD
BRANCH  14  23
ATOM     18  C   UNL     1      -1.512  -2.365  -2.248  0.00  0.00    +0.044 C 
ATOM     19  C   UNL     1      -0.706  -1.857  -1.080  0.00  0.00    -0.048 A 
ATOM     20  C   UNL     1       0.025  -0.690  -1.201  0.00  0.00    +0.006 A 
ATOM     21  C   UNL     1       0.765  -0.220  -0.131  0.00  0.00    -0.048 A 
ATOM     22  C   UNL     1       0.776  -0.917   1.061  0.00  0.00    +0.026 A 
ATOM     23  C   UNL     1       0.043  -2.089   1.186  0.00  0.00    +0.034 A 
ATOM     24  C   UNL     1      -0.704  -2.555   0.112  0.00  0.00    +0.026 A 
ATOM     25  C   UNL     1       1.561   1.052  -0.268  0.00  0.00    +0.044 C 
ENDBRANCH  14  23
ENDBRANCH   1  15
TORSDOF 2
