REMARK  Name = ZINC39688729
REMARK  8 active torsions:
REMARK  status: ('A' for Active; 'I' for Inactive)
REMARK    1  A    between atoms: C_1  and  C_2
REMARK    2  A    between atoms: C_2  and  C_4
REMARK    3  A    between atoms: C_2  and  N_12
REMARK    4  A    between atoms: C_4  and  C_5
REMARK    5  A    between atoms: C_13  and  C_15
REMARK    6  A    between atoms: C_26  and  C_28
REMARK    7  A    between atoms: C_31  and  O_35
REMARK    8  A    between atoms: O_35  and  C_36
REMARK                            x       y       z     vdW  Elec       q    Type
REMARK                         _______ _______ _______ _____ _____    ______ ____
ROOT
ATOM      1  C   UNL     1       0.604  -2.836   1.782  0.00  0.00    +0.100 C 
ATOM      2  C   UNL     1      -0.624  -2.074   2.327  0.00  0.00    +0.121 C 
ATOM      3  N   UNL     1      -1.716  -2.398   1.379  0.00  0.00    -0.296 N 
ATOM      4  C   UNL     1      -1.513  -3.831   1.059  0.00  0.00    +0.115 C 
ATOM      5  C   UNL     1       0.017  -3.991   0.954  0.00  0.00    -0.004 C 
ATOM      6  C   UNL     1       0.449  -5.333   1.537  0.00  0.00    -0.010 C 
ATOM      7  C   UNL     1      -0.098  -6.465   0.662  0.00  0.00    -0.082 C 
ATOM      8  N   UNL     1       0.410  -6.317  -0.707  0.00  0.00    +0.379 N 
ATOM      9  C   UNL     1      -0.088  -5.066  -1.293  0.00  0.00    -0.082 C 
ATOM     10  C   UNL     1       0.460  -3.876  -0.502  0.00  0.00    -0.010 C 
ATOM     11  C   UNL     1      -2.678  -1.576   0.914  0.00  0.00    +0.247 C 
ATOM     12  O   UNL     1      -3.470  -1.976   0.083  0.00  0.00    -0.270 OA
ATOM     13  H   UNL     1       1.418  -6.301  -0.690  0.00  0.00    -0.086 HD
ATOM     14  H   UNL     1       0.097  -7.097  -1.266  0.00  0.00    -0.086 HD
ENDROOT
BRANCH  11  15
ATOM     15  C   UNL     1      -2.770  -0.191   1.415  0.00  0.00    +0.040 A 
ATOM     16  C   UNL     1      -1.724   0.707   1.189  0.00  0.00    +0.036 A 
ATOM     17  C   UNL     1      -1.813   2.000   1.658  0.00  0.00    +0.085 A 
ATOM     18  C   UNL     1      -2.943   2.411   2.356  0.00  0.00    +0.157 A 
ATOM     19  C   UNL     1      -3.987   1.520   2.583  0.00  0.00    +0.085 A 
ATOM     20  C   UNL     1      -3.907   0.228   2.112  0.00  0.00    +0.036 A 
ATOM     21 CL   UNL     1      -5.395   2.039   3.456  0.00  0.00    -0.080 Cl
ATOM     22 CL   UNL     1      -0.514   3.116   1.377  0.00  0.00    -0.080 Cl
BRANCH  18  23
ATOM     23  O   UNL     1      -3.028   3.685   2.818  0.00  0.00    -0.492 OA
ATOM     24  C   UNL     1      -3.581   4.660   1.932  0.00  0.00    +0.277 C 
ENDBRANCH  18  23
ENDBRANCH  11  15
BRANCH   1  26
ATOM     25  N   UNL     1       2.782  -1.979   0.982  0.00  0.00    -0.312 N 
ATOM     26  C   UNL     1       1.437  -1.934   0.909  0.00  0.00    +0.218 C 
ATOM     27  O   UNL     1       0.897  -1.167   0.140  0.00  0.00    -0.275 OA
ATOM     28  H   UNL     1       3.213  -2.510   1.670  0.00  0.00    +0.149 HD
BRANCH  25  30
ATOM     29  C   UNL     1       4.379  -2.203  -0.857  0.00  0.00    +0.028 C 
ATOM     30  C   UNL     1       3.593  -1.227   0.021  0.00  0.00    +0.074 C 
BRANCH  30  31
ATOM     31  C   UNL     1       4.569  -0.322   0.776  0.00  0.00    +0.057 C 
BRANCH  31  32
ATOM     32  C   UNL     1       5.366  -1.147   1.753  0.00  0.00    -0.045 A 
ATOM     33  C   UNL     1       4.917  -1.305   3.051  0.00  0.00    +0.006 A 
ATOM     34  C   UNL     1       5.647  -2.062   3.948  0.00  0.00    +0.038 A 
ATOM     35  C   UNL     1       6.828  -2.661   3.547  0.00  0.00    +0.123 A 
ATOM     36  C   UNL     1       7.277  -2.502   2.247  0.00  0.00    +0.038 A 
ATOM     37  C   UNL     1       6.543  -1.749   1.350  0.00  0.00    +0.006 A 
ATOM     38  F   UNL     1       7.543  -3.401   4.423  0.00  0.00    -0.205 F 
ENDBRANCH  31  32
ENDBRANCH  30  31
ENDBRANCH  25  30
ENDBRANCH   1  26
TORSDOF 6
