REMARK  Name = ZINC14726025
REMARK  12 active torsions:
REMARK  status: ('A' for Active; 'I' for Inactive)
REMARK    1  A    between atoms: C_1  and  C_2
REMARK    2  A    between atoms: C_9  and  O_15
REMARK    3  A    between atoms: O_15  and  C_16
REMARK    4  A    between atoms: C_17  and  C_42
REMARK    5  A    between atoms: C_21  and  C_40
REMARK    6  A    between atoms: C_21  and  C_41
REMARK    7  A    between atoms: C_22  and  O_39
REMARK    8  A    between atoms: C_23  and  O_28
REMARK    9  A    between atoms: C_25  and  O_27
REMARK   10  A    between atoms: O_28  and  C_29
REMARK   11  A    between atoms: C_29  and  C_31
REMARK   12  A    between atoms: C_32  and  C_33
REMARK                            x       y       z     vdW  Elec       q    Type
REMARK                         _______ _______ _______ _____ _____    ______ ____
ROOT
ATOM      1  C   UNL     1      -8.413   5.859   4.012  0.00  0.00    +0.013 C 
ATOM      2  C   UNL     1      -9.325   4.878   3.275  0.00  0.00    +0.024 C 
ATOM      3  C   UNL     1      -9.034   4.925   1.757  0.00  0.00    +0.032 C 
ATOM      4  C   UNL     1     -10.093   4.128   1.004  0.00  0.00    +0.011 C 
ATOM      5  C   UNL     1     -11.484   4.759   1.180  0.00  0.00    +0.088 C 
ATOM      6  C   UNL     1     -11.883   4.630   2.653  0.00  0.00    +0.239 C 
ATOM      7  C   UNL     1     -10.767   5.287   3.450  0.00  0.00    +0.011 C 
ATOM      8  C   UNL     1     -11.322   6.200   4.217  0.00  0.00    +0.097 C 
ATOM      9  C   UNL     1     -12.771   6.225   3.972  0.00  0.00    +0.335 C 
ATOM     10  O   UNL     1     -13.566   6.928   4.565  0.00  0.00    -0.246 OA
ATOM     11  O   UNL     1     -13.083   5.364   2.981  0.00  0.00    -0.425 OA
ATOM     12  C   UNL     1      -9.751   4.054  -0.480  0.00  0.00    +0.004 C 
ATOM     13  C   UNL     1     -10.890   3.382  -1.250  0.00  0.00    +0.010 C 
ATOM     14  C   UNL     1     -11.000   1.926  -0.796  0.00  0.00    +0.001 C 
ATOM     15  C   UNL     1      -9.732   1.210  -1.249  0.00  0.00    +0.009 C 
ATOM     16  C   UNL     1      -8.483   1.821  -0.603  0.00  0.00    -0.002 C 
ATOM     17  C   UNL     1      -8.428   3.330  -0.715  0.00  0.00    +0.116 C 
ATOM     18  C   UNL     1      -7.321   3.989   0.090  0.00  0.00    +0.238 C 
ATOM     19  C   UNL     1      -7.636   4.385   1.514  0.00  0.00    +0.162 C 
ATOM     20  C   UNL     1      -8.382   1.307   0.831  0.00  0.00    +0.014 C 
ATOM     21  C   UNL     1      -7.293   1.222  -1.396  0.00  0.00    +0.014 C 
ATOM     22  C   UNL     1      -9.617   5.483  -1.044  0.00  0.00    +0.014 C 
ENDROOT
BRANCH   6  23
ATOM     23  O   UNL     1     -12.018   3.256   3.017  0.00  0.00    -0.339 OA
ATOM     24  C   UNL     1     -12.498   3.052   4.348  0.00  0.00    +0.199 C 
ENDBRANCH   6  23
BRANCH  19  25
ATOM     25  O   UNL     1      -7.319   3.339   2.432  0.00  0.00    -0.388 OA
ATOM     26  H   UNL     1      -6.387   3.081   2.427  0.00  0.00    +0.210 HD
ENDBRANCH  19  25
BRANCH  17  27
ATOM     27  O   UNL     1      -8.096   3.601  -2.114  0.00  0.00    -0.384 OA
ATOM     28  H   UNL     1      -7.240   3.247  -2.390  0.00  0.00    +0.210 HD
ENDBRANCH  17  27
BRANCH  18  29
ATOM     29  O   UNL     1      -6.112   3.219   0.075  0.00  0.00    -0.453 OA
BRANCH  29  30
ATOM     30  C   UNL     1      -4.950   3.904   0.068  0.00  0.00    +0.332 C 
ATOM     31  O   UNL     1      -4.961   5.120   0.074  0.00  0.00    -0.246 OA
BRANCH  30  32
ATOM     32  C   UNL     1      -3.677   3.185   0.053  0.00  0.00    +0.092 C 
ATOM     33  C   UNL     1      -2.515   3.870   0.045  0.00  0.00    +0.015 C 
BRANCH  33  34
ATOM     34  C   UNL     1      -1.234   3.146   0.030  0.00  0.00    -0.025 A 
ATOM     35  C   UNL     1      -1.217   1.747   0.017  0.00  0.00    +0.008 A 
ATOM     36  C   UNL     1      -0.013   1.076   0.008  0.00  0.00    +0.001 A 
ATOM     37  C   UNL     1       1.178   1.782   0.000  0.00  0.00    +0.000 A 
ATOM     38  C   UNL     1       1.169   3.166   0.008  0.00  0.00    +0.001 A 
ATOM     39  C   UNL     1      -0.027   3.852   0.022  0.00  0.00    +0.008 A 
ENDBRANCH  33  34
ENDBRANCH  30  32
ENDBRANCH  29  30
ENDBRANCH  18  29
TORSDOF 7
