REMARK  Name = ZINC16630165
REMARK  12 active torsions:
REMARK  status: ('A' for Active; 'I' for Inactive)
REMARK    1  A    between atoms: C_1  and  C_2
REMARK    2  A    between atoms: C_3  and  C_35
REMARK    3  A    between atoms: N_4  and  C_28
REMARK    4  A    between atoms: C_5  and  N_9
REMARK    5  A    between atoms: C_6  and  C_7
REMARK    6  A    between atoms: C_10  and  C_12
REMARK    7  A    between atoms: C_12  and  S_13
REMARK    8  A    between atoms: S_13  and  C_14
REMARK    9  A    between atoms: C_17  and  C_20
REMARK   10  A    between atoms: N_18  and  N_19
REMARK   11  A    between atoms: C_23  and  O_26
REMARK   12  A    between atoms: O_26  and  C_27
REMARK                            x       y       z     vdW  Elec       q    Type
REMARK                         _______ _______ _______ _____ _____    ______ ____
ROOT
ATOM      1  N   UNL     1       3.597   4.865   0.583  0.00  0.00    -0.270 N 
ATOM      2  C   UNL     1       2.376   4.382   0.280  0.00  0.00    +0.229 C 
ATOM      3  O   UNL     1       1.442   5.142   0.132  0.00  0.00    -0.275 OA
ATOM      4  H   UNL     1       4.344   4.258   0.699  0.00  0.00    +0.156 HD
ENDROOT
BRANCH   1   9
ATOM      5  C   UNL     1       5.526   9.534   0.414  0.00  0.00    +0.047 C 
ATOM      6  C   UNL     1       4.627   8.352   0.671  0.00  0.00    -0.010 A 
ATOM      7  C   UNL     1       3.439   8.370   1.296  0.00  0.00    +0.027 A 
ATOM      8  N   UNL     1       2.928   7.098   1.334  0.00  0.00    -0.300 N 
ATOM      9  C   UNL     1       3.785   6.232   0.730  0.00  0.00    +0.128 A 
ATOM     10  C   UNL     1       4.884   6.957   0.292  0.00  0.00    +0.095 A 
ATOM     11  C   UNL     1       2.772   9.595   1.865  0.00  0.00    +0.064 C 
BRANCH   8  12
ATOM     12  C   UNL     1       1.701   6.742   1.911  0.00  0.00    +0.051 A 
ATOM     13  C   UNL     1       1.672   5.933   3.039  0.00  0.00    +0.026 A 
ATOM     14  C   UNL     1       0.462   5.583   3.607  0.00  0.00    +0.005 A 
ATOM     15  C   UNL     1      -0.721   6.038   3.054  0.00  0.00    +0.038 A 
ATOM     16  C   UNL     1      -0.696   6.846   1.929  0.00  0.00    +0.125 A 
ATOM     17  C   UNL     1       0.514   7.203   1.360  0.00  0.00    +0.064 A 
ATOM     18  F   UNL     1      -1.853   7.289   1.390  0.00  0.00    -0.205 F 
ENDBRANCH   8  12
BRANCH  10  19
ATOM     19  C   UNL     1       6.034   6.448  -0.394  0.00  0.00    +0.103 C 
ATOM     20  N   UNL     1       6.947   6.044  -0.937  0.00  0.00    -0.191 NA
ENDBRANCH  10  19
ENDBRANCH   1   9
BRANCH   2  21
ATOM     21  C   UNL     1       2.171   2.897   0.125  0.00  0.00    +0.173 C 
BRANCH  21  22
ATOM     22  S   UNL     1       0.437   2.567  -0.279  0.00  0.00    -0.075 S 
BRANCH  22  23
ATOM     23  C   UNL     1       0.481   0.809  -0.399  0.00  0.00    +0.209 A 
ATOM     24  N   UNL     1       1.535   0.042  -0.231  0.00  0.00    -0.121 NA
ATOM     25  N   UNL     1       1.212  -1.192  -0.389  0.00  0.00    -0.127 NA
ATOM     26  C   UNL     1      -0.065  -1.288  -0.675  0.00  0.00    +0.182 A 
ATOM     27  N   UNL     1      -0.573  -0.010  -0.691  0.00  0.00    -0.224 N 
BRANCH  26  28
ATOM     28  C   UNL     1      -0.816  -2.535  -0.933  0.00  0.00    +0.021 A 
ATOM     29  C   UNL     1      -0.290  -3.764  -0.531  0.00  0.00    +0.015 A 
ATOM     30  C   UNL     1      -0.996  -4.925  -0.769  0.00  0.00    +0.046 A 
ATOM     31  C   UNL     1      -2.223  -4.872  -1.416  0.00  0.00    +0.120 A 
ATOM     32  C   UNL     1      -2.748  -3.652  -1.822  0.00  0.00    +0.046 A 
ATOM     33  C   UNL     1      -2.051  -2.487  -1.583  0.00  0.00    +0.015 A 
BRANCH  31  34
ATOM     34  O   UNL     1      -2.913  -6.019  -1.654  0.00  0.00    -0.495 OA
ATOM     35  C   UNL     1      -2.316  -7.239  -1.211  0.00  0.00    +0.277 C 
ENDBRANCH  31  34
ENDBRANCH  26  28
BRANCH  27  36
ATOM     36  N   UNL     1      -1.863   0.363  -0.944  0.00  0.00    -0.295 N 
ATOM     37  H   UNL     1      -2.004   0.527  -1.930  0.00  0.00    +0.163 HD
ATOM     38  H   UNL     1      -2.513  -0.324  -0.595  0.00  0.00    +0.163 HD
ENDBRANCH  27  36
ENDBRANCH  22  23
ENDBRANCH  21  22
ENDBRANCH   2  21
TORSDOF 9
