REMARK  Name = ZINC39674476
REMARK  9 active torsions:
REMARK  status: ('A' for Active; 'I' for Inactive)
REMARK    1  A    between atoms: C_1  and  C_2
REMARK    2  A    between atoms: C_4  and  C_9
REMARK    3  A    between atoms: C_5  and  C_8
REMARK    4  A    between atoms: C_9  and  C_11
REMARK    5  A    between atoms: C_9  and  N_12
REMARK    6  A    between atoms: C_13  and  C_15
REMARK    7  A    between atoms: C_26  and  C_28
REMARK    8  A    between atoms: C_31  and  C_39
REMARK    9  A    between atoms: C_33  and  C_35
REMARK                            x       y       z     vdW  Elec       q    Type
REMARK                         _______ _______ _______ _____ _____    ______ ____
ROOT
ATOM      1  C   UNL     1      -2.596  -2.039  -4.938  0.00  0.00    +0.100 C 
ATOM      2  C   UNL     1      -2.123  -0.606  -5.268  0.00  0.00    +0.121 C 
ATOM      3  N   UNL     1      -2.759  -0.292  -6.569  0.00  0.00    -0.300 N 
ATOM      4  C   UNL     1      -4.116  -0.878  -6.467  0.00  0.00    +0.115 C 
ATOM      5  C   UNL     1      -3.906  -2.213  -5.726  0.00  0.00    -0.004 C 
ATOM      6  C   UNL     1      -5.066  -2.475  -4.771  0.00  0.00    -0.010 C 
ATOM      7  C   UNL     1      -6.346  -2.703  -5.580  0.00  0.00    -0.082 C 
ATOM      8  N   UNL     1      -6.160  -3.847  -6.482  0.00  0.00    +0.379 N 
ATOM      9  C   UNL     1      -5.104  -3.549  -7.457  0.00  0.00    -0.082 C 
ATOM     10  C   UNL     1      -3.772  -3.357  -6.727  0.00  0.00    -0.010 C 
ATOM     11  C   UNL     1      -2.223   0.376  -7.610  0.00  0.00    +0.226 C 
ATOM     12  O   UNL     1      -2.877   0.555  -8.616  0.00  0.00    -0.275 OA
ATOM     13  H   UNL     1      -5.899  -4.659  -5.943  0.00  0.00    -0.086 HD
ATOM     14  H   UNL     1      -7.024  -4.033  -6.969  0.00  0.00    -0.086 HD
ENDROOT
BRANCH  11  15
ATOM     15  C   UNL     1      -0.813   0.900  -7.524  0.00  0.00    +0.150 C 
ATOM     16  C   UNL     1      -0.698   2.264  -8.184  0.00  0.00    +0.030 C 
ATOM     17  C   UNL     1      -0.130   2.086  -9.358  0.00  0.00    +0.092 C 
ATOM     18  O   UNL     1       0.164   0.793  -9.627  0.00  0.00    -0.484 OA
ATOM     19  C   UNL     1       0.148   0.050  -8.391  0.00  0.00    +0.292 C 
ATOM     20  C   UNL     1       0.165   3.215 -10.311  0.00  0.00    +0.085 C 
BRANCH  19  21
ATOM     21  C   UNL     1      -0.409  -1.359  -8.606  0.00  0.00    +0.427 C 
ATOM     22  F   UNL     1      -1.604  -1.282  -9.329  0.00  0.00    -0.167 F 
ATOM     23  F   UNL     1       0.519  -2.124  -9.319  0.00  0.00    -0.167 F 
ATOM     24  F   UNL     1      -0.652  -1.958  -7.365  0.00  0.00    -0.167 F 
ENDBRANCH  19  21
ENDBRANCH  11  15
BRANCH   1  26
ATOM     25  N   UNL     1      -2.828  -3.399  -2.885  0.00  0.00    -0.309 N 
ATOM     26  C   UNL     1      -2.851  -2.180  -3.459  0.00  0.00    +0.219 C 
ATOM     27  O   UNL     1      -3.077  -1.197  -2.787  0.00  0.00    -0.275 OA
ATOM     28  H   UNL     1      -2.647  -4.186  -3.423  0.00  0.00    +0.149 HD
BRANCH  25  29
ATOM     29  C   UNL     1      -3.076  -3.536  -1.447  0.00  0.00    +0.100 C 
ATOM     30  C   UNL     1      -1.771  -3.312  -0.681  0.00  0.00    +0.033 C 
BRANCH  29  33
ATOM     31  C   UNL     1      -1.601  -6.412  -0.882  0.00  0.00    +0.039 C 
ATOM     32  C   UNL     1      -2.975  -6.252  -1.535  0.00  0.00    +0.154 C 
ATOM     33  C   UNL     1      -3.597  -4.920  -1.157  0.00  0.00    -0.001 C 
ATOM     34  C   UNL     1      -4.713  -5.259  -0.507  0.00  0.00    +0.063 C 
ATOM     35  N   UNL     1      -4.843  -6.603  -0.445  0.00  0.00    -0.159 NA
ATOM     36  N   UNL     1      -3.928  -7.234  -0.990  0.00  0.00    -0.180 NA
ATOM     37  C   UNL     1      -5.694  -4.277   0.077  0.00  0.00    +0.067 C 
ENDBRANCH  29  33
ENDBRANCH  25  29
ENDBRANCH   1  26
TORSDOF 5
