REMARK  Name = ZINC40947292
REMARK  8 active torsions:
REMARK  status: ('A' for Active; 'I' for Inactive)
REMARK    1  A    between atoms: C_4  and  C_7
REMARK    2  A    between atoms: C_7  and  O_8
REMARK    3  A    between atoms: O_8  and  C_9
REMARK    4  A    between atoms: C_14  and  C_15
REMARK    5  A    between atoms: N_16  and  N_17
REMARK    6  A    between atoms: C_18  and  C_20
REMARK    7  A    between atoms: C_20  and  S_21
REMARK    8  A    between atoms: S_21  and  C_22
REMARK                            x       y       z     vdW  Elec       q    Type
REMARK                         _______ _______ _______ _____ _____    ______ ____
ROOT
ATOM      1  C   UNL     1       5.089  -1.395   3.923  0.00  0.00    +0.142 C 
ATOM      2  N   UNL     1       5.530  -1.678   5.111  0.00  0.00    -0.188 NA
ENDROOT
BRANCH   1   8
ATOM      3  C   UNL     1       5.496  -1.534   1.468  0.00  0.00    +0.130 A 
ATOM      4  C   UNL     1       6.025  -2.191   0.369  0.00  0.00    +0.047 A 
ATOM      5  C   UNL     1       6.690  -3.391   0.533  0.00  0.00    +0.019 A 
ATOM      6  C   UNL     1       6.833  -3.947   1.794  0.00  0.00    +0.019 A 
ATOM      7  C   UNL     1       6.312  -3.305   2.899  0.00  0.00    +0.028 A 
ATOM      8  C   UNL     1       5.643  -2.089   2.747  0.00  0.00    +0.037 A 
ATOM      9 BR   UNL     1       7.745  -5.590   2.002  0.00  0.00    -0.050 Br
BRANCH   3  10
ATOM     10  O   UNL     1       4.843  -0.354   1.308  0.00  0.00    -0.487 OA
BRANCH  10  11
ATOM     11  C   UNL     1       4.623   0.088  -0.033  0.00  0.00    +0.264 C 
BRANCH  11  15
ATOM     12  C   UNL     1       2.284   3.663   0.010  0.00  0.00    +0.000 A 
ATOM     13  C   UNL     1       3.658   3.734   0.146  0.00  0.00    +0.000 A 
ATOM     14  C   UNL     1       4.415   2.577   0.133  0.00  0.00    +0.007 A 
ATOM     15  C   UNL     1       3.798   1.349  -0.017  0.00  0.00    -0.010 A 
ATOM     16  C   UNL     1       2.424   1.278  -0.152  0.00  0.00    +0.007 A 
ATOM     17  C   UNL     1       1.667   2.435  -0.140  0.00  0.00    +0.000 A 
ENDBRANCH  11  15
ENDBRANCH  10  11
ENDBRANCH   3  10
ENDBRANCH   1   8
BRANCH   2  18
ATOM     18  N   UNL     1       6.805  -2.238   5.269  0.00  0.00    -0.206 N 
ATOM     19  C   UNL     1       7.208  -2.662   6.483  0.00  0.00    +0.242 C 
ATOM     20  O   UNL     1       6.439  -2.635   7.421  0.00  0.00    -0.273 OA
ATOM     21  H   UNL     1       7.397  -2.320   4.505  0.00  0.00    +0.177 HD
BRANCH  19  22
ATOM     22  C   UNL     1       8.614  -3.170   6.676  0.00  0.00    +0.173 C 
BRANCH  22  23
ATOM     23  S   UNL     1       8.787  -3.851   8.348  0.00  0.00    -0.088 S 
BRANCH  23  24
ATOM     24  C   UNL     1      10.495  -4.268   8.463  0.00  0.00    +0.160 A 
ATOM     25  N   UNL     1      11.467  -4.062   7.595  0.00  0.00    -0.133 NA
ATOM     26  N   UNL     1      12.746  -4.473   7.889  0.00  0.00    -0.125 NA
ATOM     27  C   UNL     1      12.996  -5.071   9.037  0.00  0.00    +0.180 A 
ATOM     28  S   UNL     1      11.376  -5.076   9.790  0.00  0.00    -0.025 S 
ATOM     29  N   UNL     1      14.199  -5.560   9.532  0.00  0.00    -0.336 N 
ATOM     30  H   UNL     1      15.009  -5.481   9.004  0.00  0.00    +0.144 HD
ATOM     31  H   UNL     1      14.229  -5.981  10.405  0.00  0.00    +0.144 HD
ENDBRANCH  23  24
ENDBRANCH  22  23
ENDBRANCH  19  22
ENDBRANCH   2  18
TORSDOF 8
