REMARK  Name = ZINC07372019
REMARK  9 active torsions:
REMARK  status: ('A' for Active; 'I' for Inactive)
REMARK    1  A    between atoms: C_1  and  C_2
REMARK    2  A    between atoms: C_2  and  C_4
REMARK    3  A    between atoms: C_2  and  N_14
REMARK    4  A    between atoms: C_15  and  C_17
REMARK    5  A    between atoms: C_17  and  O_18
REMARK    6  A    between atoms: O_18  and  C_19
REMARK    7  A    between atoms: C_19  and  C_21
REMARK    8  A    between atoms: C_23  and  N_28
REMARK    9  A    between atoms: C_26  and  N_27
REMARK                            x       y       z     vdW  Elec       q    Type
REMARK                         _______ _______ _______ _____ _____    ______ ____
ROOT
ATOM      1  N   UNL     1       1.145   1.892   0.123  0.00  0.00    -0.306 N 
ATOM      2  C   UNL     1      -0.014   1.204   0.114  0.00  0.00    +0.251 C 
ATOM      3  O   UNL     1       0.002  -0.009   0.120  0.00  0.00    -0.272 OA
ATOM      4  H   UNL     1       1.133   2.862   0.118  0.00  0.00    +0.149 HD
ENDROOT
BRANCH   1   6
ATOM      5  C   UNL     1       2.822   0.809  -1.290  0.00  0.00    +0.033 C 
ATOM      6  C   UNL     1       2.423   1.176   0.141  0.00  0.00    +0.100 C 
BRANCH   6   7
ATOM      7  C   UNL     1       3.484   2.057   0.748  0.00  0.00    -0.027 A 
ATOM      8  C   UNL     1       3.519   3.406   0.451  0.00  0.00    +0.006 A 
ATOM      9  C   UNL     1       4.495   4.205   1.008  0.00  0.00    +0.004 A 
ATOM     10  C   UNL     1       5.444   3.665   1.868  0.00  0.00    -0.044 A 
ATOM     11  C   UNL     1       5.405   2.322   2.168  0.00  0.00    -0.044 A 
ATOM     12  C   UNL     1       4.420   1.520   1.608  0.00  0.00    +0.009 A 
ATOM     13  C   UNL     1       6.394   1.671   3.100  0.00  0.00    +0.035 C 
ATOM     14  C   UNL     1       7.628   2.555   3.276  0.00  0.00    +0.005 C 
ATOM     15  C   UNL     1       7.162   3.967   3.651  0.00  0.00    +0.005 C 
ATOM     16  C   UNL     1       6.489   4.592   2.431  0.00  0.00    +0.035 C 
ENDBRANCH   6   7
ENDBRANCH   1   6
BRANCH   2  17
ATOM     17  C   UNL     1      -1.328   1.940   0.089  0.00  0.00    +0.328 C 
BRANCH  17  18
ATOM     18  O   UNL     1      -2.420   0.983   0.077  0.00  0.00    -0.452 OA
BRANCH  18  19
ATOM     19  C   UNL     1      -3.671   1.482   0.055  0.00  0.00    +0.341 C 
ATOM     20  O   UNL     1      -3.845   2.685   0.046  0.00  0.00    -0.245 OA
BRANCH  19  21
ATOM     21  C   UNL     1      -4.828   0.570   0.041  0.00  0.00    +0.082 A 
ATOM     22  C   UNL     1      -4.634  -0.810  -0.072  0.00  0.00    +0.049 A 
ATOM     23  C   UNL     1      -5.720  -1.657  -0.079  0.00  0.00    +0.127 A 
ATOM     24  C   UNL     1      -7.006  -1.149   0.016  0.00  0.00    +0.034 A 
ATOM     25  C   UNL     1      -7.214   0.210   0.123  0.00  0.00    +0.026 A 
ATOM     26  C   UNL     1      -6.132   1.081   0.137  0.00  0.00    +0.039 A 
BRANCH  26  27
ATOM     27  N   UNL     1      -6.339   2.450   0.244  0.00  0.00    -0.357 N 
ATOM     28  H   UNL     1      -5.589   3.061   0.172  0.00  0.00    +0.142 HD
ATOM     29  H   UNL     1      -7.233   2.795   0.392  0.00  0.00    +0.142 HD
ENDBRANCH  26  27
BRANCH  23  30
ATOM     30  N   UNL     1      -5.512  -3.119  -0.194  0.00  0.00    +0.056 N 
ATOM     31  O   UNL     1      -6.470  -3.871  -0.205  0.00  0.00    -0.126 OA
ATOM     32  O   UNL     1      -4.383  -3.568  -0.278  0.00  0.00    -0.126 OA
ENDBRANCH  23  30
ENDBRANCH  19  21
ENDBRANCH  18  19
ENDBRANCH  17  18
ENDBRANCH   2  17
TORSDOF 8
