REMARK  Name = ZINC42419567
REMARK  5 active torsions:
REMARK  status: ('A' for Active; 'I' for Inactive)
REMARK    1  A    between atoms: C_1  and  C_2
REMARK    2  A    between atoms: C_2  and  C_3
REMARK    3  A    between atoms: C_11  and  N_16
REMARK    4  A    between atoms: C_12  and  O_14
REMARK    5  A    between atoms: O_14  and  C_15
REMARK                            x       y       z     vdW  Elec       q    Type
REMARK                         _______ _______ _______ _____ _____    ______ ____
ROOT
ATOM      1  C   UNL     1       0.707  -0.490  -1.238  0.00  0.00    +0.115 A 
ATOM      2  N   UNL     1       0.142  -0.740  -2.387  0.00  0.00    -0.240 NA
ATOM      3  C   UNL     1       1.073  -1.153  -3.260  0.00  0.00    +0.131 A 
ATOM      4  C   UNL     1       2.265  -1.161  -2.632  0.00  0.00    +0.114 A 
ATOM      5  N   UNL     1       2.039  -0.736  -1.348  0.00  0.00    -0.288 N 
ATOM      6  C   UNL     1       2.999  -0.586  -0.341  0.00  0.00    +0.143 A 
ATOM      7  C   UNL     1       4.329  -0.874  -0.613  0.00  0.00    +0.049 A 
ATOM      8  C   UNL     1       5.275  -0.723   0.389  0.00  0.00    +0.031 A 
ATOM      9  C   UNL     1       4.852  -0.284   1.639  0.00  0.00    +0.087 A 
ATOM     10  C   UNL     1       3.499  -0.014   1.841  0.00  0.00    +0.238 A 
ATOM     11  N   UNL     1       2.628  -0.165   0.859  0.00  0.00    -0.194 NA
ENDROOT
BRANCH   9  12
ATOM     12  N   UNL     1       5.773  -0.118   2.682  0.00  0.00    -0.354 N 
ATOM     13  H   UNL     1       6.713  -0.308   2.534  0.00  0.00    +0.142 HD
ATOM     14  H   UNL     1       5.471   0.188   3.551  0.00  0.00    +0.142 HD
ENDBRANCH   9  12
BRANCH   1  16
ATOM     15  C   UNL     1      -0.019   1.526   0.010  0.00  0.00    +0.012 C 
ATOM     16  C   UNL     1       0.002  -0.004   0.002  0.00  0.00    +0.071 C 
ENDBRANCH   1  16
BRANCH  10  17
ATOM     17  O   UNL     1       3.074   0.414   3.057  0.00  0.00    -0.478 OA
ATOM     18  C   UNL     1       1.676   0.675   3.201  0.00  0.00    +0.279 C 
ENDBRANCH  10  17
TORSDOF 3
