REMARK  Name = ZINC22635226
REMARK  11 active torsions:
REMARK  status: ('A' for Active; 'I' for Inactive)
REMARK    1  A    between atoms: C_1  and  C_2
REMARK    2  A    between atoms: C_2  and  C_3
REMARK    3  A    between atoms: C_2  and  N_4
REMARK    4  A    between atoms: C_12  and  O_29
REMARK    5  A    between atoms: C_14  and  C_17
REMARK    6  A    between atoms: C_19  and  O_27
REMARK    7  A    between atoms: C_20  and  O_25
REMARK    8  A    between atoms: C_21  and  O_23
REMARK    9  A    between atoms: O_23  and  C_24
REMARK   10  A    between atoms: O_25  and  C_26
REMARK   11  A    between atoms: O_27  and  C_28
REMARK                            x       y       z     vdW  Elec       q    Type
REMARK                         _______ _______ _______ _____ _____    ______ ____
ROOT
ATOM      1  N   UNL     1      -0.749   3.048   1.275  0.00  0.00    +0.384 N 
ATOM      2  C   UNL     1      -1.532   3.558   2.409  0.00  0.00    -0.073 C 
ATOM      3  C   UNL     1      -1.238   5.045   2.625  0.00  0.00    +0.018 C 
ATOM      4  C   UNL     1      -1.423   5.765   1.294  0.00  0.00    -0.027 A 
ATOM      5  C   UNL     1      -1.431   5.058   0.138  0.00  0.00    -0.021 A 
ATOM      6  S   UNL     1      -1.669   6.268  -1.134  0.00  0.00    -0.080 S 
ATOM      7  C   UNL     1      -1.753   7.670  -0.155  0.00  0.00    +0.080 A 
ATOM      8  C   UNL     1      -1.594   7.198   1.155  0.00  0.00    +0.067 A 
ATOM      9  C   UNL     1      -1.636   8.204   2.248  0.00  0.00    +0.220 C 
ATOM     10  N   UNL     1      -1.599   9.465   1.916  0.00  0.00    -0.223 NA
ATOM     11  C   UNL     1      -1.425   9.960   0.556  0.00  0.00    +0.224 C 
ATOM     12  N   UNL     1      -1.935   9.001  -0.441  0.00  0.00    -0.313 N 
ATOM     13  C   UNL     1      -1.271   3.577   0.001  0.00  0.00    -0.035 C 
ATOM     14  H   UNL     1      -2.429   9.367  -1.353  0.00  0.00    +0.149 HD
ATOM     15  H   UNL     1       0.288   3.395   1.394  0.00  0.00    -0.081 HD
ENDROOT
BRANCH  11  16
ATOM     16  C   UNL     1       0.042  10.197   0.305  0.00  0.00    +0.002 A 
ATOM     17  C   UNL     1       0.547  10.097  -0.978  0.00  0.00    +0.057 A 
ATOM     18  C   UNL     1       1.895  10.320  -1.214  0.00  0.00    +0.166 A 
ATOM     19  C   UNL     1       2.741  10.634  -0.158  0.00  0.00    +0.204 A 
ATOM     20  C   UNL     1       2.231  10.729   1.132  0.00  0.00    +0.166 A 
ATOM     21  C   UNL     1       0.880  10.510   1.359  0.00  0.00    +0.057 A 
BRANCH  20  22
ATOM     22  O   UNL     1       3.054  11.035   2.169  0.00  0.00    -0.491 OA
ATOM     23  C   UNL     1       2.461  11.115   3.467  0.00  0.00    +0.277 C 
ENDBRANCH  20  22
BRANCH  19  24
ATOM     24  O   UNL     1       4.066  10.848  -0.384  0.00  0.00    -0.488 OA
ATOM     25  C   UNL     1       4.928   9.711  -0.310  0.00  0.00    +0.277 C 
ENDBRANCH  19  24
BRANCH  18  26
ATOM     26  O   UNL     1       2.389  10.227  -2.478  0.00  0.00    -0.491 OA
ATOM     27  C   UNL     1       1.462   9.901  -3.515  0.00  0.00    +0.277 C 
ENDBRANCH  18  26
ENDBRANCH  11  16
BRANCH   1  29
ATOM     28  C   UNL     1      -0.013   1.086   0.008  0.00  0.00    -0.014 C 
ATOM     29  C   UNL     1      -0.729   1.579   1.267  0.00  0.00    -0.074 C 
ATOM     30  C   UNL     1       0.011   1.072   2.506  0.00  0.00    -0.014 C 
ENDBRANCH   1  29
BRANCH   9  31
ATOM     31  O   UNL     1      -1.710   7.824   3.545  0.00  0.00    -0.492 OA
ATOM     32  H   UNL     1      -1.740   8.585   4.339  0.00  0.00    +0.294 HD
ENDBRANCH   9  31
TORSDOF 6
