REMARK  Name = ZINC20896683
REMARK  7 active torsions:
REMARK  status: ('A' for Active; 'I' for Inactive)
REMARK    1  A    between atoms: C_1  and  C_2
REMARK    2  A    between atoms: C_3  and  C_28
REMARK    3  A    between atoms: C_8  and  S_18
REMARK    4  A    between atoms: N_9  and  C_12
REMARK    5  A    between atoms: S_18  and  C_19
REMARK    6  A    between atoms: C_19  and  C_21
REMARK    7  A    between atoms: C_19  and  C_22
REMARK                            x       y       z     vdW  Elec       q    Type
REMARK                         _______ _______ _______ _____ _____    ______ ____
ROOT
ATOM      1  C   UNL     1      -3.657   1.081  -1.704  0.00  0.00    +0.052 C 
ATOM      2  C   UNL     1      -2.274   0.858  -1.148  0.00  0.00    -0.003 A 
ATOM      3  C   UNL     1      -1.176   1.635  -1.294  0.00  0.00    +0.007 A 
ATOM      4  C   UNL     1       0.071   1.215  -0.663  0.00  0.00    +0.080 A 
ATOM      5  C   UNL     1      -0.005   0.011   0.060  0.00  0.00    +0.117 A 
ATOM      6  S   UNL     1      -1.696  -0.491  -0.137  0.00  0.00    -0.073 S 
ATOM      7  N   UNL     1       1.045  -0.498   0.693  0.00  0.00    -0.215 NA
ATOM      8  C   UNL     1       2.212   0.113   0.666  0.00  0.00    +0.178 A 
ATOM      9  N   UNL     1       2.373   1.287  -0.014  0.00  0.00    -0.255 N 
ATOM     10  C   UNL     1       1.348   1.855  -0.675  0.00  0.00    +0.268 A 
ATOM     11  O   UNL     1       1.507   2.903  -1.278  0.00  0.00    -0.267 OA
ENDROOT
BRANCH   3  12
ATOM     12  C   UNL     1      -1.237   2.886  -2.087  0.00  0.00    -0.016 A 
ATOM     13  C   UNL     1      -1.044   4.119  -1.464  0.00  0.00    +0.011 A 
ATOM     14  C   UNL     1      -1.098   5.280  -2.207  0.00  0.00    +0.039 A 
ATOM     15  C   UNL     1      -1.351   5.224  -3.568  0.00  0.00    +0.123 A 
ATOM     16  C   UNL     1      -1.548   4.001  -4.190  0.00  0.00    +0.039 A 
ATOM     17  C   UNL     1      -1.492   2.834  -3.456  0.00  0.00    +0.011 A 
ATOM     18  F   UNL     1      -1.407   6.364  -4.291  0.00  0.00    -0.205 F 
ENDBRANCH   3  12
BRANCH   9  19
ATOM     19  C   UNL     1       3.628   1.911  -0.023  0.00  0.00    +0.052 A 
ATOM     20  C   UNL     1       3.951   2.837   0.960  0.00  0.00    +0.026 A 
ATOM     21  C   UNL     1       5.191   3.445   0.952  0.00  0.00    +0.002 A 
ATOM     22  C   UNL     1       6.105   3.142  -0.041  0.00  0.00    +0.000 A 
ATOM     23  C   UNL     1       5.784   2.225  -1.024  0.00  0.00    +0.002 A 
ATOM     24  C   UNL     1       4.548   1.609  -1.018  0.00  0.00    +0.026 A 
ENDBRANCH   9  19
BRANCH   8  25
ATOM     25  S   UNL     1       3.583  -0.594   1.519  0.00  0.00    -0.075 S 
BRANCH  25  26
ATOM     26  C   UNL     1       2.799  -2.075   2.202  0.00  0.00    +0.137 C 
ATOM     27  C   UNL     1       2.375  -3.001   1.060  0.00  0.00    +0.029 C 
BRANCH  26  28
ATOM     28  C   UNL     1       3.777  -2.795   3.095  0.00  0.00    +0.233 C 
ATOM     29  O   UNL     1       4.966  -2.586   2.984  0.00  0.00    -0.274 OA
ATOM     30  N   UNL     1       3.330  -3.671   4.016  0.00  0.00    -0.239 N 
ATOM     31  C   UNL     1       4.205  -4.315   4.814  0.00  0.00    +0.303 C 
ATOM     32  O   UNL     1       5.396  -4.105   4.703  0.00  0.00    -0.253 OA
ATOM     33  N   UNL     1       3.757  -5.191   5.735  0.00  0.00    -0.313 N 
ATOM     34  H   UNL     1       2.251  -3.861   4.116  0.00  0.00    +0.159 HD
ATOM     35  H   UNL     1       4.471  -5.717   6.387  0.00  0.00    +0.146 HD
ATOM     36  H   UNL     1       2.679  -5.382   5.835  0.00  0.00    +0.146 HD
ENDBRANCH  26  28
ENDBRANCH  25  26
ENDBRANCH   8  25
TORSDOF 5
