REMARK  Name = ZINC09033920
REMARK  5 active torsions:
REMARK  status: ('A' for Active; 'I' for Inactive)
REMARK    1  A    between atoms: C_1  and  C_2
REMARK    2  A    between atoms: C_2  and  C_3
REMARK    3  A    between atoms: C_2  and  C_4
REMARK    4  A    between atoms: C_4  and  C_5
REMARK    5  A    between atoms: N_13  and  C_16
REMARK                            x       y       z     vdW  Elec       q    Type
REMARK                         _______ _______ _______ _____ _____    ______ ____
ROOT
ATOM      1  C   UNL     1       0.052   6.302  -1.411  0.00  0.00    -0.057 C 
ATOM      2  C   UNL     1       0.359   5.674  -0.035  0.00  0.00    +0.073 C 
ATOM      3  C   UNL     1       1.910   5.692   0.075  0.00  0.00    +0.088 C 
ATOM      4  C   UNL     1       2.273   4.225   0.106  0.00  0.00    +0.229 C 
ATOM      5  O   UNL     1       3.398   3.784   0.201  0.00  0.00    -0.275 OA
ATOM      6  N   UNL     1       1.160   3.489   0.009  0.00  0.00    -0.210 N 
ATOM      7  C   UNL     1       0.030   4.199  -0.074  0.00  0.00    +0.228 C 
ATOM      8  O   UNL     1      -1.085   3.733  -0.167  0.00  0.00    -0.275 OA
ATOM      9  C   UNL     1       2.382   6.316  -1.244  0.00  0.00    +0.050 C 
ATOM     10  C   UNL     1       3.668   5.700  -1.716  0.00  0.00    -0.028 A 
ATOM     11  C   UNL     1       4.040   4.414  -2.041  0.00  0.00    +0.004 A 
ATOM     12  C   UNL     1       5.335   4.152  -2.454  0.00  0.00    +0.000 A 
ATOM     13  C   UNL     1       6.252   5.183  -2.541  0.00  0.00    +0.002 A 
ATOM     14  C   UNL     1       5.883   6.472  -2.218  0.00  0.00    +0.023 A 
ATOM     15  C   UNL     1       4.583   6.745  -1.800  0.00  0.00    +0.036 A 
ATOM     16  N   UNL     1       3.978   7.947  -1.424  0.00  0.00    -0.286 N 
ATOM     17  C   UNL     1       2.686   7.780  -1.083  0.00  0.00    +0.211 C 
ATOM     18  O   UNL     1       1.917   8.643  -0.716  0.00  0.00    -0.277 OA
ATOM     19  H   UNL     1       4.436   8.802  -1.411  0.00  0.00    +0.155 HD
ATOM     20  N   UNL     1       1.286   6.105  -2.174  0.00  0.00    +0.394 N 
ATOM     21  H   UNL     1       1.339   6.782  -2.944  0.00  0.00    -0.083 HD
ATOM     22  H   UNL     1       1.321   5.152  -2.553  0.00  0.00    -0.083 HD
ENDROOT
BRANCH   6  23
ATOM     23  C   UNL     1       1.177   2.086   0.002  0.00  0.00    +0.044 A 
ATOM     24  C   UNL     1       0.808   1.393  -1.143  0.00  0.00    +0.025 A 
ATOM     25  C   UNL     1       0.826   0.011  -1.147  0.00  0.00    +0.022 A 
ATOM     26  C   UNL     1       1.210  -0.681  -0.013  0.00  0.00    +0.041 A 
ATOM     27  C   UNL     1       1.578   0.009   1.130  0.00  0.00    +0.022 A 
ATOM     28  C   UNL     1       1.561   1.390   1.139  0.00  0.00    +0.025 A 
ATOM     29 CL   UNL     1       1.230  -2.417  -0.021  0.00  0.00    -0.084 Cl
ENDBRANCH   6  23
BRANCH   1  30
ATOM     30  C   UNL     1      -1.131   5.589  -2.069  0.00  0.00    -0.012 C 
BRANCH  30  32
ATOM     31  C   UNL     1      -0.343   6.176  -4.366  0.00  0.00    +0.007 C 
ATOM     32  C   UNL     1      -1.498   6.304  -3.371  0.00  0.00    -0.019 C 
ATOM     33  C   UNL     1      -2.756   5.668  -3.965  0.00  0.00    +0.007 C 
ENDBRANCH  30  32
ENDBRANCH   1  30
TORSDOF 3
