REMARK  Name = ZINC33396853
REMARK  9 active torsions:
REMARK  status: ('A' for Active; 'I' for Inactive)
REMARK    1  A    between atoms: C_1  and  C_2
REMARK    2  A    between atoms: C_2  and  C_3
REMARK    3  A    between atoms: C_3  and  C_4
REMARK    4  A    between atoms: C_4  and  C_5
REMARK    5  A    between atoms: C_5  and  C_6
REMARK    6  A    between atoms: C_15  and  C_19
REMARK    7  A    between atoms: N_21  and  C_22
REMARK    8  A    between atoms: C_22  and  C_23
REMARK    9  A    between atoms: C_23  and  C_24
REMARK                            x       y       z     vdW  Elec       q    Type
REMARK                         _______ _______ _______ _____ _____    ______ ____
ROOT
ATOM      1  C   UNL     1      -0.040   2.252   2.160  0.00  0.00    +0.216 C 
ATOM      2  O   UNL     1       1.142   2.483   2.023  0.00  0.00    -0.276 OA
ATOM      3  N   UNL     1      -0.707   1.563   1.212  0.00  0.00    -0.302 N 
ATOM      4  C   UNL     1      -0.013   1.086   0.008  0.00  0.00    +0.107 C 
ATOM      5  C   UNL     1      -0.760   1.597  -1.229  0.00  0.00    +0.017 C 
ATOM      6  C   UNL     1      -2.228   1.205  -1.133  0.00  0.00    -0.016 C 
ATOM      7  C   UNL     1      -2.879   1.785   0.115  0.00  0.00    +0.017 C 
ATOM      8  C   UNL     1      -2.143   1.275   1.359  0.00  0.00    +0.107 C 
ATOM      9  N   UNL     1      -2.393  -0.257  -1.188  0.00  0.00    +0.397 N 
ATOM     10  C   UNL     1      -3.043  -0.779  -2.394  0.00  0.00    +0.028 C 
ATOM     11  C   UNL     1      -4.074   0.246  -2.954  0.00  0.00    +0.061 C 
ATOM     12  S   UNL     1      -3.122   1.798  -2.626  0.00  0.00    -0.174 S 
ATOM     13  H   UNL     1      -1.405  -0.739  -1.137  0.00  0.00    -0.083 HD
ATOM     14  H   UNL     1      -3.007  -0.588  -0.338  0.00  0.00    -0.083 HD
ENDROOT
BRANCH  10  15
ATOM     15  C   UNL     1      -3.756  -2.063  -2.054  0.00  0.00    +0.200 C 
ATOM     16  O   UNL     1      -3.763  -2.468  -0.911  0.00  0.00    -0.278 OA
ATOM     17  N   UNL     1      -4.384  -2.760  -3.021  0.00  0.00    -0.316 N 
ATOM     18  H   UNL     1      -4.378  -2.393  -4.057  0.00  0.00    +0.149 HD
BRANCH  17  19
ATOM     19  C   UNL     1      -5.077  -4.009  -2.691  0.00  0.00    +0.109 C 
BRANCH  19  20
ATOM     20  C   UNL     1      -5.701  -4.596  -3.958  0.00  0.00    +0.055 C 
BRANCH  20  21
ATOM     21  C   UNL     1      -6.413  -5.880  -3.619  0.00  0.00    -0.027 A 
ATOM     22  C   UNL     1      -7.786  -5.886  -3.454  0.00  0.00    +0.006 A 
ATOM     23  C   UNL     1      -8.440  -7.064  -3.143  0.00  0.00    +0.020 A 
ATOM     24  C   UNL     1      -7.721  -8.237  -2.997  0.00  0.00    +0.042 A 
ATOM     25  C   UNL     1      -6.347  -8.231  -3.161  0.00  0.00    +0.040 A 
ATOM     26  C   UNL     1      -5.694  -7.053  -3.478  0.00  0.00    +0.046 A 
ATOM     27 CL   UNL     1      -3.971  -7.046  -3.691  0.00  0.00    -0.083 Cl
ATOM     28 CL   UNL     1      -8.542  -9.715  -2.606  0.00  0.00    -0.083 Cl
ENDBRANCH  20  21
ENDBRANCH  19  20
ENDBRANCH  17  19
ENDBRANCH  10  15
BRANCH   1  29
ATOM     29  C   UNL     1      -0.765   2.735   3.390  0.00  0.00    +0.096 C 
BRANCH  29  30
ATOM     30  C   UNL     1       0.213   3.483   4.298  0.00  0.00    +0.009 C 
BRANCH  30  31
ATOM     31  C   UNL     1      -0.522   3.973   5.546  0.00  0.00    +0.000 C 
BRANCH  31  33
ATOM     32  C   UNL     1      -0.279   5.211   7.703  0.00  0.00    +0.004 C 
ATOM     33  C   UNL     1       0.456   4.721   6.454  0.00  0.00    -0.003 C 
ENDBRANCH  31  33
ENDBRANCH  30  31
ENDBRANCH  29  30
ENDBRANCH   1  29
TORSDOF 8
