REMARK  Name = ZINC03191409
REMARK  9 active torsions:
REMARK  status: ('A' for Active; 'I' for Inactive)
REMARK    1  A    between atoms: C_1  and  C_2
REMARK    2  A    between atoms: C_2  and  O_3
REMARK    3  A    between atoms: O_3  and  C_4
REMARK    4  A    between atoms: C_4  and  C_6
REMARK    5  A    between atoms: C_7  and  N_27
REMARK    6  A    between atoms: C_11  and  C_13
REMARK    7  A    between atoms: C_16  and  C_19
REMARK    8  A    between atoms: C_23  and  C_25
REMARK    9  A    between atoms: C_23  and  C_26
REMARK                            x       y       z     vdW  Elec       q    Type
REMARK                         _______ _______ _______ _____ _____    ______ ____
ROOT
ATOM      1  C   UNL     1      -3.323   3.510   1.283  0.00  0.00    +0.105 C 
ATOM      2  C   UNL     1      -4.247   2.514   1.244  0.00  0.00    +0.195 C 
ATOM      3  O   UNL     1      -4.587   1.923   0.089  0.00  0.00    -0.446 OA
ATOM      4  C   UNL     1      -4.372   2.558  -1.079  0.00  0.00    +0.115 C 
ATOM      5  C   UNL     1      -3.467   3.548  -1.181  0.00  0.00    +0.045 C 
ATOM      6  C   UNL     1      -2.659   3.979   0.019  0.00  0.00    +0.097 C 
ATOM      7  C   UNL     1      -3.246   4.213  -2.403  0.00  0.00    +0.164 C 
ATOM      8  O   UNL     1      -2.405   5.089  -2.462  0.00  0.00    -0.292 OA
ATOM      9  C   UNL     1      -4.030   3.858  -3.637  0.00  0.00    +0.086 C 
ATOM     10  C   UNL     1      -5.399   3.314  -3.213  0.00  0.00    -0.021 C 
ATOM     11  C   UNL     1      -5.178   2.122  -2.280  0.00  0.00    +0.081 C 
ATOM     12  C   UNL     1      -6.181   4.404  -2.477  0.00  0.00    +0.012 C 
ATOM     13  C   UNL     1      -6.180   2.867  -4.450  0.00  0.00    +0.012 C 
ENDROOT
BRANCH   6  14
ATOM     14  C   UNL     1      -1.277   3.386  -0.070  0.00  0.00    -0.035 A 
ATOM     15  C   UNL     1      -1.115   2.014  -0.114  0.00  0.00    +0.005 A 
ATOM     16  C   UNL     1       0.153   1.470  -0.191  0.00  0.00    +0.003 A 
ATOM     17  C   UNL     1       1.259   2.298  -0.234  0.00  0.00    -0.050 A 
ATOM     18  C   UNL     1       1.097   3.670  -0.196  0.00  0.00    +0.003 A 
ATOM     19  C   UNL     1      -0.171   4.214  -0.114  0.00  0.00    +0.005 A 
ATOM     20  C   UNL     1       2.642   1.705  -0.324  0.00  0.00    +0.044 C 
ENDBRANCH   6  14
BRANCH   2  21
ATOM     21  N   UNL     1      -4.843   2.106   2.407  0.00  0.00    -0.329 N 
ATOM     22  H   UNL     1      -5.561   1.454   2.382  0.00  0.00    +0.145 HD
ATOM     23  H   UNL     1      -4.547   2.469   3.257  0.00  0.00    +0.145 HD
ENDBRANCH   2  21
BRANCH   1  24
ATOM     24  C   UNL     1      -2.986   4.102   2.510  0.00  0.00    +0.341 C 
ATOM     25  O   UNL     1      -3.456   5.184   2.813  0.00  0.00    -0.245 OA
BRANCH  24  26
ATOM     26  O   UNL     1      -2.141   3.472   3.355  0.00  0.00    -0.462 OA
BRANCH  26  28
ATOM     27  C   UNL     1      -0.877   3.273   5.404  0.00  0.00    +0.048 C 
ATOM     28  C   UNL     1      -1.843   4.132   4.586  0.00  0.00    +0.229 C 
ENDBRANCH  26  28
ENDBRANCH  24  26
ENDBRANCH   1  24
TORSDOF 5
