REMARK  Name = ZINC59271262
REMARK  3 active torsions:
REMARK  status: ('A' for Active; 'I' for Inactive)
REMARK    1  A    between atoms: C_6  and  N_7
REMARK    2  A    between atoms: C_10  and  C_12
REMARK    3  A    between atoms: N_14  and  C_15
REMARK                            x       y       z     vdW  Elec       q    Type
REMARK                         _______ _______ _______ _____ _____    ______ ____
ROOT
ATOM      1  N   UNL     1      -1.192  -0.739   0.036  0.00  0.00    -0.236 N 
ATOM      2  C   UNL     1      -1.399  -1.923  -0.602  0.00  0.00    +0.049 A 
ATOM      3  C   UNL     1      -2.678  -2.283  -0.362  0.00  0.00    +0.006 A 
ATOM      4  C   UNL     1      -3.221  -1.259   0.448  0.00  0.00    +0.151 A 
ATOM      5  N   UNL     1      -2.263  -0.374   0.645  0.00  0.00    -0.161 NA
ATOM      6  C   UNL     1      -2.994  -3.595  -1.038  0.00  0.00    +0.040 C 
ATOM      7  C   UNL     1      -1.871  -3.787  -2.081  0.00  0.00    +0.011 C 
ATOM      8  C   UNL     1      -0.719  -2.960  -1.468  0.00  0.00    +0.056 C 
ENDROOT
BRANCH   1  14
ATOM      9  C   UNL     1      -0.000   1.363   0.038  0.00  0.00    +0.031 A 
ATOM     10  C   UNL     1       1.189   2.065   0.037  0.00  0.00    +0.043 A 
ATOM     11  C   UNL     1       2.395   1.387   0.030  0.00  0.00    +0.159 A 
ATOM     12  C   UNL     1       2.413  -0.000   0.026  0.00  0.00    +0.160 A 
ATOM     13  C   UNL     1       1.224  -0.706   0.028  0.00  0.00    +0.069 A 
ATOM     14  C   UNL     1       0.014  -0.026   0.034  0.00  0.00    +0.069 A 
ATOM     15  F   UNL     1       3.591  -0.661   0.019  0.00  0.00    -0.202 F 
ATOM     16  F   UNL     1       3.557   2.076   0.029  0.00  0.00    -0.202 F 
ENDBRANCH   1  14
BRANCH   4  17
ATOM     17  C   UNL     1      -4.598  -1.195   0.978  0.00  0.00    +0.269 C 
ATOM     18  O   UNL     1      -5.388  -2.084   0.725  0.00  0.00    -0.268 OA
ATOM     19  N   UNL     1      -4.978  -0.152   1.742  0.00  0.00    -0.279 N 
ATOM     20  H   UNL     1      -4.331   0.524   1.997  0.00  0.00    +0.155 HD
BRANCH  19  21
ATOM     21  C   UNL     1      -6.307  -0.043   2.166  0.00  0.00    +0.054 A 
ATOM     22  C   UNL     1      -7.037  -1.186   2.466  0.00  0.00    +0.044 A 
ATOM     23  C   UNL     1      -8.350  -1.075   2.885  0.00  0.00    +0.043 A 
ATOM     24  C   UNL     1      -8.937   0.173   3.004  0.00  0.00    +0.021 A 
ATOM     25  C   UNL     1      -8.213   1.312   2.705  0.00  0.00    +0.023 A 
ATOM     26  C   UNL     1      -6.898   1.208   2.292  0.00  0.00    +0.062 A 
ATOM     27 CL   UNL     1      -5.987   2.640   1.924  0.00  0.00    -0.082 Cl
ATOM     28 CL   UNL     1      -9.263  -2.502   3.261  0.00  0.00    -0.083 Cl
ENDBRANCH  19  21
ENDBRANCH   4  17
TORSDOF 3
