REMARK  Name = ZINC67340661
REMARK  4 active torsions:
REMARK  status: ('A' for Active; 'I' for Inactive)
REMARK    1  A    between atoms: C_1  and  N_2
REMARK    2  A    between atoms: N_2  and  C_3
REMARK    3  A    between atoms: N_2  and  C_4
REMARK    4  A    between atoms: C_15  and  C_17
REMARK                            x       y       z     vdW  Elec       q    Type
REMARK                         _______ _______ _______ _____ _____    ______ ____
ROOT
ATOM      1  C   UNL     1      -0.196   0.239  -3.795  0.00  0.00    -0.047 C 
ATOM      2  C   UNL     1       1.155   0.953  -3.763  0.00  0.00    +0.023 C 
ATOM      3  C   UNL     1       2.233   0.070  -4.333  0.00  0.00    -0.027 A 
ATOM      4  C   UNL     1       3.404   0.651  -4.790  0.00  0.00    +0.005 A 
ATOM      5  C   UNL     1       4.412  -0.133  -5.315  0.00  0.00    +0.000 A 
ATOM      6  C   UNL     1       4.258  -1.506  -5.389  0.00  0.00    +0.002 A 
ATOM      7  C   UNL     1       3.094  -2.093  -4.937  0.00  0.00    +0.024 A 
ATOM      8  C   UNL     1       2.077  -1.306  -4.408  0.00  0.00    +0.040 A 
ATOM      9  N   UNL     1       0.900  -1.920  -3.962  0.00  0.00    -0.269 N 
ATOM     10  C   UNL     1      -0.044  -1.144  -3.147  0.00  0.00    +0.099 C 
ATOM     11  C   UNL     1       0.635  -3.204  -4.277  0.00  0.00    +0.256 C 
ATOM     12  O   UNL     1       1.458  -3.862  -4.886  0.00  0.00    -0.269 OA
ENDROOT
BRANCH  11  13
ATOM     13  C   UNL     1      -0.648  -3.809  -3.885  0.00  0.00    +0.102 A 
ATOM     14  C   UNL     1      -1.382  -4.546  -4.797  0.00  0.00    +0.028 A 
ATOM     15  C   UNL     1      -2.612  -5.116  -4.391  0.00  0.00    -0.001 A 
ATOM     16  C   UNL     1      -3.377  -5.870  -5.295  0.00  0.00    +0.010 A 
ATOM     17  C   UNL     1      -4.561  -6.415  -4.894  0.00  0.00    +0.001 A 
ATOM     18  C   UNL     1      -5.019  -6.231  -3.595  0.00  0.00    +0.002 A 
ATOM     19  C   UNL     1      -4.287  -5.496  -2.689  0.00  0.00    +0.026 A 
ATOM     20  C   UNL     1      -3.075  -4.928  -3.074  0.00  0.00    +0.049 A 
ATOM     21  N   UNL     1      -2.339  -4.192  -2.170  0.00  0.00    -0.321 N 
ATOM     22  H   UNL     1      -2.671  -4.073  -1.266  0.00  0.00    +0.169 HD
ATOM     23  C   UNL     1      -1.162  -3.641  -2.522  0.00  0.00    +0.261 A 
ATOM     24  O   UNL     1      -0.524  -2.998  -1.707  0.00  0.00    -0.267 OA
ENDBRANCH  11  13
BRANCH   1  26
ATOM     25  C   UNL     1      -1.265   2.379  -3.615  0.00  0.00    -0.096 C 
ATOM     26  N   UNL     1      -1.187   1.026  -3.049  0.00  0.00    +0.379 N 
ATOM     27  C   UNL     1      -2.502   0.377  -3.147  0.00  0.00    -0.096 C 
ATOM     28  H   UNL     1      -0.911   1.082  -2.080  0.00  0.00    -0.082 HD
ENDBRANCH   1  26
TORSDOF 2
