REMARK  Name = ZINC52275624
REMARK  4 active torsions:
REMARK  status: ('A' for Active; 'I' for Inactive)
REMARK    1  A    between atoms: C_1  and  C_2
REMARK    2  A    between atoms: C_5  and  N_7
REMARK    3  A    between atoms: C_8  and  C_10
REMARK    4  A    between atoms: C_16  and  C_18
REMARK                            x       y       z     vdW  Elec       q    Type
REMARK                         _______ _______ _______ _____ _____    ______ ____
ROOT
ATOM      1  C   UNL     1       3.163  -3.631   1.371  0.00  0.00    +0.093 C 
ATOM      2  C   UNL     1       2.215  -4.819   1.544  0.00  0.00    +0.040 C 
ATOM      3  C   UNL     1       1.897  -5.019   2.997  0.00  0.00    -0.030 C 
ATOM      4  C   UNL     1       2.587  -4.511   3.967  0.00  0.00    -0.030 C 
ATOM      5  C   UNL     1       3.797  -3.644   3.775  0.00  0.00    +0.042 C 
ATOM      6  C   UNL     1       4.336  -3.793   2.346  0.00  0.00    +0.118 C 
ENDROOT
BRANCH   1   8
ATOM      7  N   UNL     1       2.771  -1.212   1.034  0.00  0.00    -0.312 N 
ATOM      8  C   UNL     1       2.429  -2.349   1.670  0.00  0.00    +0.217 C 
ATOM      9  O   UNL     1       1.529  -2.342   2.484  0.00  0.00    -0.275 OA
ATOM     10  H   UNL     1       3.490  -1.218   0.383  0.00  0.00    +0.149 HD
BRANCH   7  14
ATOM     11  C   UNL     1       2.522   2.511   2.024  0.00  0.00    +0.009 C 
ATOM     12  C   UNL     1       2.796   1.349   1.068  0.00  0.00    +0.008 C 
ATOM     13  C   UNL     1       1.662   0.916   0.138  0.00  0.00    +0.027 C 
ATOM     14  C   UNL     1       2.057   0.034   1.325  0.00  0.00    +0.076 C 
ENDBRANCH   7  14
ENDBRANCH   1   8
BRANCH   6  15
ATOM     15  C   UNL     1       5.371  -2.732   2.074  0.00  0.00    +0.360 C 
ATOM     16  O   UNL     1       6.068  -2.313   2.983  0.00  0.00    -0.246 OA
ATOM     17  O   UNL     1       5.513  -2.294   0.945  0.00  0.00    -0.246 OA
ENDBRANCH   6  15
TORSDOF 3
