REMARK  Name = ZINC39325007
REMARK  13 active torsions:
REMARK  status: ('A' for Active; 'I' for Inactive)
REMARK    1  A    between atoms: C_1  and  C_2
REMARK    2  A    between atoms: C_4  and  C_37
REMARK    3  A    between atoms: C_5  and  S_9
REMARK    4  A    between atoms: C_6  and  C_8
REMARK    5  A    between atoms: S_9  and  N_12
REMARK    6  A    between atoms: N_12  and  C_13
REMARK    7  A    between atoms: N_12  and  C_20
REMARK    8  A    between atoms: C_13  and  C_14
REMARK    9  A    between atoms: C_20  and  C_21
REMARK   10  A    between atoms: C_26  and  O_35
REMARK   11  A    between atoms: C_27  and  O_33
REMARK   12  A    between atoms: O_33  and  C_34
REMARK   13  A    between atoms: O_35  and  C_36
REMARK                            x       y       z     vdW  Elec       q    Type
REMARK                         _______ _______ _______ _____ _____    ______ ____
ROOT
ATOM      1  N   UNL     1       0.721  -5.330  -0.839  0.00  0.00    -0.171 NA
ENDROOT
BRANCH   1   2
ATOM      2  S   UNL     1      -0.550  -4.380  -0.363  0.00  0.00    +0.062 S 
ATOM      3  O   UNL     1      -0.936  -4.835   0.927  0.00  0.00    -0.153 OA
ATOM      4  O   UNL     1      -1.455  -4.335  -1.457  0.00  0.00    -0.153 OA
BRANCH   2   9
ATOM      5  C   UNL     1       1.580   1.220   0.347  0.00  0.00    +0.044 C 
ATOM      6  C   UNL     1       1.048  -0.178   0.170  0.00  0.00    -0.050 A 
ATOM      7  C   UNL     1       1.060  -1.062   1.232  0.00  0.00    +0.008 A 
ATOM      8  C   UNL     1       0.571  -2.345   1.070  0.00  0.00    -0.024 A 
ATOM      9  C   UNL     1       0.071  -2.744  -0.155  0.00  0.00    +0.111 A 
ATOM     10  C   UNL     1       0.058  -1.860  -1.218  0.00  0.00    -0.024 A 
ATOM     11  C   UNL     1       0.542  -0.576  -1.054  0.00  0.00    +0.008 A 
ATOM     12  C   UNL     1      -0.487  -2.295  -2.554  0.00  0.00    +0.046 C 
ATOM     13  C   UNL     1       0.585  -3.309   2.228  0.00  0.00    +0.046 C 
ENDBRANCH   2   9
ENDBRANCH   1   2
BRANCH   1  14
ATOM     14  C   UNL     1       1.407  -6.178   0.139  0.00  0.00    +0.144 C 
BRANCH  14  15
ATOM     15  C   UNL     1       0.758  -7.537   0.169  0.00  0.00    -0.032 A 
ATOM     16  C   UNL     1      -0.294  -7.782   1.033  0.00  0.00    +0.005 A 
ATOM     17  C   UNL     1      -0.890  -9.029   1.060  0.00  0.00    +0.000 A 
ATOM     18  C   UNL     1      -0.435 -10.031   0.224  0.00  0.00    +0.000 A 
ATOM     19  C   UNL     1       0.616  -9.786  -0.640  0.00  0.00    +0.000 A 
ATOM     20  C   UNL     1       1.209  -8.538  -0.671  0.00  0.00    +0.005 A 
ENDBRANCH  14  15
ENDBRANCH   1  14
BRANCH   1  21
ATOM     21  C   UNL     1       1.158  -5.322  -2.237  0.00  0.00    +0.126 C 
BRANCH  21  22
ATOM     22  C   UNL     1       2.091  -4.132  -2.473  0.00  0.00    +0.114 C 
ATOM     23  C   UNL     1       2.257  -3.961  -3.970  0.00  0.00    -0.003 C 
ATOM     24  C   UNL     1       3.520  -4.021  -4.470  0.00  0.00    -0.003 A 
ATOM     25  C   UNL     1       3.764  -3.866  -5.906  0.00  0.00    +0.059 A 
ATOM     26  C   UNL     1       5.038  -3.932  -6.370  0.00  0.00    +0.162 A 
ATOM     27  C   UNL     1       6.122  -4.146  -5.496  0.00  0.00    +0.163 A 
ATOM     28  C   UNL     1       5.951  -4.299  -4.139  0.00  0.00    +0.073 A 
ATOM     29  C   UNL     1       4.670  -4.245  -3.573  0.00  0.00    +0.044 A 
ATOM     30  N   UNL     1       4.519  -4.395  -2.255  0.00  0.00    -0.284 N 
ATOM     31  C   UNL     1       3.343  -4.356  -1.655  0.00  0.00    +0.225 C 
ATOM     32  O   UNL     1       3.268  -4.500  -0.449  0.00  0.00    -0.275 OA
ATOM     33  H   UNL     1       5.310  -4.540  -1.713  0.00  0.00    +0.155 HD
BRANCH  27  34
ATOM     34  O   UNL     1       7.374  -4.204  -6.009  0.00  0.00    -0.491 OA
ATOM     35  C   UNL     1       8.443  -4.423  -5.087  0.00  0.00    +0.277 C 
ENDBRANCH  27  34
BRANCH  26  36
ATOM     36  O   UNL     1       5.272  -3.789  -7.701  0.00  0.00    -0.491 OA
ATOM     37  C   UNL     1       4.136  -3.574  -8.540  0.00  0.00    +0.277 C 
ENDBRANCH  26  36
ENDBRANCH  21  22
ENDBRANCH   1  21
TORSDOF 8
