REMARK  Name = ZINC46569529
REMARK  9 active torsions:
REMARK  status: ('A' for Active; 'I' for Inactive)
REMARK    1  A    between atoms: C_3  and  C_34
REMARK    2  A    between atoms: C_6  and  C_7
REMARK    3  A    between atoms: C_7  and  N_8
REMARK    4  A    between atoms: N_8  and  C_9
REMARK    5  A    between atoms: N_8  and  C_31
REMARK    6  A    between atoms: C_9  and  C_10
REMARK    7  A    between atoms: N_12  and  C_13
REMARK    8  A    between atoms: N_12  and  C_21
REMARK    9  A    between atoms: C_13  and  C_14
REMARK                            x       y       z     vdW  Elec       q    Type
REMARK                         _______ _______ _______ _____ _____    ______ ____
ROOT
ATOM      1  C   UNL     1      -3.439  -2.024  -2.910  0.00  0.00    +0.200 C 
ATOM      2  O   UNL     1      -2.760  -2.092  -3.913  0.00  0.00    -0.278 OA
ATOM      3  N   UNL     1      -4.781  -1.950  -3.009  0.00  0.00    -0.293 N 
ENDROOT
BRANCH   3   4
ATOM      4  C   UNL     1      -5.606  -1.960  -1.799  0.00  0.00    +0.038 C 
ATOM      5  C   UNL     1      -5.102  -3.046  -0.847  0.00  0.00    +0.029 C 
ATOM      6  C   UNL     1      -5.964  -3.056   0.417  0.00  0.00    -0.008 C 
ATOM      7  C   UNL     1      -5.876  -1.692   1.106  0.00  0.00    +0.007 C 
ATOM      8  C   UNL     1      -6.380  -0.606   0.153  0.00  0.00    -0.008 C 
ATOM      9  C   UNL     1      -5.518  -0.596  -1.111  0.00  0.00    +0.029 C 
ATOM     10  C   UNL     1      -7.835  -0.894  -0.224  0.00  0.00    +0.007 C 
ATOM     11  C   UNL     1      -7.923  -2.257  -0.912  0.00  0.00    -0.008 C 
ATOM     12  C   UNL     1      -7.419  -3.343   0.040  0.00  0.00    +0.007 C 
ATOM     13  C   UNL     1      -7.061  -2.247  -2.176  0.00  0.00    +0.029 C 
ENDBRANCH   3   4
BRANCH   1  14
ATOM     14  C   UNL     1      -2.782  -2.021  -1.554  0.00  0.00    +0.020 C 
BRANCH  14  15
ATOM     15  N   UNL     1      -1.383  -1.595  -1.688  0.00  0.00    +0.390 N 
ATOM     16  H   UNL     1      -0.920  -2.171  -2.376  0.00  0.00    -0.080 HD
BRANCH  15  17
ATOM     17  C   UNL     1      -0.702  -1.736  -0.394  0.00  0.00    -0.068 C 
ATOM     18  C   UNL     1       0.678  -2.397  -0.391  0.00  0.00    -0.017 C 
ATOM     19  C   UNL     1      -0.533  -3.150   0.165  0.00  0.00    -0.017 C 
ENDBRANCH  15  17
BRANCH  15  20
ATOM     20  C   UNL     1      -1.338  -0.190  -2.115  0.00  0.00    -0.042 C 
BRANCH  20  26
ATOM     21  C   UNL     1       0.637   0.051  -3.633  0.00  0.00    +0.002 A 
ATOM     22  C   UNL     1       1.945   0.416  -3.874  0.00  0.00    +0.013 A 
ATOM     23  C   UNL     1       2.719   0.949  -2.842  0.00  0.00    +0.037 A 
ATOM     24  C   UNL     1       2.163   1.109  -1.572  0.00  0.00    +0.013 A 
ATOM     25  C   UNL     1       0.854   0.739  -1.344  0.00  0.00    +0.002 A 
ATOM     26  C   UNL     1       0.092   0.211  -2.371  0.00  0.00    -0.064 A 
BRANCH  23  27
ATOM     27  C   UNL     1       4.122   1.343  -3.094  0.00  0.00    +0.242 C 
ATOM     28  O   UNL     1       4.604   1.202  -4.201  0.00  0.00    -0.270 OA
ATOM     29  N   UNL     1       4.867   1.857  -2.095  0.00  0.00    -0.325 N 
ATOM     30  H   UNL     1       4.483   1.969  -1.211  0.00  0.00    +0.145 HD
ATOM     31  H   UNL     1       5.787   2.115  -2.260  0.00  0.00    +0.145 HD
ENDBRANCH  23  27
ENDBRANCH  20  26
ENDBRANCH  15  20
ENDBRANCH  14  15
ENDBRANCH   1  14
BRANCH   3  32
ATOM     32  C   UNL     1      -5.414  -1.861  -4.327  0.00  0.00    +0.143 C 
BRANCH  32  33
ATOM     33  C   UNL     1      -5.546  -3.242  -4.916  0.00  0.00    -0.030 A 
ATOM     34  C   UNL     1      -4.451  -3.853  -5.497  0.00  0.00    +0.008 A 
ATOM     35  C   UNL     1      -4.571  -5.119  -6.037  0.00  0.00    +0.038 A 
ATOM     36  C   UNL     1      -5.789  -5.776  -5.995  0.00  0.00    +0.123 A 
ATOM     37  C   UNL     1      -6.886  -5.163  -5.413  0.00  0.00    +0.038 A 
ATOM     38  C   UNL     1      -6.762  -3.899  -4.870  0.00  0.00    +0.008 A 
ATOM     39  F   UNL     1      -5.907  -7.014  -6.523  0.00  0.00    -0.205 F 
ENDBRANCH  32  33
ENDBRANCH   3  32
TORSDOF 9
