REMARK  Name = ZINC08568289
REMARK  8 active torsions:
REMARK  status: ('A' for Active; 'I' for Inactive)
REMARK    1  A    between atoms: C_1  and  C_2
REMARK    2  A    between atoms: C_2  and  C_3
REMARK    3  A    between atoms: C_3  and  C_4
REMARK    4  A    between atoms: C_11  and  N_29
REMARK    5  A    between atoms: C_12  and  C_27
REMARK    6  A    between atoms: C_13  and  C_15
REMARK    7  A    between atoms: C_18  and  O_25
REMARK    8  A    between atoms: O_25  and  C_26
REMARK                            x       y       z     vdW  Elec       q    Type
REMARK                         _______ _______ _______ _____ _____    ______ ____
ROOT
ATOM      1  C   UNL     1       0.640  -2.455   1.098  0.00  0.00    +0.044 A 
ATOM      2  C   UNL     1       1.688  -3.034   0.494  0.00  0.00    +0.049 A 
ATOM      3  C   UNL     1       1.564  -4.433   0.645  0.00  0.00    +0.245 A 
ATOM      4  N   UNL     1       0.474  -4.670   1.316  0.00  0.00    -0.135 NA
ATOM      5  N   UNL     1      -0.128  -3.439   1.621  0.00  0.00    -0.278 N 
ATOM      6  H   UNL     1      -0.952  -3.316   2.117  0.00  0.00    +0.189 HD
ATOM      7  O   UNL     1       2.484  -5.298   0.139  0.00  0.00    -0.421 OA
ATOM      8  C   UNL     1       3.658  -4.782  -0.277  0.00  0.00    +0.201 C 
ATOM      9  C   UNL     1       3.890  -3.466  -0.468  0.00  0.00    +0.098 C 
ATOM     10  C   UNL     1       2.844  -2.404  -0.240  0.00  0.00    +0.102 C 
ENDROOT
BRANCH  10  11
ATOM     11  C   UNL     1       2.371  -1.863  -1.564  0.00  0.00    -0.027 A 
ATOM     12  C   UNL     1       1.714  -2.674  -2.438  0.00  0.00    +0.009 A 
ATOM     13  C   UNL     1       1.269  -2.195  -3.667  0.00  0.00    +0.046 A 
ATOM     14  C   UNL     1       1.478  -0.894  -4.031  0.00  0.00    +0.128 A 
ATOM     15  C   UNL     1       2.155  -0.026  -3.150  0.00  0.00    +0.024 A 
ATOM     16  C   UNL     1       2.602  -0.518  -1.899  0.00  0.00    -0.010 A 
ATOM     17  C   UNL     1       3.273   0.349  -1.018  0.00  0.00    +0.009 A 
ATOM     18  C   UNL     1       3.478   1.645  -1.376  0.00  0.00    +0.001 A 
ATOM     19  C   UNL     1       3.033   2.130  -2.605  0.00  0.00    +0.001 A 
ATOM     20  C   UNL     1       2.391   1.316  -3.487  0.00  0.00    +0.012 A 
BRANCH  14  21
ATOM     21  O   UNL     1       1.039  -0.442  -5.234  0.00  0.00    -0.495 OA
ATOM     22  C   UNL     1       0.362  -1.380  -6.072  0.00  0.00    +0.277 C 
ENDBRANCH  14  21
ENDBRANCH  10  11
BRANCH   8  23
ATOM     23  N   UNL     1       4.688  -5.655  -0.522  0.00  0.00    -0.328 N 
ATOM     24  H   UNL     1       4.557  -6.607  -0.395  0.00  0.00    +0.145 HD
ATOM     25  H   UNL     1       5.547  -5.319  -0.822  0.00  0.00    +0.145 HD
ENDBRANCH   8  23
BRANCH   9  26
ATOM     26  C   UNL     1       5.191  -3.060  -0.908  0.00  0.00    +0.101 C 
ATOM     27  N   UNL     1       6.223  -2.738  -1.258  0.00  0.00    -0.191 NA
ENDBRANCH   9  26
BRANCH   1  28
ATOM     28  C   UNL     1       0.369  -0.975   1.185  0.00  0.00    +0.055 C 
BRANCH  28  30
ATOM     29  C   UNL     1      -0.641   0.986   0.012  0.00  0.00    +0.004 C 
ATOM     30  C   UNL     1      -0.366  -0.516  -0.076  0.00  0.00    +0.003 C 
ENDBRANCH  28  30
ENDBRANCH   1  28
TORSDOF 6
