REMARK  Name = ZINC06831941
REMARK  6 active torsions:
REMARK  status: ('A' for Active; 'I' for Inactive)
REMARK    1  A    between atoms: C_1  and  C_2
REMARK    2  A    between atoms: C_4  and  C_10
REMARK    3  A    between atoms: C_6  and  C_9
REMARK    4  A    between atoms: C_7  and  O_8
REMARK    5  A    between atoms: C_11  and  C_12
REMARK    6  A    between atoms: C_19  and  N_22
REMARK                            x       y       z     vdW  Elec       q    Type
REMARK                         _______ _______ _______ _____ _____    ______ ____
ROOT
ATOM      1  C   UNL     1       4.692   1.494  -0.034  0.00  0.00    +0.065 A 
ATOM      2  C   UNL     1       4.772   0.088  -0.042  0.00  0.00    +0.028 A 
ATOM      3  C   UNL     1       3.631  -0.655  -0.036  0.00  0.00    +0.012 A 
ATOM      4  C   UNL     1       2.393   0.019  -0.021  0.00  0.00    +0.003 A 
ATOM      5  C   UNL     1       1.181  -0.687  -0.013  0.00  0.00    +0.010 A 
ATOM      6  C   UNL     1       0.002  -0.004   0.002  0.00  0.00    +0.003 A 
ATOM      7  C   UNL     1      -0.017   1.389   0.010  0.00  0.00    +0.035 A 
ATOM      8  C   UNL     1       1.140   2.107   0.003  0.00  0.00    +0.152 A 
ATOM      9  C   UNL     1       2.377   1.437  -0.013  0.00  0.00    +0.102 A 
ATOM     10  N   UNL     1       3.526   2.117  -0.020  0.00  0.00    -0.245 NA
ENDROOT
BRANCH   8  11
ATOM     11  N   UNL     1       1.096   3.586   0.010  0.00  0.00    +0.059 N 
ATOM     12  O   UNL     1       0.024   4.164   0.023  0.00  0.00    -0.126 OA
ATOM     13  O   UNL     1       2.132   4.226   0.004  0.00  0.00    -0.126 OA
ENDBRANCH   8  11
BRANCH   1  15
ATOM     14  C   UNL     1       5.872   3.629  -0.033  0.00  0.00    +0.010 C 
ATOM     15  C   UNL     1       5.932   2.286  -0.041  0.00  0.00    +0.028 C 
BRANCH  14  19
ATOM     16  C   UNL     1       8.153   8.062  -0.028  0.00  0.00    +0.047 C 
ATOM     17  C   UNL     1       8.216   6.556  -0.037  0.00  0.00    -0.008 A 
ATOM     18  C   UNL     1       7.053   5.819  -0.031  0.00  0.00    +0.015 A 
ATOM     19  C   UNL     1       7.113   4.422  -0.039  0.00  0.00    -0.024 A 
ATOM     20  C   UNL     1       8.355   3.780  -0.048  0.00  0.00    +0.015 A 
ATOM     21  C   UNL     1       9.513   4.526  -0.059  0.00  0.00    -0.008 A 
ATOM     22  C   UNL     1       9.448   5.914  -0.051  0.00  0.00    +0.123 A 
ATOM     23  C   UNL     1      10.852   3.835  -0.074  0.00  0.00    +0.047 C 
BRANCH  22  24
ATOM     24  O   UNL     1      10.593   6.645  -0.057  0.00  0.00    -0.506 OA
ATOM     25  H   UNL     1      10.932   6.851   0.825  0.00  0.00    +0.292 HD
ENDBRANCH  22  24
ENDBRANCH  14  19
ENDBRANCH   1  15
TORSDOF 4
