REMARK  Name = ZINC17856874
REMARK  9 active torsions:
REMARK  status: ('A' for Active; 'I' for Inactive)
REMARK    1  A    between atoms: C_1  and  N_2
REMARK    2  A    between atoms: C_6  and  C_13
REMARK    3  A    between atoms: N_9  and  C_12
REMARK    4  A    between atoms: C_13  and  O_14
REMARK    5  A    between atoms: O_14  and  C_15
REMARK    6  A    between atoms: C_18  and  C_21
REMARK    7  A    between atoms: C_21  and  N_22
REMARK    8  A    between atoms: N_22  and  C_23
REMARK    9  A    between atoms: C_32  and  O_35
REMARK                            x       y       z     vdW  Elec       q    Type
REMARK                         _______ _______ _______ _____ _____    ______ ____
ROOT
ATOM      1  C   UNL     1      -5.062  -5.484  -1.528  0.00  0.00    +0.121 A 
ATOM      2  C   UNL     1      -5.609  -6.131  -0.429  0.00  0.00    +0.046 A 
ATOM      3  C   UNL     1      -6.497  -7.173  -0.614  0.00  0.00    +0.005 A 
ATOM      4  C   UNL     1      -6.840  -7.572  -1.893  0.00  0.00    -0.064 A 
ATOM      5  C   UNL     1      -6.296  -6.930  -2.990  0.00  0.00    +0.005 A 
ATOM      6  C   UNL     1      -5.412  -5.883  -2.810  0.00  0.00    +0.046 A 
ENDROOT
BRANCH   1   7
ATOM      7  O   UNL     1      -4.189  -4.458  -1.349  0.00  0.00    -0.487 OA
BRANCH   7   8
ATOM      8  C   UNL     1      -3.874  -4.102  -0.001  0.00  0.00    +0.264 C 
BRANCH   8  14
ATOM      9  C   UNL     1      -0.018   1.461   0.010  0.00  0.00    +0.154 C 
ATOM     10  N   UNL     1       0.002  -0.004   0.002  0.00  0.00    -0.295 N 
ATOM     11  C   UNL     1      -1.116  -0.835   0.003  0.00  0.00    +0.070 A 
ATOM     12  C   UNL     1      -2.481  -0.592   0.010  0.00  0.00    +0.028 A 
ATOM     13  C   UNL     1      -3.368  -1.651   0.009  0.00  0.00    +0.009 A 
ATOM     14  C   UNL     1      -2.899  -2.954  -0.000  0.00  0.00    -0.008 A 
ATOM     15  C   UNL     1      -1.541  -3.205  -0.007  0.00  0.00    +0.035 A 
ATOM     16  C   UNL     1      -0.643  -2.148  -0.007  0.00  0.00    +0.070 A 
ATOM     17  N   UNL     1       0.748  -2.075  -0.013  0.00  0.00    -0.295 N 
ATOM     18  C   UNL     1       1.104  -0.777  -0.013  0.00  0.00    +0.330 A 
ATOM     19  O   UNL     1       2.249  -0.365  -0.022  0.00  0.00    -0.246 OA
ATOM     20  C   UNL     1       1.666  -3.217  -0.023  0.00  0.00    +0.154 C 
ENDBRANCH   8  14
ENDBRANCH   7   8
ENDBRANCH   1   7
BRANCH   4  21
ATOM     21  C   UNL     1      -7.808  -8.710  -2.092  0.00  0.00    -0.046 C 
BRANCH  21  22
ATOM     22  N   UNL     1      -9.178  -8.182  -2.153  0.00  0.00    +0.386 N 
ATOM     23  H   UNL     1      -9.393  -7.704  -1.291  0.00  0.00    -0.085 HD
ATOM     24  H   UNL     1      -9.255  -7.537  -2.925  0.00  0.00    -0.085 HD
BRANCH  22  25
ATOM     25  C   UNL     1     -10.121  -9.291  -2.347  0.00  0.00    -0.065 C 
ATOM     26  C   UNL     1      -9.795 -10.017  -3.654  0.00  0.00    -0.009 C 
ATOM     27  C   UNL     1     -10.778 -11.172  -3.856  0.00  0.00    -0.009 C 
ATOM     28  C   UNL     1     -10.661 -12.151  -2.686  0.00  0.00    +0.007 C 
ATOM     29  C   UNL     1     -10.987 -11.426  -1.379  0.00  0.00    -0.009 C 
ATOM     30  C   UNL     1     -10.005 -10.271  -1.177  0.00  0.00    -0.009 C 
ATOM     31  C   UNL     1     -12.414 -10.876  -1.443  0.00  0.00    +0.038 C 
ATOM     32  C   UNL     1     -12.531  -9.897  -2.613  0.00  0.00    +0.065 C 
ATOM     33  C   UNL     1     -12.204 -10.622  -3.920  0.00  0.00    +0.038 C 
ATOM     34  C   UNL     1     -11.548  -8.742  -2.411  0.00  0.00    +0.022 C 
BRANCH  32  35
ATOM     35  O   UNL     1     -13.863  -9.383  -2.673  0.00  0.00    -0.389 OA
ATOM     36  H   UNL     1     -14.541 -10.062  -2.800  0.00  0.00    +0.210 HD
ENDBRANCH  32  35
ENDBRANCH  22  25
ENDBRANCH  21  22
ENDBRANCH   4  21
TORSDOF 7
