REMARK  Name = ZINC20701445
REMARK  6 active torsions:
REMARK  status: ('A' for Active; 'I' for Inactive)
REMARK    1  A    between atoms: C_1  and  N_2
REMARK    2  A    between atoms: N_2  and  C_3
REMARK    3  A    between atoms: N_2  and  S_9
REMARK    4  A    between atoms: S_9  and  C_12
REMARK    5  A    between atoms: C_25  and  C_28
REMARK    6  A    between atoms: C_33  and  O_34
REMARK                            x       y       z     vdW  Elec       q    Type
REMARK                         _______ _______ _______ _____ _____    ______ ____
ROOT
ATOM      1  C   UNL     1       5.042   3.884   1.780  0.00  0.00    +0.109 A 
ATOM      2  C   UNL     1       3.884   3.827   2.533  0.00  0.00    +0.030 A 
ATOM      3  C   UNL     1       3.965   3.780   3.910  0.00  0.00    +0.025 A 
ATOM      4  C   UNL     1       5.207   3.801   4.534  0.00  0.00    +0.031 A 
ATOM      5  C   UNL     1       6.367   3.866   3.785  0.00  0.00    -0.018 A 
ATOM      6  C   UNL     1       6.275   3.906   2.400  0.00  0.00    +0.034 A 
ATOM      7  C   UNL     1       7.739   3.903   4.403  0.00  0.00    +0.049 C 
ATOM      8  C   UNL     1       8.407   5.196   3.952  0.00  0.00    -0.023 C 
ATOM      9  C   UNL     1       8.261   6.126   4.862  0.00  0.00    -0.030 C 
ATOM     10  C   UNL     1       7.482   5.590   6.050  0.00  0.00    +0.033 C 
ATOM     11  C   UNL     1       7.686   4.060   5.934  0.00  0.00    +0.029 C 
ATOM     12  C   UNL     1       6.522   3.305   6.547  0.00  0.00    +0.109 C 
ATOM     13  N   UNL     1       5.268   3.754   5.932  0.00  0.00    -0.336 N 
ATOM     14  H   UNL     1       4.416   4.040   6.566  0.00  0.00    +0.147 HD
ENDROOT
BRANCH  12  15
ATOM     15  C   UNL     1       6.699   1.828   6.306  0.00  0.00    +0.017 A 
ATOM     16  C   UNL     1       5.973   1.198   5.313  0.00  0.00    +0.029 A 
ATOM     17  C   UNL     1       6.135  -0.158   5.092  0.00  0.00    +0.043 A 
ATOM     18  C   UNL     1       7.023  -0.886   5.864  0.00  0.00    +0.043 A 
ATOM     19  C   UNL     1       7.750  -0.260   6.857  0.00  0.00    +0.084 A 
ATOM     20  C   UNL     1       7.594   1.102   7.077  0.00  0.00    +0.140 A 
ATOM     21 CL   UNL     1       8.865  -1.173   7.825  0.00  0.00    -0.080 Cl
ATOM     22 CL   UNL     1       5.221  -0.947   3.844  0.00  0.00    -0.083 Cl
BRANCH  20  23
ATOM     23  O   UNL     1       8.313   1.722   8.050  0.00  0.00    -0.505 OA
ATOM     24  H   UNL     1       9.023   1.145   8.661  0.00  0.00    +0.292 HD
ENDBRANCH  20  23
ENDBRANCH  12  15
BRANCH   1  25
ATOM     25  S   UNL     1       4.944   3.935   0.021  0.00  0.00    +0.074 S 
ATOM     26  O   UNL     1       6.145   4.541  -0.435  0.00  0.00    -0.150 OA
ATOM     27  O   UNL     1       3.660   4.453  -0.299  0.00  0.00    -0.150 OA
BRANCH  25  29
ATOM     28  C   UNL     1       6.250   1.681  -0.707  0.00  0.00    +0.157 C 
ATOM     29  N   UNL     1       4.970   2.369  -0.517  0.00  0.00    -0.206 N 
BRANCH  29  30
ATOM     30  C   UNL     1       3.772   1.704  -0.789  0.00  0.00    +0.051 A 
ATOM     31  C   UNL     1       2.914   2.189  -1.767  0.00  0.00    +0.025 A 
ATOM     32  C   UNL     1       1.730   1.529  -2.034  0.00  0.00    +0.002 A 
ATOM     33  C   UNL     1       1.400   0.387  -1.329  0.00  0.00    +0.000 A 
ATOM     34  C   UNL     1       2.252  -0.099  -0.355  0.00  0.00    +0.002 A 
ATOM     35  C   UNL     1       3.437   0.556  -0.083  0.00  0.00    +0.025 A 
ENDBRANCH  29  30
ENDBRANCH  25  29
ENDBRANCH   1  25
TORSDOF 5
