REMARK  Name = ZINC27497533
REMARK  2 active torsions:
REMARK  status: ('A' for Active; 'I' for Inactive)
REMARK    1  A    between atoms: C_8  and  C_19
REMARK    2  A    between atoms: N_10  and  C_11
REMARK                            x       y       z     vdW  Elec       q    Type
REMARK                         _______ _______ _______ _____ _____    ______ ____
ROOT
ATOM      1  C   UNL     1      -0.017   1.373   0.010  0.00  0.00    +0.001 A 
ATOM      2  C   UNL     1       1.170   2.091   0.002  0.00  0.00    +0.004 A 
ATOM      3  C   UNL     1       2.387   1.439  -0.015  0.00  0.00    +0.047 A 
ATOM      4  C   UNL     1       2.429   0.053  -0.024  0.00  0.00    +0.137 A 
ATOM      5  C   UNL     1       1.228  -0.679  -0.013  0.00  0.00    +0.018 A 
ATOM      6  C   UNL     1       0.002  -0.004   0.002  0.00  0.00    +0.011 A 
ATOM      7  C   UNL     1       1.278  -2.144  -0.014  0.00  0.00    +0.028 A 
ATOM      8  C   UNL     1       2.493  -2.737   0.246  0.00  0.00    +0.078 A 
ATOM      9  C   UNL     1       3.640  -1.845   0.502  0.00  0.00    +0.210 A 
ATOM     10  N   UNL     1       4.656  -2.242   1.238  0.00  0.00    -0.325 N 
ATOM     11  O   UNL     1       3.616  -0.602  -0.044  0.00  0.00    -0.439 OA
ATOM     12  H   UNL     1       4.658  -3.133   1.621  0.00  0.00    +0.169 HD
ENDROOT
BRANCH   8  13
ATOM     13  C   UNL     1       2.641  -4.205   0.268  0.00  0.00    +0.144 A 
ATOM     14  N   UNL     1       1.633  -5.103   0.036  0.00  0.00    -0.338 N 
ATOM     15  H   UNL     1       0.709  -4.891  -0.168  0.00  0.00    +0.167 HD
ATOM     16  C   UNL     1       2.179  -6.367   0.148  0.00  0.00    +0.066 A 
ATOM     17  C   UNL     1       1.667  -7.651   0.024  0.00  0.00    +0.028 A 
ATOM     18  C   UNL     1       2.497  -8.738   0.201  0.00  0.00    +0.002 A 
ATOM     19  C   UNL     1       3.840  -8.557   0.501  0.00  0.00    +0.002 A 
ATOM     20  C   UNL     1       4.362  -7.301   0.627  0.00  0.00    +0.030 A 
ATOM     21  C   UNL     1       3.539  -6.183   0.452  0.00  0.00    +0.089 A 
ATOM     22  N   UNL     1       3.760  -4.847   0.506  0.00  0.00    -0.228 NA
ENDBRANCH   8  13
BRANCH  10  23
ATOM     23  C   UNL     1       5.708  -1.398   1.463  0.00  0.00    +0.042 A 
ATOM     24  C   UNL     1       6.252  -0.659   0.410  0.00  0.00    +0.027 A 
ATOM     25  C   UNL     1       7.314   0.190   0.643  0.00  0.00    +0.017 A 
ATOM     26  C   UNL     1       7.840   0.310   1.918  0.00  0.00    +0.018 A 
ATOM     27  C   UNL     1       7.307  -0.420   2.966  0.00  0.00    +0.017 A 
ATOM     28  C   UNL     1       6.241  -1.268   2.748  0.00  0.00    +0.027 A 
ATOM     29 BR   UNL     1       9.296   1.477   2.228  0.00  0.00    -0.050 Br
ENDBRANCH  10  23
TORSDOF 2
