REMARK  Name = ZINC36027413
REMARK  5 active torsions:
REMARK  status: ('A' for Active; 'I' for Inactive)
REMARK    1  A    between atoms: C_1  and  N_2
REMARK    2  A    between atoms: C_5  and  C_25
REMARK    3  A    between atoms: N_11  and  S_14
REMARK    4  A    between atoms: S_14  and  C_17
REMARK    5  A    between atoms: C_25  and  C_26
REMARK                            x       y       z     vdW  Elec       q    Type
REMARK                         _______ _______ _______ _____ _____    ______ ____
ROOT
ATOM      1  C   UNL     1      -0.018   1.460   0.010  0.00  0.00    +0.130 C 
ATOM      2  N   UNL     1       0.002  -0.004   0.002  0.00  0.00    -0.317 N 
ATOM      3  C   UNL     1       0.002  -0.746  -1.133  0.00  0.00    +0.201 C 
ATOM      4  O   UNL     1      -0.151  -0.318  -2.255  0.00  0.00    -0.277 OA
ATOM      5  C   UNL     1       0.244  -2.191  -0.755  0.00  0.00    +0.023 C 
ATOM      6  N   UNL     1       0.714  -2.128   0.650  0.00  0.00    +0.401 N 
ATOM      7  C   UNL     1       0.025  -0.903   1.156  0.00  0.00    +0.005 C 
ATOM      8  C   UNL     1      -1.386  -1.308   1.567  0.00  0.00    +0.023 C 
ATOM      9  C   UNL     1      -2.109  -0.141   2.241  0.00  0.00    +0.109 C 
ATOM     10  N   UNL     1      -1.289   0.293   3.382  0.00  0.00    -0.177 NA
ATOM     11  C   UNL     1       0.096   0.702   3.134  0.00  0.00    +0.109 C 
ATOM     12  C   UNL     1       0.835  -0.350   2.315  0.00  0.00    +0.023 C 
ATOM     13  H   UNL     1       0.410  -2.932   1.171  0.00  0.00    -0.082 HD
ATOM     14  H   UNL     1       1.710  -2.006   0.696  0.00  0.00    -0.082 HD
ENDROOT
BRANCH  10  15
ATOM     15  S   UNL     1      -1.921   0.317   4.912  0.00  0.00    +0.061 S 
ATOM     16  O   UNL     1      -1.156   1.258   5.653  0.00  0.00    -0.153 OA
ATOM     17  O   UNL     1      -3.331   0.427   4.768  0.00  0.00    -0.153 OA
BRANCH  15  18
ATOM     18  C   UNL     1      -1.610  -1.262   5.630  0.00  0.00    +0.107 A 
ATOM     19  C   UNL     1      -2.531  -2.282   5.481  0.00  0.00    +0.030 A 
ATOM     20  C   UNL     1      -2.288  -3.521   6.044  0.00  0.00    +0.023 A 
ATOM     21  C   UNL     1      -1.123  -3.740   6.756  0.00  0.00    +0.059 A 
ATOM     22  C   UNL     1      -0.200  -2.719   6.905  0.00  0.00    +0.061 A 
ATOM     23  C   UNL     1      -0.443  -1.481   6.336  0.00  0.00    +0.050 A 
ATOM     24 CL   UNL     1       1.262  -2.992   7.799  0.00  0.00    -0.082 Cl
ATOM     25 CL   UNL     1      -0.817  -5.296   7.464  0.00  0.00    -0.082 Cl
ENDBRANCH  15  18
ENDBRANCH  10  15
BRANCH   5  26
ATOM     26  C   UNL     1       1.323  -2.803  -1.651  0.00  0.00    +0.028 C 
BRANCH  26  27
ATOM     27  C   UNL     1       1.485  -4.263  -1.315  0.00  0.00    -0.048 A 
ATOM     28  C   UNL     1       2.390  -4.652  -0.345  0.00  0.00    +0.003 A 
ATOM     29  C   UNL     1       2.539  -5.992  -0.036  0.00  0.00    +0.000 A 
ATOM     30  C   UNL     1       1.784  -6.942  -0.698  0.00  0.00    +0.000 A 
ATOM     31  C   UNL     1       0.879  -6.552  -1.668  0.00  0.00    +0.000 A 
ATOM     32  C   UNL     1       0.726  -5.213  -1.973  0.00  0.00    +0.003 A 
ENDBRANCH  26  27
ENDBRANCH   5  26
TORSDOF 4
