REMARK  Name = ZINC38657936
REMARK  12 active torsions:
REMARK  status: ('A' for Active; 'I' for Inactive)
REMARK    1  A    between atoms: C_1  and  C_2
REMARK    2  A    between atoms: C_2  and  C_4
REMARK    3  A    between atoms: C_2  and  O_31
REMARK    4  A    between atoms: C_4  and  O_6
REMARK    5  A    between atoms: O_6  and  C_7
REMARK    6  A    between atoms: C_14  and  N_30
REMARK    7  A    between atoms: C_15  and  C_28
REMARK    8  A    between atoms: C_16  and  C_18
REMARK    9  A    between atoms: O_31  and  C_32
REMARK   10  A    between atoms: C_35  and  C_38
REMARK   11  A    between atoms: C_38  and  C_39
REMARK   12  A    between atoms: C_38  and  C_40
REMARK                            x       y       z     vdW  Elec       q    Type
REMARK                         _______ _______ _______ _____ _____    ______ ____
ROOT
ATOM      1  C   UNL     1       0.979  -0.650   3.476  0.00  0.00    +0.135 A 
ATOM      2  C   UNL     1       2.255  -1.123   3.202  0.00  0.00    +0.047 A 
ATOM      3  C   UNL     1       3.058  -1.574   4.230  0.00  0.00    +0.012 A 
ATOM      4  C   UNL     1       2.597  -1.558   5.535  0.00  0.00    +0.008 A 
ATOM      5  C   UNL     1       1.324  -1.087   5.814  0.00  0.00    +0.138 A 
ATOM      6  C   UNL     1       0.516  -0.627   4.781  0.00  0.00    +0.093 A 
ATOM      7  O   UNL     1       0.854  -1.063   7.085  0.00  0.00    -0.441 OA
ATOM      8  C   UNL     1       1.711  -1.123   8.118  0.00  0.00    +0.199 C 
ATOM      9  C   UNL     1       2.976  -1.584   7.973  0.00  0.00    +0.098 C 
ATOM     10  C   UNL     1       3.489  -2.055   6.642  0.00  0.00    +0.098 C 
ENDROOT
BRANCH  10  11
ATOM     11  C   UNL     1       3.515  -3.562   6.622  0.00  0.00    -0.027 A 
ATOM     12  C   UNL     1       2.382  -4.270   6.887  0.00  0.00    +0.005 A 
ATOM     13  C   UNL     1       2.388  -5.663   6.873  0.00  0.00    +0.001 A 
ATOM     14  C   UNL     1       3.525  -6.357   6.596  0.00  0.00    +0.008 A 
ATOM     15  C   UNL     1       4.714  -5.661   6.318  0.00  0.00    -0.018 A 
ATOM     16  C   UNL     1       4.707  -4.244   6.325  0.00  0.00    -0.014 A 
ATOM     17  C   UNL     1       5.895  -3.548   6.042  0.00  0.00    +0.009 A 
ATOM     18  C   UNL     1       7.031  -4.242   5.759  0.00  0.00    +0.001 A 
ATOM     19  C   UNL     1       7.036  -5.636   5.745  0.00  0.00    +0.001 A 
ATOM     20  C   UNL     1       5.908  -6.343   6.028  0.00  0.00    +0.008 A 
ENDBRANCH  10  11
BRANCH   8  21
ATOM     21  N   UNL     1       1.293  -0.704   9.356  0.00  0.00    -0.328 N 
ATOM     22  H   UNL     1       0.389  -0.371   9.476  0.00  0.00    +0.145 HD
ATOM     23  H   UNL     1       1.900  -0.741  10.111  0.00  0.00    +0.145 HD
ENDBRANCH   8  21
BRANCH   9  24
ATOM     24  C   UNL     1       3.844  -1.621   9.112  0.00  0.00    +0.101 C 
ATOM     25  N   UNL     1       4.532  -1.651  10.015  0.00  0.00    -0.191 NA
ENDBRANCH   9  24
BRANCH   1  26
ATOM     26  O   UNL     1       0.186  -0.206   2.465  0.00  0.00    -0.423 OA
BRANCH  26  27
ATOM     27  C   UNL     1      -0.386  -1.119   1.664  0.00  0.00    +0.353 C 
ATOM     28  O   UNL     1      -0.265  -2.296   1.908  0.00  0.00    -0.246 OA
BRANCH  27  30
ATOM     29  C   UNL     1      -0.249   0.017  -0.536  0.00  0.00    +0.064 C 
ATOM     30  C   UNL     1      -1.179  -0.676   0.462  0.00  0.00    +0.279 C 
BRANCH  30  31
ATOM     31  O   UNL     1      -1.780  -1.814  -0.158  0.00  0.00    -0.478 OA
BRANCH  31  32
ATOM     32  C   UNL     1      -2.998  -1.632  -0.734  0.00  0.00    +0.122 A 
ATOM     33  C   UNL     1      -3.698  -2.719  -1.237  0.00  0.00    +0.046 A 
ATOM     34  C   UNL     1      -4.935  -2.532  -1.822  0.00  0.00    +0.007 A 
ATOM     35  C   UNL     1      -5.476  -1.262  -1.907  0.00  0.00    -0.045 A 
ATOM     36  C   UNL     1      -4.779  -0.177  -1.407  0.00  0.00    +0.007 A 
ATOM     37  C   UNL     1      -3.545  -0.360  -0.816  0.00  0.00    +0.046 A 
BRANCH  35  38
ATOM     38  C   UNL     1      -6.826  -1.060  -2.546  0.00  0.00    +0.013 C 
ATOM     39  C   UNL     1      -7.785  -0.443  -1.526  0.00  0.00    +0.012 C 
ATOM     40  C   UNL     1      -6.686  -0.123  -3.747  0.00  0.00    +0.012 C 
ENDBRANCH  35  38
ENDBRANCH  31  32
ENDBRANCH  30  31
ENDBRANCH  27  30
ENDBRANCH  26  27
ENDBRANCH   1  26
TORSDOF 9
