REMARK  Name = ZINC44034809
REMARK  9 active torsions:
REMARK  status: ('A' for Active; 'I' for Inactive)
REMARK    1  A    between atoms: C_1  and  C_2
REMARK    2  A    between atoms: C_2  and  C_3
REMARK    3  A    between atoms: C_2  and  C_4
REMARK    4  A    between atoms: C_2  and  N_6
REMARK    5  A    between atoms: C_4  and  O_5
REMARK    6  A    between atoms: C_7  and  C_9
REMARK    7  A    between atoms: C_9  and  C_10
REMARK    8  A    between atoms: C_13  and  N_16
REMARK    9  A    between atoms: C_17  and  C_19
REMARK                            x       y       z     vdW  Elec       q    Type
REMARK                         _______ _______ _______ _____ _____    ______ ____
ROOT
ATOM      1  N   UNL     1       7.999   1.345  -2.707  0.00  0.00    -0.285 N 
ATOM      2  C   UNL     1       8.449   2.051  -3.764  0.00  0.00    +0.229 C 
ATOM      3  O   UNL     1       7.691   2.345  -4.664  0.00  0.00    -0.274 OA
ATOM      4  H   UNL     1       8.587   1.168  -1.957  0.00  0.00    +0.155 HD
ENDROOT
BRANCH   2   5
ATOM      5  C   UNL     1       9.893   2.476  -3.826  0.00  0.00    +0.142 C 
ATOM      6  C   UNL     1      10.213   3.329  -2.629  0.00  0.00    +0.011 A 
ATOM      7  C   UNL     1      10.430   2.724  -1.403  0.00  0.00    +0.008 A 
ATOM      8  C   UNL     1      10.725   3.490  -0.292  0.00  0.00    +0.001 A 
ATOM      9  C   UNL     1      10.806   4.866  -0.402  0.00  0.00    +0.004 A 
ATOM     10  C   UNL     1      10.591   5.475  -1.622  0.00  0.00    +0.046 A 
ATOM     11  C   UNL     1      10.294   4.707  -2.742  0.00  0.00    +0.133 A 
ATOM     12  O   UNL     1      10.087   5.322  -3.931  0.00  0.00    -0.455 OA
ATOM     13  C   UNL     1      10.216   4.626  -5.086  0.00  0.00    +0.133 A 
ATOM     14  C   UNL     1      10.131   3.244  -5.098  0.00  0.00    +0.011 A 
ATOM     15  C   UNL     1      10.266   2.555  -6.291  0.00  0.00    +0.008 A 
ATOM     16  C   UNL     1      10.486   3.243  -7.470  0.00  0.00    +0.001 A 
ATOM     17  C   UNL     1      10.571   4.623  -7.460  0.00  0.00    +0.004 A 
ATOM     18  C   UNL     1      10.436   5.315  -6.273  0.00  0.00    +0.046 A 
ENDBRANCH   2   5
BRANCH   1  22
ATOM     19  C   UNL     1       4.083  -0.074  -2.666  0.00  0.00    -0.039 A 
ATOM     20  C   UNL     1       4.369   1.145  -3.253  0.00  0.00    +0.006 A 
ATOM     21  C   UNL     1       5.666   1.618  -3.268  0.00  0.00    +0.023 A 
ATOM     22  C   UNL     1       6.684   0.869  -2.693  0.00  0.00    +0.033 A 
ATOM     23  C   UNL     1       6.393  -0.355  -2.104  0.00  0.00    +0.023 A 
ATOM     24  C   UNL     1       5.093  -0.821  -2.088  0.00  0.00    +0.006 A 
BRANCH  19  25
ATOM     25  C   UNL     1       2.666  -0.588  -2.651  0.00  0.00    +0.130 C 
BRANCH  25  27
ATOM     26  N   UNL     1       0.684  -0.441  -1.179  0.00  0.00    -0.308 N 
ATOM     27  C   UNL     1       1.969  -0.103  -1.407  0.00  0.00    +0.218 C 
ATOM     28  O   UNL     1       2.564   0.592  -0.610  0.00  0.00    -0.275 OA
ATOM     29  H   UNL     1       0.208  -0.996  -1.816  0.00  0.00    +0.149 HD
BRANCH  26  31
ATOM     30  C   UNL     1      -0.006   1.561   0.046  0.00  0.00    +0.033 C 
ATOM     31  C   UNL     1       0.006   0.031   0.031  0.00  0.00    +0.052 C 
ATOM     32  C   UNL     1       0.749  -0.485   1.266  0.00  0.00    +0.033 C 
BRANCH  31  33
ATOM     33  C   UNL     1      -1.432  -0.490   0.046  0.00  0.00    +0.181 C 
BRANCH  33  34
ATOM     34  O   UNL     1      -2.093  -0.030   1.227  0.00  0.00    -0.393 OA
ATOM     35  H   UNL     1      -3.012  -0.323   1.303  0.00  0.00    +0.209 HD
ENDBRANCH  33  34
ENDBRANCH  31  33
ENDBRANCH  26  31
ENDBRANCH  25  27
ENDBRANCH  19  25
ENDBRANCH   1  22
TORSDOF 7
