REMARK  Name = ZINC27754083
REMARK  5 active torsions:
REMARK  status: ('A' for Active; 'I' for Inactive)
REMARK    1  A    between atoms: C_6  and  C_7
REMARK    2  A    between atoms: C_7  and  O_31
REMARK    3  A    between atoms: C_8  and  C_25
REMARK    4  A    between atoms: C_10  and  C_16
REMARK    5  A    between atoms: C_25  and  C_27
REMARK                            x       y       z     vdW  Elec       q    Type
REMARK                         _______ _______ _______ _____ _____    ______ ____
ROOT
ATOM      1  C   UNL     1       3.308   2.676   1.974  0.00  0.00    +0.172 C 
ATOM      2  C   UNL     1       2.950   4.158   1.820  0.00  0.00    +0.144 C 
ATOM      3  C   UNL     1       2.222   4.348   0.485  0.00  0.00    +0.120 C 
ATOM      4  N   UNL     1       3.060   3.830  -0.598  0.00  0.00    -0.292 N 
ATOM      5  C   UNL     1       3.927   2.826  -0.388  0.00  0.00    +0.302 C 
ATOM      6  O   UNL     1       4.592   2.425  -1.324  0.00  0.00    -0.253 OA
ATOM      7  N   UNL     1       4.088   2.248   0.811  0.00  0.00    -0.267 N 
ATOM      8  H   UNL     1       2.987   4.264  -1.606  0.00  0.00    +0.151 HD
ATOM      9  H   UNL     1       4.824   1.436   0.911  0.00  0.00    +0.153 HD
ENDROOT
BRANCH   3  10
ATOM     10  C   UNL     1       0.915   3.599   0.512  0.00  0.00    -0.023 A 
ATOM     11  C   UNL     1       0.017   3.817   1.540  0.00  0.00    +0.009 A 
ATOM     12  C   UNL     1      -1.184   3.133   1.570  0.00  0.00    +0.050 A 
ATOM     13  C   UNL     1      -1.488   2.222   0.572  0.00  0.00    +0.166 A 
ATOM     14  C   UNL     1      -0.585   2.005  -0.467  0.00  0.00    +0.167 A 
ATOM     15  C   UNL     1       0.617   2.695  -0.490  0.00  0.00    +0.055 A 
ATOM     16  O   UNL     1      -1.112   1.077  -1.317  0.00  0.00    -0.453 OA
ATOM     17  C   UNL     1      -2.519   1.033  -1.014  0.00  0.00    +0.466 C 
ATOM     18  O   UNL     1      -2.584   1.434   0.367  0.00  0.00    -0.453 OA
ENDBRANCH   3  10
BRANCH   1  24
ATOM     19  C   UNL     1       1.188   2.025   3.134  0.00  0.00    +0.009 A 
ATOM     20  C   UNL     1       0.028   1.279   3.213  0.00  0.00    +0.020 A 
ATOM     21  C   UNL     1      -0.271   0.358   2.225  0.00  0.00    +0.041 A 
ATOM     22  C   UNL     1       0.590   0.188   1.156  0.00  0.00    +0.020 A 
ATOM     23  C   UNL     1       1.747   0.939   1.075  0.00  0.00    +0.009 A 
ATOM     24  C   UNL     1       2.046   1.859   2.062  0.00  0.00    +0.003 A 
ATOM     25 CL   UNL     1      -1.725  -0.585   2.328  0.00  0.00    -0.084 Cl
ENDBRANCH   1  24
BRANCH   2  26
ATOM     26  C   UNL     1       4.208   4.987   1.833  0.00  0.00    +0.245 C 
ATOM     27  O   UNL     1       5.246   4.516   1.434  0.00  0.00    -0.287 OA
BRANCH  26  28
ATOM     28  C   UNL     1       4.171   6.404   2.346  0.00  0.00    +0.451 C 
ATOM     29  F   UNL     1       4.569   7.278   1.328  0.00  0.00    -0.163 F 
ATOM     30  F   UNL     1       2.870   6.720   2.749  0.00  0.00    -0.163 F 
ATOM     31  F   UNL     1       5.041   6.529   3.435  0.00  0.00    -0.163 F 
ENDBRANCH  26  28
ENDBRANCH   2  26
BRANCH   1  32
ATOM     32  O   UNL     1       4.082   2.492   3.161  0.00  0.00    -0.367 OA
ATOM     33  H   UNL     1       5.044   3.014   3.277  0.00  0.00    +0.212 HD
ENDBRANCH   1  32
TORSDOF 5
