REMARK  Name = ZINC60934083
REMARK  4 active torsions:
REMARK  status: ('A' for Active; 'I' for Inactive)
REMARK    1  A    between atoms: C_8  and  C_13
REMARK    2  A    between atoms: N_15  and  C_16
REMARK    3  A    between atoms: N_20  and  C_21
REMARK    4  A    between atoms: C_21  and  C_22
REMARK                            x       y       z     vdW  Elec       q    Type
REMARK                         _______ _______ _______ _____ _____    ______ ____
ROOT
ATOM      1  C   UNL     1       2.585  -4.212  -0.046  0.00  0.00    +0.266 C 
ATOM      2  O   UNL     1       1.561  -4.867  -0.039  0.00  0.00    -0.268 OA
ATOM      3  N   UNL     1       3.782  -4.832  -0.062  0.00  0.00    -0.265 N 
ATOM      4  H   UNL     1       4.599  -4.309  -0.068  0.00  0.00    +0.157 HD
ENDROOT
BRANCH   1  12
ATOM      5  C   UNL     1      -0.017   1.374   0.010  0.00  0.00    +0.001 A 
ATOM      6  C   UNL     1       1.167   2.099   0.002  0.00  0.00    +0.001 A 
ATOM      7  C   UNL     1       2.387   1.456  -0.013  0.00  0.00    +0.014 A 
ATOM      8  C   UNL     1       2.431   0.064  -0.021  0.00  0.00    +0.046 A 
ATOM      9  C   UNL     1       1.226  -0.676  -0.013  0.00  0.00    -0.011 A 
ATOM     10  C   UNL     1       0.002  -0.004   0.002  0.00  0.00    +0.009 A 
ATOM     11  C   UNL     1       1.303  -2.136  -0.022  0.00  0.00    +0.039 A 
ATOM     12  C   UNL     1       2.518  -2.739  -0.038  0.00  0.00    +0.105 A 
ATOM     13  N   UNL     1       3.692  -2.017  -0.046  0.00  0.00    -0.318 N 
ATOM     14  H   UNL     1       4.537  -2.495  -0.057  0.00  0.00    +0.169 HD
ATOM     15  C   UNL     1       3.705  -0.670  -0.038  0.00  0.00    +0.257 A 
ATOM     16  O   UNL     1       4.761  -0.066  -0.046  0.00  0.00    -0.267 OA
ENDBRANCH   1  12
BRANCH   3  17
ATOM     17  C   UNL     1       3.845  -6.223  -0.070  0.00  0.00    +0.124 A 
ATOM     18  C   UNL     1       2.785  -7.078  -0.070  0.00  0.00    +0.065 A 
ATOM     19  C   UNL     1       3.286  -8.382  -0.080  0.00  0.00    +0.136 A 
ATOM     20  N   UNL     1       4.593  -8.324  -0.086  0.00  0.00    -0.178 NA
ATOM     21  N   UNL     1       4.975  -6.976  -0.086  0.00  0.00    -0.246 N 
BRANCH  21  22
ATOM     22  C   UNL     1       6.350  -6.469  -0.097  0.00  0.00    +0.181 C 
BRANCH  22  23
ATOM     23  C   UNL     1       6.836  -6.303   1.320  0.00  0.00    -0.019 A 
ATOM     24  C   UNL     1       6.645  -5.110   1.991  0.00  0.00    +0.013 A 
ATOM     25  C   UNL     1       7.094  -4.994   3.265  0.00  0.00    +0.045 A 
ATOM     26  S   UNL     1       7.813  -6.603   3.552  0.00  0.00    -0.105 S 
ATOM     27  C   UNL     1       7.461  -7.323   1.957  0.00  0.00    +0.050 A 
ENDBRANCH  22  23
ENDBRANCH  21  22
ENDBRANCH   3  17
TORSDOF 4
