REMARK  Name = ZINC35929183
REMARK  10 active torsions:
REMARK  status: ('A' for Active; 'I' for Inactive)
REMARK    1  A    between atoms: C_1  and  N_2
REMARK    2  A    between atoms: C_3  and  N_31
REMARK    3  A    between atoms: C_5  and  C_22
REMARK    4  A    between atoms: N_11  and  C_12
REMARK    5  A    between atoms: C_12  and  C_13
REMARK    6  A    between atoms: C_13  and  C_14
REMARK    7  A    between atoms: C_17  and  O_20
REMARK    8  A    between atoms: O_20  and  C_21
REMARK    9  A    between atoms: C_25  and  O_29
REMARK   10  A    between atoms: O_29  and  C_30
REMARK                            x       y       z     vdW  Elec       q    Type
REMARK                         _______ _______ _______ _____ _____    ______ ____
ROOT
ATOM      1  C   UNL     1      -1.079   1.274  -0.019  0.00  0.00    +0.174 C 
ATOM      2  N   UNL     1      -0.589  -0.107  -0.014  0.00  0.00    -0.251 N 
ATOM      3  C   UNL     1      -0.265  -0.815  -1.110  0.00  0.00    +0.126 A 
ATOM      4  C   UNL     1       0.153  -2.071  -0.689  0.00  0.00    +0.086 A 
ATOM      5  C   UNL     1       0.614  -3.250  -1.319  0.00  0.00    +0.091 A 
ATOM      6  N   UNL     1       0.931  -4.288  -0.555  0.00  0.00    -0.214 NA
ATOM      7  C   UNL     1       0.829  -4.249   0.770  0.00  0.00    +0.218 A 
ATOM      8  N   UNL     1       0.409  -3.194   1.438  0.00  0.00    -0.193 NA
ATOM      9  C   UNL     1       0.054  -2.071   0.782  0.00  0.00    +0.188 A 
ATOM     10  N   UNL     1      -0.384  -0.883   1.133  0.00  0.00    -0.149 NA
ATOM     11  N   UNL     1       1.181  -5.379   1.487  0.00  0.00    -0.313 N 
ATOM     12  H   UNL     1       1.493  -6.171   1.022  0.00  0.00    +0.149 HD
ENDROOT
BRANCH   5  13
ATOM     13  C   UNL     1       0.738  -3.324  -2.790  0.00  0.00    +0.037 A 
ATOM     14  C   UNL     1       1.525  -2.395  -3.474  0.00  0.00    +0.016 A 
ATOM     15  C   UNL     1       1.639  -2.468  -4.844  0.00  0.00    +0.046 A 
ATOM     16  C   UNL     1       0.973  -3.464  -5.549  0.00  0.00    +0.123 A 
ATOM     17  C   UNL     1       0.189  -4.390  -4.875  0.00  0.00    +0.084 A 
ATOM     18  C   UNL     1       0.073  -4.329  -3.500  0.00  0.00    +0.136 A 
ATOM     19  F   UNL     1      -0.685  -5.234  -2.843  0.00  0.00    -0.205 F 
BRANCH  16  20
ATOM     20  O   UNL     1       1.089  -3.531  -6.900  0.00  0.00    -0.495 OA
ATOM     21  C   UNL     1       0.378  -4.579  -7.561  0.00  0.00    +0.277 C 
ENDBRANCH  16  20
ENDBRANCH   5  13
BRANCH   3  22
ATOM     22  N   UNL     1      -0.334  -0.373  -2.418  0.00  0.00    -0.343 N 
ATOM     23  H   UNL     1      -0.525   0.559  -2.606  0.00  0.00    +0.144 HD
ATOM     24  H   UNL     1      -0.192  -0.996  -3.148  0.00  0.00    +0.144 HD
ENDBRANCH   3  22
BRANCH  11  25
ATOM     25  C   UNL     1       1.083  -5.379   2.949  0.00  0.00    +0.109 C 
BRANCH  25  26
ATOM     26  C   UNL     1       1.529  -6.739   3.490  0.00  0.00    +0.054 C 
BRANCH  26  27
ATOM     27  C   UNL     1       1.428  -6.739   4.993  0.00  0.00    -0.046 A 
ATOM     28  C   UNL     1       2.507  -6.334   5.757  0.00  0.00    +0.007 A 
ATOM     29  C   UNL     1       2.417  -6.334   7.136  0.00  0.00    +0.046 A 
ATOM     30  C   UNL     1       1.243  -6.739   7.753  0.00  0.00    +0.120 A 
ATOM     31  C   UNL     1       0.162  -7.145   6.984  0.00  0.00    +0.046 A 
ATOM     32  C   UNL     1       0.255  -7.138   5.606  0.00  0.00    +0.007 A 
BRANCH  30  33
ATOM     33  O   UNL     1       1.153  -6.740   9.109  0.00  0.00    -0.495 OA
ATOM     34  C   UNL     1      -0.086  -7.171   9.677  0.00  0.00    +0.277 C 
ENDBRANCH  30  33
ENDBRANCH  26  27
ENDBRANCH  25  26
ENDBRANCH  11  25
TORSDOF 7
