REMARK  Name = ZINC30725448
REMARK  4 active torsions:
REMARK  status: ('A' for Active; 'I' for Inactive)
REMARK    1  A    between atoms: C_6  and  C_7
REMARK    2  A    between atoms: N_9  and  N_10
REMARK    3  A    between atoms: C_11  and  C_12
REMARK    4  A    between atoms: C_16  and  N_18
REMARK                            x       y       z     vdW  Elec       q    Type
REMARK                         _______ _______ _______ _____ _____    ______ ____
ROOT
ATOM      1  N   UNL     1      -2.491  -0.284  -0.086  0.00  0.00    -0.187 NA
ATOM      2  C   UNL     1      -2.500   1.012  -0.010  0.00  0.00    +0.138 C 
ENDROOT
BRANCH   2   3
ATOM      3  C   UNL     1      -1.341   1.786  -0.490  0.00  0.00    -0.003 A 
ATOM      4  C   UNL     1      -0.375   1.178  -1.296  0.00  0.00    +0.011 A 
ATOM      5  C   UNL     1       0.704   1.909  -1.746  0.00  0.00    +0.023 A 
ATOM      6  C   UNL     1       0.834   3.243  -1.397  0.00  0.00    +0.071 A 
ATOM      7  C   UNL     1      -0.116   3.851  -0.593  0.00  0.00    +0.145 A 
ATOM      8  C   UNL     1      -1.200   3.130  -0.137  0.00  0.00    +0.043 A 
ATOM      9 CL   UNL     1       2.195   4.157  -1.968  0.00  0.00    -0.081 Cl
BRANCH   7  10
ATOM     10  N   UNL     1       0.032   5.276  -0.224  0.00  0.00    +0.058 N 
ATOM     11  O   UNL     1      -0.803   5.812   0.483  0.00  0.00    -0.126 OA
ATOM     12  O   UNL     1       0.989   5.914  -0.626  0.00  0.00    -0.126 OA
ENDBRANCH   7  10
ENDBRANCH   2   3
BRANCH   1  15
ATOM     13  C   UNL     1      -1.256  -2.308  -0.305  0.00  0.00    +0.263 C 
ATOM     14  O   UNL     1      -2.299  -2.908  -0.486  0.00  0.00    -0.268 OA
ATOM     15  N   UNL     1      -1.273  -0.977  -0.095  0.00  0.00    -0.203 N 
ATOM     16  H   UNL     1      -0.330  -0.434   0.068  0.00  0.00    +0.178 HD
BRANCH  13  22
ATOM     17  C   UNL     1       1.227  -2.351  -0.114  0.00  0.00    +0.014 A 
ATOM     18  C   UNL     1       2.422  -3.039  -0.119  0.00  0.00    +0.016 A 
ATOM     19  C   UNL     1       2.435  -4.407  -0.335  0.00  0.00    +0.018 A 
ATOM     20  C   UNL     1       1.250  -5.093  -0.542  0.00  0.00    +0.016 A 
ATOM     21  C   UNL     1       0.048  -4.417  -0.533  0.00  0.00    +0.014 A 
ATOM     22  C   UNL     1       0.028  -3.038  -0.316  0.00  0.00    +0.038 A 
ATOM     23 BR   UNL     1       4.079  -5.342  -0.348  0.00  0.00    -0.050 Br
ENDBRANCH  13  22
ENDBRANCH   1  15
TORSDOF 4
