REMARK  Name = ZINC08944165
REMARK  7 active torsions:
REMARK  status: ('A' for Active; 'I' for Inactive)
REMARK    1  A    between atoms: C_1  and  C_2
REMARK    2  A    between atoms: C_5  and  C_8
REMARK    3  A    between atoms: C_8  and  C_34
REMARK    4  A    between atoms: N_11  and  C_15
REMARK    5  A    between atoms: C_15  and  N_63
REMARK    6  A    between atoms: N_18  and  S_21
REMARK    7  A    between atoms: S_21  and  C_24
REMARK                            x       y       z     vdW  Elec       q    Type
REMARK                         _______ _______ _______ _____ _____    ______ ____
ROOT
ATOM      1  C   UNL     1       3.496  -4.340  -3.097  0.00  0.00    -0.059 C 
ATOM      2  C   UNL     1       4.589  -3.283  -3.290  0.00  0.00    +0.091 C 
ATOM      3  N   UNL     1       5.875  -3.970  -3.483  0.00  0.00    -0.180 NA
ATOM      4  C   UNL     1       6.269  -4.995  -2.505  0.00  0.00    +0.091 C 
ATOM      5  C   UNL     1       5.111  -5.985  -2.343  0.00  0.00    -0.059 C 
ATOM      6  N   UNL     1       3.889  -5.231  -1.984  0.00  0.00    +0.392 N 
ATOM      7  H   UNL     1       4.083  -4.661  -1.153  0.00  0.00    -0.079 HD
ENDROOT
BRANCH   3   8
ATOM      8  S   UNL     1       6.853  -3.598  -4.766  0.00  0.00    +0.061 S 
ATOM      9  O   UNL     1       6.515  -2.277  -5.165  0.00  0.00    -0.153 OA
ATOM     10  O   UNL     1       8.173  -3.966  -4.391  0.00  0.00    -0.153 OA
BRANCH   8  11
ATOM     11  C   UNL     1       6.393  -4.659  -6.096  0.00  0.00    +0.106 A 
ATOM     12  C   UNL     1       7.026  -5.893  -6.240  0.00  0.00    +0.029 A 
ATOM     13  C   UNL     1       6.690  -6.738  -7.253  0.00  0.00    +0.010 A 
ATOM     14  C   UNL     1       5.700  -6.359  -8.175  0.00  0.00    -0.018 A 
ATOM     15  C   UNL     1       5.332  -7.203  -9.237  0.00  0.00    +0.008 A 
ATOM     16  C   UNL     1       4.368  -6.803 -10.111  0.00  0.00    +0.001 A 
ATOM     17  C   UNL     1       3.740  -5.567  -9.971  0.00  0.00    +0.001 A 
ATOM     18  C   UNL     1       4.071  -4.724  -8.955  0.00  0.00    +0.008 A 
ATOM     19  C   UNL     1       5.061  -5.103  -8.032  0.00  0.00    -0.016 A 
ATOM     20  C   UNL     1       5.430  -4.259  -6.970  0.00  0.00    +0.037 A 
ENDBRANCH   8  11
ENDBRANCH   3   8
BRANCH   6  21
ATOM     21  C   UNL     1       2.790  -6.170  -1.678  0.00  0.00    +0.043 C 
BRANCH  21  25
ATOM     22  C   UNL     1       0.058  -4.275  -0.021  0.00  0.00    +0.135 C 
ATOM     23  C   UNL     1       0.763  -4.793  -1.260  0.00  0.00    +0.249 C 
ATOM     24  O   UNL     1       0.438  -4.617  -2.414  0.00  0.00    -0.272 OA
ATOM     25  N   UNL     1       1.825  -5.490  -0.810  0.00  0.00    -0.241 N 
ATOM     26  C   UNL     1       1.889  -5.485   0.526  0.00  0.00    +0.308 C 
ATOM     27  O   UNL     1       2.759  -6.045   1.163  0.00  0.00    -0.252 OA
ATOM     28  N   UNL     1       0.883  -4.789   1.086  0.00  0.00    -0.281 N 
ATOM     29  C   UNL     1      -1.365  -4.831   0.060  0.00  0.00    +0.047 C 
ATOM     30  H   UNL     1       0.730  -4.652   2.034  0.00  0.00    +0.152 HD
BRANCH  22  35
ATOM     31  C   UNL     1      -0.018   1.503   0.010  0.00  0.00    +0.044 C 
ATOM     32  C   UNL     1       0.002  -0.004   0.002  0.00  0.00    -0.050 A 
ATOM     33  C   UNL     1      -0.006  -0.689  -1.199  0.00  0.00    +0.004 A 
ATOM     34  C   UNL     1       0.018  -2.071  -1.206  0.00  0.00    +0.006 A 
ATOM     35  C   UNL     1       0.039  -2.768  -0.013  0.00  0.00    -0.016 A 
ATOM     36  C   UNL     1       0.041  -2.084   1.188  0.00  0.00    +0.006 A 
ATOM     37  C   UNL     1       0.023  -0.702   1.195  0.00  0.00    +0.004 A 
ENDBRANCH  22  35
ENDBRANCH  21  25
ENDBRANCH   6  21
TORSDOF 5
