REMARK  Name = ZINC08072667
REMARK  7 active torsions:
REMARK  status: ('A' for Active; 'I' for Inactive)
REMARK    1  A    between atoms: C_1  and  C_2
REMARK    2  A    between atoms: C_2  and  C_4
REMARK    3  A    between atoms: C_2  and  O_19
REMARK    4  A    between atoms: N_6  and  C_7
REMARK    5  A    between atoms: C_8  and  C_16
REMARK    6  A    between atoms: O_19  and  C_20
REMARK    7  A    between atoms: C_25  and  N_26
REMARK                            x       y       z     vdW  Elec       q    Type
REMARK                         _______ _______ _______ _____ _____    ______ ____
ROOT
ATOM      1  C   UNL     1       1.135   1.822  -0.166  0.00  0.00    +0.258 C 
ATOM      2  O   UNL     1       1.200   3.017   0.031  0.00  0.00    -0.271 OA
ATOM      3  N   UNL     1      -0.065   1.231  -0.331  0.00  0.00    -0.276 N 
ATOM      4  H   UNL     1      -0.118   0.275  -0.488  0.00  0.00    +0.155 HD
ENDROOT
BRANCH   3   5
ATOM      5  C   UNL     1      -1.225   1.990  -0.282  0.00  0.00    +0.084 A 
ATOM      6  C   UNL     1      -2.538   1.569  -0.439  0.00  0.00    +0.068 A 
ATOM      7  C   UNL     1      -3.582   2.575  -0.338  0.00  0.00    -0.023 A 
ATOM      8  C   UNL     1      -3.148   3.834  -0.108  0.00  0.00    -0.004 A 
ATOM      9  S   UNL     1      -1.385   3.695  -0.018  0.00  0.00    -0.077 S 
ATOM     10  C   UNL     1      -3.986   5.066   0.036  0.00  0.00    +0.043 C 
ATOM     11  C   UNL     1      -5.396   4.756  -0.487  0.00  0.00    +0.005 C 
ATOM     12  C   UNL     1      -5.867   3.431   0.119  0.00  0.00    +0.005 C 
ATOM     13  C   UNL     1      -5.068   2.272  -0.480  0.00  0.00    +0.037 C 
BRANCH   6  14
ATOM     14  C   UNL     1      -2.861   0.162  -0.692  0.00  0.00    +0.244 C 
ATOM     15  O   UNL     1      -3.064  -0.594   0.240  0.00  0.00    -0.270 OA
ATOM     16  N   UNL     1      -2.932  -0.296  -1.958  0.00  0.00    -0.325 N 
ATOM     17  H   UNL     1      -2.770   0.306  -2.701  0.00  0.00    +0.145 HD
ATOM     18  H   UNL     1      -3.145  -1.227  -2.126  0.00  0.00    +0.145 HD
ENDBRANCH   6  14
ENDBRANCH   3   5
BRANCH   1  20
ATOM     19  C   UNL     1       2.414   0.010   0.943  0.00  0.00    +0.062 C 
ATOM     20  C   UNL     1       2.395   0.998  -0.225  0.00  0.00    +0.256 C 
BRANCH  20  21
ATOM     21  O   UNL     1       3.532   1.859  -0.139  0.00  0.00    -0.478 OA
BRANCH  21  22
ATOM     22  C   UNL     1       4.692   1.405  -0.681  0.00  0.00    +0.152 A 
ATOM     23  C   UNL     1       4.767   0.114  -1.182  0.00  0.00    +0.048 A 
ATOM     24  C   UNL     1       5.948  -0.345  -1.733  0.00  0.00    +0.004 A 
ATOM     25  C   UNL     1       7.054   0.482  -1.786  0.00  0.00    +0.002 A 
ATOM     26  C   UNL     1       6.983   1.770  -1.288  0.00  0.00    +0.036 A 
ATOM     27  C   UNL     1       5.803   2.235  -0.740  0.00  0.00    +0.168 A 
BRANCH  27  28
ATOM     28  N   UNL     1       5.725   3.615  -0.212  0.00  0.00    +0.060 N 
ATOM     29  O   UNL     1       6.700   4.343  -0.265  0.00  0.00    -0.126 OA
ATOM     30  O   UNL     1       4.685   4.024   0.274  0.00  0.00    -0.126 OA
ENDBRANCH  27  28
ENDBRANCH  21  22
ENDBRANCH  20  21
ENDBRANCH   1  20
TORSDOF 6
