REMARK  Name = ZINC13573667
REMARK  9 active torsions:
REMARK  status: ('A' for Active; 'I' for Inactive)
REMARK    1  A    between atoms: C_1  and  C_2
REMARK    2  A    between atoms: C_2  and  C_3
REMARK    3  A    between atoms: C_2  and  C_4
REMARK    4  A    between atoms: C_4  and  C_5
REMARK    5  A    between atoms: N_13  and  C_16
REMARK    6  A    between atoms: C_16  and  C_17
REMARK    7  A    between atoms: C_17  and  C_18
REMARK    8  A    between atoms: C_18  and  O_19
REMARK    9  A    between atoms: O_19  and  C_20
REMARK                            x       y       z     vdW  Elec       q    Type
REMARK                         _______ _______ _______ _____ _____    ______ ____
ROOT
ATOM      1  C   UNL     1       2.187  -0.073  -1.207  0.00  0.00    +0.068 C 
ATOM      2  C   UNL     1       2.950  -0.635  -2.426  0.00  0.00    +0.107 C 
ATOM      3  C   UNL     1       3.943   0.490  -2.829  0.00  0.00    +0.122 C 
ATOM      4  C   UNL     1       3.458   0.908  -4.199  0.00  0.00    +0.228 C 
ATOM      5  O   UNL     1       3.962   1.768  -4.889  0.00  0.00    -0.275 OA
ATOM      6  N   UNL     1       2.385   0.180  -4.532  0.00  0.00    -0.241 N 
ATOM      7  C   UNL     1       2.008  -0.730  -3.604  0.00  0.00    +0.227 C 
ATOM      8  O   UNL     1       1.073  -1.496  -3.694  0.00  0.00    -0.275 OA
ATOM      9  C   UNL     1       3.688   1.611  -1.814  0.00  0.00    +0.136 C 
ATOM     10  N   UNL     1       2.303   1.405  -1.329  0.00  0.00    -0.295 NA
ATOM     11  C   UNL     1       3.844   2.968  -2.440  0.00  0.00    +0.004 A 
ATOM     12  C   UNL     1       3.222   3.604  -3.491  0.00  0.00    +0.023 A 
ATOM     13  C   UNL     1       3.596   4.890  -3.842  0.00  0.00    +0.018 A 
ATOM     14  C   UNL     1       4.597   5.533  -3.134  0.00  0.00    +0.017 A 
ATOM     15  C   UNL     1       5.222   4.899  -2.080  0.00  0.00    +0.025 A 
ATOM     16  C   UNL     1       4.851   3.605  -1.721  0.00  0.00    +0.039 A 
ATOM     17  N   UNL     1       5.325   2.768  -0.708  0.00  0.00    -0.283 N 
ATOM     18  C   UNL     1       4.694   1.578  -0.695  0.00  0.00    +0.243 C 
ATOM     19  O   UNL     1       4.897   0.659   0.069  0.00  0.00    -0.273 OA
ATOM     20 BR   UNL     1       2.744   5.765  -5.285  0.00  0.00    -0.050 Br
ATOM     21  H   UNL     1       1.625   1.768  -1.981  0.00  0.00    +0.123 HD
ATOM     22  H   UNL     1       6.028   3.015  -0.087  0.00  0.00    +0.155 HD
ENDROOT
BRANCH   1  23
ATOM     23  C   UNL     1       0.718  -0.497  -1.257  0.00  0.00    +0.022 C 
BRANCH  23  25
ATOM     24  C   UNL     1      -0.019   1.526   0.010  0.00  0.00    +0.007 C 
ATOM     25  C   UNL     1       0.002  -0.004   0.002  0.00  0.00    -0.016 C 
ATOM     26  C   UNL     1      -1.433  -0.534   0.013  0.00  0.00    +0.007 C 
ENDBRANCH  23  25
ENDBRANCH   1  23
BRANCH   6  27
ATOM     27  C   UNL     1       1.676   0.350  -5.802  0.00  0.00    +0.118 C 
BRANCH  27  28
ATOM     28  C   UNL     1       2.287  -0.577  -6.855  0.00  0.00    +0.047 C 
BRANCH  28  29
ATOM     29  C   UNL     1       1.547  -0.400  -8.182  0.00  0.00    +0.161 C 
BRANCH  29  30
ATOM     30  O   UNL     1       2.118  -1.266  -9.165  0.00  0.00    -0.383 OA
ATOM     31  C   UNL     1       1.495  -1.178 -10.449  0.00  0.00    +0.193 C 
ENDBRANCH  29  30
ENDBRANCH  28  29
ENDBRANCH  27  28
ENDBRANCH   6  27
TORSDOF 6
