REMARK  Name = ZINC08000981
REMARK  4 active torsions:
REMARK  status: ('A' for Active; 'I' for Inactive)
REMARK    1  A    between atoms: C_3  and  C_6
REMARK    2  A    between atoms: C_15  and  C_16
REMARK    3  A    between atoms: C_15  and  N_52
REMARK    4  A    between atoms: N_21  and  C_22
REMARK                            x       y       z     vdW  Elec       q    Type
REMARK                         _______ _______ _______ _____ _____    ______ ____
ROOT
ATOM      1  C   UNL     1       2.248   3.457  -2.259  0.00  0.00    +0.020 C 
ENDROOT
BRANCH   1  10
ATOM      2  C   UNL     1       2.344   5.297  -0.689  0.00  0.00    +0.002 C 
ATOM      3  C   UNL     1       2.679   5.651   0.757  0.00  0.00    -0.046 A 
ATOM      4  C   UNL     1       2.268   6.825   1.383  0.00  0.00    +0.010 A 
ATOM      5  C   UNL     1       2.608   7.059   2.672  0.00  0.00    +0.045 A 
ATOM      6  S   UNL     1       3.552   5.596   3.076  0.00  0.00    -0.101 S 
ATOM      7  C   UNL     1       3.422   4.789   1.506  0.00  0.00    -0.010 A 
ATOM      8  C   UNL     1       3.980   3.476   1.063  0.00  0.00    +0.024 C 
ATOM      9  C   UNL     1       3.880   3.417  -0.470  0.00  0.00    -0.072 C 
ATOM     10  N   UNL     1       2.510   3.834  -0.857  0.00  0.00    +0.393 N 
ATOM     11  H   UNL     1       1.835   3.353  -0.251  0.00  0.00    -0.080 HD
BRANCH   2  14
ATOM     12  C   UNL     1      -0.950   6.873  -1.773  0.00  0.00    +0.008 A 
ATOM     13  C   UNL     1       0.418   6.749  -1.618  0.00  0.00    +0.010 A 
ATOM     14  C   UNL     1       0.911   5.659  -0.980  0.00  0.00    -0.019 A 
ATOM     15  S   UNL     1      -0.579   4.763  -0.575  0.00  0.00    -0.103 S 
ATOM     16  C   UNL     1      -1.758   5.902  -1.283  0.00  0.00    +0.045 A 
ENDBRANCH   2  14
ENDBRANCH   1  10
BRANCH   1  17
ATOM     17  C   UNL     1       3.239   4.114  -3.186  0.00  0.00    +0.204 C 
ATOM     18  O   UNL     1       4.151   4.770  -2.731  0.00  0.00    -0.277 OA
ATOM     19  N   UNL     1       3.111   3.972  -4.520  0.00  0.00    -0.242 N 
ATOM     20  C   UNL     1       3.997   4.559  -5.348  0.00  0.00    +0.306 C 
ATOM     21  O   UNL     1       4.911   5.217  -4.892  0.00  0.00    -0.252 OA
ATOM     22  N   UNL     1       3.869   4.417  -6.682  0.00  0.00    -0.296 N 
ATOM     23  H   UNL     1       2.381   3.446  -4.884  0.00  0.00    +0.159 HD
ATOM     24  H   UNL     1       3.139   3.892  -7.046  0.00  0.00    +0.151 HD
BRANCH  22  25
ATOM     25  C   UNL     1       4.832   5.056  -7.582  0.00  0.00    +0.074 C 
ATOM     26  C   UNL     1       4.405   6.502  -7.843  0.00  0.00    +0.022 C 
ATOM     27  C   UNL     1       5.411   7.169  -8.784  0.00  0.00    +0.002 C 
ATOM     28  C   UNL     1       5.457   6.404 -10.108  0.00  0.00    +0.000 C 
ATOM     29  C   UNL     1       5.883   4.958  -9.847  0.00  0.00    +0.002 C 
ATOM     30  C   UNL     1       4.877   4.291  -8.907  0.00  0.00    +0.022 C 
ENDBRANCH  22  25
ENDBRANCH   1  17
TORSDOF 4
