REMARK  Name = ZINC06831742
REMARK  5 active torsions:
REMARK  status: ('A' for Active; 'I' for Inactive)
REMARK    1  A    between atoms: C_4  and  C_7
REMARK    2  A    between atoms: C_8  and  C_13
REMARK    3  A    between atoms: C_13  and  C_14
REMARK    4  A    between atoms: N_16  and  N_17
REMARK    5  A    between atoms: C_18  and  C_19
REMARK                            x       y       z     vdW  Elec       q    Type
REMARK                         _______ _______ _______ _____ _____    ______ ____
ROOT
ATOM      1  C   UNL     1       0.789   3.545   0.013  0.00  0.00    +0.084 A 
ATOM      2  C   UNL     1      -0.491   4.022   0.027  0.00  0.00    +0.028 A 
ATOM      3  S   UNL     1      -1.417   2.492   0.021  0.00  0.00    -0.056 S 
ATOM      4  C   UNL     1      -0.017   1.381   0.010  0.00  0.00    +0.156 A 
ATOM      5  N   UNL     1       0.995   2.230   0.004  0.00  0.00    -0.225 NA
ATOM      6  N   UNL     1       0.002  -0.004   0.002  0.00  0.00    -0.337 N 
ATOM      7  H   UNL     1       0.849  -0.478  -0.008  0.00  0.00    +0.144 HD
ATOM      8  H   UNL     1      -0.831  -0.500   0.007  0.00  0.00    +0.144 HD
ENDROOT
BRANCH   1  12
ATOM      9  C   UNL     1       4.083   6.234  -0.006  0.00  0.00    +0.000 A 
ATOM     10  C   UNL     1       4.177   5.034   0.676  0.00  0.00    +0.001 A 
ATOM     11  C   UNL     1       3.111   4.157   0.686  0.00  0.00    +0.010 A 
ATOM     12  C   UNL     1       1.938   4.483   0.006  0.00  0.00    +0.001 A 
ATOM     13  C   UNL     1       1.851   5.691  -0.684  0.00  0.00    +0.010 A 
ATOM     14  C   UNL     1       2.922   6.562  -0.682  0.00  0.00    +0.001 A 
ENDBRANCH   1  12
BRANCH   2  15
ATOM     15  C   UNL     1      -0.986   5.445   0.038  0.00  0.00    +0.142 C 
BRANCH  15  16
ATOM     16  C   UNL     1      -1.164   5.926  -1.379  0.00  0.00    +0.237 C 
ATOM     17  O   UNL     1      -0.913   5.186  -2.307  0.00  0.00    -0.274 OA
ATOM     18  N   UNL     1      -1.602   7.179  -1.615  0.00  0.00    -0.207 N 
ATOM     19  H   UNL     1      -1.802   7.771  -0.873  0.00  0.00    +0.177 HD
BRANCH  18  20
ATOM     20  N   UNL     1      -1.768   7.626  -2.932  0.00  0.00    -0.188 NA
ATOM     21  C   UNL     1      -2.189   8.832  -3.159  0.00  0.00    +0.138 C 
BRANCH  21  22
ATOM     22  C   UNL     1      -2.364   9.303  -4.546  0.00  0.00    -0.005 A 
ATOM     23  C   UNL     1      -2.070   8.455  -5.617  0.00  0.00    +0.012 A 
ATOM     24  C   UNL     1      -2.240   8.899  -6.911  0.00  0.00    +0.039 A 
ATOM     25  C   UNL     1      -2.691  10.188  -7.151  0.00  0.00    +0.123 A 
ATOM     26  C   UNL     1      -2.978  11.036  -6.092  0.00  0.00    +0.039 A 
ATOM     27  C   UNL     1      -2.817  10.601  -4.794  0.00  0.00    +0.012 A 
ATOM     28  F   UNL     1      -2.851  10.620  -8.421  0.00  0.00    -0.205 F 
ENDBRANCH  21  22
ENDBRANCH  18  20
ENDBRANCH  15  16
ENDBRANCH   2  15
TORSDOF 5
