REMARK  Name = ZINC32916214
REMARK  8 active torsions:
REMARK  status: ('A' for Active; 'I' for Inactive)
REMARK    1  A    between atoms: C_1  and  C_2
REMARK    2  A    between atoms: C_2  and  N_3
REMARK    3  A    between atoms: N_3  and  C_4
REMARK    4  A    between atoms: N_3  and  S_6
REMARK    5  A    between atoms: C_4  and  C_5
REMARK    6  A    between atoms: S_6  and  C_9
REMARK    7  A    between atoms: C_12  and  N_18
REMARK    8  A    between atoms: C_13  and  N_15
REMARK                            x       y       z     vdW  Elec       q    Type
REMARK                         _______ _______ _______ _____ _____    ______ ____
ROOT
ATOM      1  C   UNL     1       1.376   0.767  -4.671  0.00  0.00    +0.108 A 
ATOM      2  C   UNL     1       1.911   1.621  -3.723  0.00  0.00    +0.030 A 
ATOM      3  C   UNL     1       1.212   1.893  -2.564  0.00  0.00    +0.027 A 
ATOM      4  C   UNL     1      -0.030   1.308  -2.350  0.00  0.00    +0.061 A 
ATOM      5  C   UNL     1      -0.562   0.447  -3.301  0.00  0.00    +0.149 A 
ATOM      6  C   UNL     1       0.140   0.184  -4.462  0.00  0.00    +0.063 A 
ENDROOT
BRANCH   4   7
ATOM      7  N   UNL     1      -0.739   1.581  -1.178  0.00  0.00    -0.323 N 
ATOM      8  C   UNL     1      -1.016   3.019  -1.053  0.00  0.00    +0.112 C 
ATOM      9  C   UNL     1      -2.092   3.263   0.009  0.00  0.00    +0.075 C 
ATOM     10  C   UNL     1      -1.669   2.547   1.287  0.00  0.00    +0.057 A 
ATOM     11  C   UNL     1      -0.723   1.573   1.224  0.00  0.00    +0.031 A 
ATOM     12  S   UNL     1      -0.575   1.063   2.913  0.00  0.00    -0.056 S 
ATOM     13  C   UNL     1      -1.756   2.157   3.570  0.00  0.00    +0.156 A 
ATOM     14  N   UNL     1      -2.163   2.805   2.494  0.00  0.00    -0.230 NA
ATOM     15  N   UNL     1      -2.167   2.308   4.886  0.00  0.00    -0.338 N 
ATOM     16  C   UNL     1      -0.013   1.086   0.008  0.00  0.00    +0.149 C 
ATOM     17  H   UNL     1      -2.933   3.055   5.140  0.00  0.00    +0.144 HD
ATOM     18  H   UNL     1      -1.726   1.682   5.675  0.00  0.00    +0.144 HD
ENDBRANCH   4   7
BRANCH   1  19
ATOM     19  S   UNL     1       2.271   0.422  -6.149  0.00  0.00    +0.061 S 
ATOM     20  O   UNL     1       1.314   0.025  -7.120  0.00  0.00    -0.153 OA
ATOM     21  O   UNL     1       3.154   1.517  -6.354  0.00  0.00    -0.153 OA
BRANCH  19  22
ATOM     22  N   UNL     1       3.220  -0.902  -5.849  0.00  0.00    -0.177 NA
BRANCH  22  24
ATOM     23  C   UNL     1       3.140  -2.704  -7.500  0.00  0.00    +0.022 C 
ATOM     24  C   UNL     1       2.701  -2.247  -6.107  0.00  0.00    +0.106 C 
ENDBRANCH  22  24
BRANCH  22  25
ATOM     25  C   UNL     1       4.577  -0.727  -5.326  0.00  0.00    +0.106 C 
ATOM     26  C   UNL     1       4.556  -0.852  -3.801  0.00  0.00    +0.022 C 
ENDBRANCH  22  25
ENDBRANCH  19  22
ENDBRANCH   1  19
BRANCH   5  27
ATOM     27  N   UNL     1      -1.882  -0.182  -3.075  0.00  0.00    +0.058 N 
ATOM     28  O   UNL     1      -2.348  -0.937  -3.910  0.00  0.00    -0.126 OA
ATOM     29  O   UNL     1      -2.502   0.054  -2.054  0.00  0.00    -0.126 OA
ENDBRANCH   5  27
TORSDOF 6
