REMARK  Name = ZINC37380095
REMARK  9 active torsions:
REMARK  status: ('A' for Active; 'I' for Inactive)
REMARK    1  A    between atoms: C_1  and  C_2
REMARK    2  A    between atoms: C_2  and  C_3
REMARK    3  A    between atoms: C_3  and  C_4
REMARK    4  A    between atoms: C_8  and  C_18
REMARK    5  A    between atoms: N_10  and  C_11
REMARK    6  A    between atoms: C_19  and  N_21
REMARK    7  A    between atoms: N_25  and  C_28
REMARK    8  A    between atoms: C_28  and  C_29
REMARK    9  A    between atoms: C_34  and  O_35
REMARK                            x       y       z     vdW  Elec       q    Type
REMARK                         _______ _______ _______ _____ _____    ______ ____
ROOT
ATOM      1  C   UNL     1      -1.422  -2.082  -0.007  0.00  0.00    +0.134 A 
ATOM      2  N   UNL     1      -1.418  -2.697  -1.170  0.00  0.00    -0.212 NA
ATOM      3  C   UNL     1      -1.402  -4.027  -1.235  0.00  0.00    +0.169 A 
ATOM      4  C   UNL     1      -1.389  -4.766  -0.035  0.00  0.00    +0.082 A 
ATOM      5  C   UNL     1      -1.374  -6.132  -0.392  0.00  0.00    +0.073 A 
ATOM      6  N   UNL     1      -1.378  -6.221  -1.692  0.00  0.00    -0.169 NA
ATOM      7  N   UNL     1      -1.395  -4.938  -2.253  0.00  0.00    -0.214 N 
ATOM      8  C   UNL     1      -1.357  -7.292   0.570  0.00  0.00    +0.068 C 
ATOM      9  C   UNL     1      -1.393  -4.060   1.183  0.00  0.00    +0.136 A 
ATOM     10  N   UNL     1      -1.405  -2.732   1.143  0.00  0.00    -0.217 NA
ENDROOT
BRANCH   9  11
ATOM     11  N   UNL     1      -1.380  -4.731   2.390  0.00  0.00    -0.316 N 
ATOM     12  C   UNL     1      -0.087  -4.952   3.068  0.00  0.00    +0.104 C 
ATOM     13  C   UNL     1      -0.210  -4.718   4.585  0.00  0.00    +0.000 C 
ATOM     14  C   UNL     1      -1.100  -3.521   4.838  0.00  0.00    -0.077 C 
ATOM     15  N   UNL     1      -2.474  -3.975   5.040  0.00  0.00    +0.384 N 
ATOM     16  C   UNL     1      -3.239  -4.101   3.858  0.00  0.00    -0.059 C 
ATOM     17  C   UNL     1      -2.636  -5.189   2.947  0.00  0.00    +0.088 C 
ATOM     18  H   UNL     1      -2.448  -4.873   5.499  0.00  0.00    -0.081 HD
BRANCH  15  19
ATOM     19  C   UNL     1      -3.151  -3.024   5.931  0.00  0.00    -0.039 C 
BRANCH  19  20
ATOM     20  C   UNL     1      -4.532  -3.533   6.253  0.00  0.00    -0.022 A 
ATOM     21  C   UNL     1      -5.629  -3.032   5.579  0.00  0.00    +0.005 A 
ATOM     22  C   UNL     1      -6.896  -3.498   5.875  0.00  0.00    +0.000 A 
ATOM     23  C   UNL     1      -7.069  -4.467   6.846  0.00  0.00    +0.004 A 
ATOM     24  C   UNL     1      -5.976  -4.972   7.523  0.00  0.00    +0.045 A 
ATOM     25  C   UNL     1      -4.702  -4.509   7.224  0.00  0.00    +0.118 A 
BRANCH  25  26
ATOM     26  O   UNL     1      -3.624  -5.008   7.884  0.00  0.00    -0.507 OA
ATOM     27  H   UNL     1      -3.400  -4.525   8.691  0.00  0.00    +0.292 HD
ENDBRANCH  25  26
ENDBRANCH  19  20
ENDBRANCH  15  19
ENDBRANCH   9  11
BRANCH   7  28
ATOM     28  C   UNL     1      -1.404  -4.640  -3.622  0.00  0.00    +0.068 A 
ATOM     29  C   UNL     1      -2.104  -3.535  -4.088  0.00  0.00    +0.030 A 
ATOM     30  C   UNL     1      -2.111  -3.243  -5.438  0.00  0.00    +0.040 A 
ATOM     31  C   UNL     1      -1.421  -4.051  -6.326  0.00  0.00    +0.124 A 
ATOM     32  C   UNL     1      -0.723  -5.154  -5.863  0.00  0.00    +0.040 A 
ATOM     33  C   UNL     1      -0.709  -5.446  -4.513  0.00  0.00    +0.030 A 
ATOM     34  F   UNL     1      -1.430  -3.764  -7.646  0.00  0.00    -0.205 F 
ENDBRANCH   7  28
BRANCH   1  35
ATOM     35  C   UNL     1      -1.440  -0.575   0.014  0.00  0.00    +0.076 C 
BRANCH  35  37
ATOM     36  C   UNL     1      -0.021   1.482   0.030  0.00  0.00    +0.004 C 
ATOM     37  C   UNL     1      -0.003  -0.048   0.009  0.00  0.00    +0.004 C 
ENDBRANCH  35  37
ENDBRANCH   1  35
TORSDOF 7
