REMARK  Name = ZINC30498947
REMARK  11 active torsions:
REMARK  status: ('A' for Active; 'I' for Inactive)
REMARK    1  A    between atoms: C_1  and  C_2
REMARK    2  A    between atoms: C_2  and  C_3
REMARK    3  A    between atoms: N_5  and  C_6
REMARK    4  A    between atoms: C_9  and  C_12
REMARK    5  A    between atoms: C_12  and  C_14
REMARK    6  A    between atoms: C_12  and  N_15
REMARK    7  A    between atoms: N_15  and  C_16
REMARK    8  A    between atoms: C_16  and  C_18
REMARK    9  A    between atoms: C_16  and  C_19
REMARK   10  A    between atoms: N_21  and  C_22
REMARK   11  A    between atoms: C_26  and  C_28
REMARK                            x       y       z     vdW  Elec       q    Type
REMARK                         _______ _______ _______ _____ _____    ______ ____
ROOT
ATOM      1  N   UNL     1      -5.430  -1.955   1.322  0.00  0.00    +0.391 N 
ATOM      2  H   UNL     1      -6.009  -2.831   0.996  0.00  0.00    -0.084 HD
ATOM      3  H   UNL     1      -4.355  -2.174   1.239  0.00  0.00    -0.084 HD
ENDROOT
BRANCH   1   4
ATOM      4  C   UNL     1      -5.762  -0.805   0.470  0.00  0.00    -0.043 C 
ATOM      5  C   UNL     1      -5.980  -1.281  -0.968  0.00  0.00    -0.009 C 
BRANCH   4   9
ATOM      6  C   UNL     1      -2.549   2.013   0.565  0.00  0.00    +0.033 A 
ATOM      7  C   UNL     1      -2.280   0.651   0.513  0.00  0.00    +0.023 A 
ATOM      8  C   UNL     1      -3.320  -0.257   0.489  0.00  0.00    +0.004 A 
ATOM      9  C   UNL     1      -4.629   0.189   0.503  0.00  0.00    -0.062 A 
ATOM     10  C   UNL     1      -4.901   1.544   0.549  0.00  0.00    +0.004 A 
ATOM     11  C   UNL     1      -3.865   2.457   0.580  0.00  0.00    +0.023 A 
BRANCH   6  14
ATOM     12  C   UNL     1      -1.618   4.069   1.315  0.00  0.00    +0.217 C 
ATOM     13  O   UNL     1      -2.668   4.334   1.860  0.00  0.00    -0.275 OA
ATOM     14  N   UNL     1      -1.498   2.935   0.597  0.00  0.00    -0.286 N 
ATOM     15  H   UNL     1      -0.573   2.735   0.036  0.00  0.00    +0.155 HD
BRANCH  12  17
ATOM     16  C   UNL     1      -0.842   6.204   2.311  0.00  0.00    +0.013 C 
ATOM     17  C   UNL     1      -0.444   5.006   1.446  0.00  0.00    +0.093 C 
ENDBRANCH  12  17
ENDBRANCH   6  14
ENDBRANCH   4   9
ENDBRANCH   1   4
BRANCH   1  18
ATOM     18  C   UNL     1      -5.747  -1.676   2.729  0.00  0.00    +0.014 C 
ATOM     19  C   UNL     1      -7.211  -2.029   3.001  0.00  0.00    -0.004 C 
BRANCH  18  20
ATOM     20  C   UNL     1      -4.856  -2.505   3.618  0.00  0.00    +0.203 C 
ATOM     21  O   UNL     1      -4.038  -3.254   3.128  0.00  0.00    -0.277 OA
ATOM     22  N   UNL     1      -4.969  -2.414   4.958  0.00  0.00    -0.287 N 
ATOM     23  H   UNL     1      -5.759  -1.791   5.402  0.00  0.00    +0.155 HD
BRANCH  22  24
ATOM     24  C   UNL     1      -4.082  -3.113   5.784  0.00  0.00    +0.035 A 
ATOM     25  C   UNL     1      -3.657  -2.549   6.981  0.00  0.00    +0.023 A 
ATOM     26  C   UNL     1      -2.781  -3.235   7.801  0.00  0.00    +0.003 A 
ATOM     27  C   UNL     1      -2.322  -4.485   7.437  0.00  0.00    +0.019 A 
ATOM     28  C   UNL     1      -2.743  -5.060   6.236  0.00  0.00    +0.054 A 
ATOM     29  C   UNL     1      -3.631  -4.369   5.411  0.00  0.00    +0.042 A 
BRANCH  28  30
ATOM     30  C   UNL     1      -2.269  -6.357   5.856  0.00  0.00    +0.099 C 
ATOM     31  N   UNL     1      -1.893  -7.385   5.554  0.00  0.00    -0.191 NA
ENDBRANCH  28  30
ENDBRANCH  22  24
ENDBRANCH  18  20
ENDBRANCH   1  18
TORSDOF 8
