REMARK  Name = ZINC08928066
REMARK  9 active torsions:
REMARK  status: ('A' for Active; 'I' for Inactive)
REMARK    1  A    between atoms: C_1  and  O_2
REMARK    2  A    between atoms: O_2  and  C_3
REMARK    3  A    between atoms: C_6  and  S_9
REMARK    4  A    between atoms: S_9  and  N_12
REMARK    5  A    between atoms: C_16  and  C_18
REMARK    6  A    between atoms: N_20  and  C_21
REMARK    7  A    between atoms: C_22  and  C_30
REMARK    8  A    between atoms: C_33  and  O_35
REMARK    9  A    between atoms: O_35  and  C_36
REMARK                            x       y       z     vdW  Elec       q    Type
REMARK                         _______ _______ _______ _____ _____    ______ ____
ROOT
ATOM      1  C   UNL     1       2.534   6.594   3.538  0.00  0.00    +0.236 C 
ATOM      2  O   UNL     1       2.579   7.790   3.340  0.00  0.00    -0.274 OA
ATOM      3  N   UNL     1       2.496   5.739   2.496  0.00  0.00    -0.278 N 
ATOM      4  H   UNL     1       2.460   4.783   2.654  0.00  0.00    +0.155 HD
ENDROOT
BRANCH   3   5
ATOM      5  C   UNL     1       2.508   6.228   1.199  0.00  0.00    +0.084 A 
ATOM      6  C   UNL     1       2.475   5.514   0.008  0.00  0.00    +0.069 A 
ATOM      7  C   UNL     1       2.492   6.274  -1.230  0.00  0.00    -0.023 A 
ATOM      8  C   UNL     1       2.546   7.615  -1.082  0.00  0.00    -0.004 A 
ATOM      9  S   UNL     1       2.572   7.876   0.669  0.00  0.00    -0.077 S 
ATOM     10  C   UNL     1       2.576   8.644  -2.170  0.00  0.00    +0.043 C 
ATOM     11  C   UNL     1       2.916   7.940  -3.491  0.00  0.00    +0.005 C 
ATOM     12  C   UNL     1       2.029   6.700  -3.632  0.00  0.00    +0.005 C 
ATOM     13  C   UNL     1       2.454   5.639  -2.615  0.00  0.00    +0.037 C 
BRANCH   6  14
ATOM     14  C   UNL     1       2.418   4.050   0.001  0.00  0.00    +0.255 C 
ATOM     15  O   UNL     1       3.447   3.401  -0.013  0.00  0.00    -0.270 OA
ATOM     16  N   UNL     1       1.226   3.422   0.009  0.00  0.00    -0.217 N 
ATOM     17  C   UNL     1       1.173   2.075   0.002  0.00  0.00    +0.407 C 
ATOM     18  O   UNL     1       2.201   1.427  -0.011  0.00  0.00    -0.226 OA
ATOM     19  H   UNL     1       0.405   3.939   0.019  0.00  0.00    +0.161 HD
BRANCH  17  20
ATOM     20  O   UNL     1      -0.018   1.448   0.010  0.00  0.00    -0.453 OA
ATOM     21  C   UNL     1       0.002  -0.004   0.002  0.00  0.00    +0.282 C 
ENDBRANCH  17  20
ENDBRANCH   6  14
ENDBRANCH   3   5
BRANCH   1  26
ATOM     22  N   UNL     1       2.576   7.180   5.903  0.00  0.00    -0.165 NA
ATOM     23  C   UNL     1       3.780   7.027   6.740  0.00  0.00    +0.110 C 
ATOM     24  C   UNL     1       4.749   6.170   5.888  0.00  0.00    +0.019 C 
ATOM     25  C   UNL     1       3.767   5.186   5.191  0.00  0.00    +0.031 C 
ATOM     26  C   UNL     1       2.521   6.063   4.948  0.00  0.00    +0.166 C 
BRANCH  22  27
ATOM     27  S   UNL     1       1.470   8.407   6.018  0.00  0.00    +0.062 S 
ATOM     28  O   UNL     1       2.143   9.506   6.617  0.00  0.00    -0.153 OA
ATOM     29  O   UNL     1       0.835   8.501   4.751  0.00  0.00    -0.153 OA
BRANCH  27  33
ATOM     30  C   UNL     1      -1.705   7.076   8.961  0.00  0.00    +0.120 A 
ATOM     31  C   UNL     1      -0.587   7.764   9.409  0.00  0.00    +0.047 A 
ATOM     32  C   UNL     1       0.380   8.169   8.509  0.00  0.00    +0.032 A 
ATOM     33  C   UNL     1       0.235   7.889   7.163  0.00  0.00    +0.106 A 
ATOM     34  C   UNL     1      -0.881   7.208   6.713  0.00  0.00    +0.032 A 
ATOM     35  C   UNL     1      -1.849   6.796   7.610  0.00  0.00    +0.047 A 
BRANCH  30  37
ATOM     36  C   UNL     1      -3.781   5.972   9.311  0.00  0.00    +0.277 C 
ATOM     37  O   UNL     1      -2.657   6.676   9.844  0.00  0.00    -0.495 OA
ENDBRANCH  30  37
ENDBRANCH  27  33
ENDBRANCH  22  27
ENDBRANCH   1  26
TORSDOF 7
