REMARK  Name = ZINC59165548
REMARK  5 active torsions:
REMARK  status: ('A' for Active; 'I' for Inactive)
REMARK    1  A    between atoms: C_5  and  C_7
REMARK    2  A    between atoms: C_7  and  N_8
REMARK    3  A    between atoms: N_16  and  N_17
REMARK    4  A    between atoms: C_18  and  C_20
REMARK    5  A    between atoms: C_24  and  N_26
REMARK                            x       y       z     vdW  Elec       q    Type
REMARK                         _______ _______ _______ _____ _____    ______ ____
ROOT
ATOM      1  N   UNL     1       1.501  -2.595   1.367  0.00  0.00    -0.261 N 
ATOM      2  C   UNL     1       2.729  -3.103   1.777  0.00  0.00    +0.046 A 
ATOM      3  C   UNL     1       3.967  -3.150   1.145  0.00  0.00    +0.024 A 
ATOM      4  C   UNL     1       5.049  -3.720   1.783  0.00  0.00    +0.002 A 
ATOM      5  C   UNL     1       4.919  -4.252   3.055  0.00  0.00    +0.001 A 
ATOM      6  C   UNL     1       3.698  -4.214   3.698  0.00  0.00    +0.012 A 
ATOM      7  C   UNL     1       2.601  -3.641   3.064  0.00  0.00    +0.028 A 
ATOM      8  C   UNL     1       1.188  -3.443   3.461  0.00  0.00    +0.153 C 
ATOM      9  N   UNL     1       0.619  -3.794   4.590  0.00  0.00    -0.174 NA
ATOM     10  C   UNL     1       0.561  -2.760   2.312  0.00  0.00    +0.272 C 
ATOM     11  O   UNL     1      -0.602  -2.410   2.235  0.00  0.00    -0.268 OA
ENDROOT
BRANCH   9  12
ATOM     12  N   UNL     1       1.396  -4.313   5.634  0.00  0.00    -0.202 N 
ATOM     13  C   UNL     1       0.800  -4.788   6.745  0.00  0.00    +0.263 C 
ATOM     14  O   UNL     1      -0.412  -4.765   6.842  0.00  0.00    -0.268 OA
ATOM     15  H   UNL     1       2.363  -4.331   5.557  0.00  0.00    +0.178 HD
BRANCH  13  16
ATOM     16  C   UNL     1       1.619  -5.335   7.846  0.00  0.00    +0.041 A 
ATOM     17  C   UNL     1       3.011  -5.357   7.741  0.00  0.00    +0.013 A 
ATOM     18  C   UNL     1       3.769  -5.868   8.773  0.00  0.00    +0.003 A 
ATOM     19  C   UNL     1       3.154  -6.360   9.911  0.00  0.00    +0.033 A 
ATOM     20  C   UNL     1       1.775  -6.342  10.022  0.00  0.00    +0.127 A 
ATOM     21  C   UNL     1       1.004  -5.827   8.999  0.00  0.00    +0.045 A 
BRANCH  20  22
ATOM     22  N   UNL     1       1.125  -6.870  11.242  0.00  0.00    +0.056 N 
ATOM     23  O   UNL     1       1.799  -7.316  12.141  0.00  0.00    -0.126 OA
ATOM     24  O   UNL     1      -0.080  -6.854  11.341  0.00  0.00    -0.126 OA
ENDBRANCH  20  22
ENDBRANCH  13  16
ENDBRANCH   9  12
BRANCH   1  25
ATOM     25  C   UNL     1       1.264  -1.955   0.070  0.00  0.00    +0.152 C 
BRANCH  25  30
ATOM     26  C   UNL     1       0.705   1.761   0.434  0.00  0.00    +0.000 A 
ATOM     27  C   UNL     1       2.000   2.241   0.395  0.00  0.00    +0.003 A 
ATOM     28  C   UNL     1       3.059   1.365   0.251  0.00  0.00    +0.038 A 
ATOM     29  C   UNL     1       2.822   0.005   0.146  0.00  0.00    +0.128 A 
ATOM     30  C   UNL     1       1.524  -0.475   0.185  0.00  0.00    +0.005 A 
ATOM     31  C   UNL     1       0.467   0.403   0.329  0.00  0.00    +0.008 A 
ATOM     32  F   UNL     1       3.856  -0.853   0.004  0.00  0.00    -0.205 F 
ENDBRANCH  25  30
ENDBRANCH   1  25
TORSDOF 5
