REMARK  Name = ZINC39989904
REMARK  16 active torsions:
REMARK  status: ('A' for Active; 'I' for Inactive)
REMARK    1  A    between atoms: C_1  and  C_2
REMARK    2  A    between atoms: C_2  and  C_3
REMARK    3  A    between atoms: C_3  and  C_4
REMARK    4  A    between atoms: C_4  and  C_5
REMARK    5  A    between atoms: C_5  and  C_7
REMARK    6  A    between atoms: C_5  and  C_9
REMARK    7  A    between atoms: C_7  and  C_8
REMARK    8  A    between atoms: C_9  and  N_10
REMARK    9  A    between atoms: C_14  and  C_15
REMARK   10  A    between atoms: C_16  and  C_36
REMARK   11  A    between atoms: C_17  and  C_34
REMARK   12  A    between atoms: N_20  and  C_32
REMARK   13  A    between atoms: C_21  and  N_22
REMARK   14  A    between atoms: C_24  and  C_31
REMARK   15  A    between atoms: C_27  and  C_30
REMARK   16  A    between atoms: C_32  and  C_33
REMARK                            x       y       z     vdW  Elec       q    Type
REMARK                         _______ _______ _______ _____ _____    ______ ____
ROOT
ATOM      1  C   UNL     1       2.714  -5.509  -8.153  0.00  0.00    +0.019 A 
ATOM      2  C   UNL     1       4.052  -5.888  -7.955  0.00  0.00    -0.017 A 
ATOM      3  C   UNL     1       4.813  -6.271  -9.056  0.00  0.00    +0.120 A 
ATOM      4  C   UNL     1       4.223  -6.269 -10.346  0.00  0.00    +0.270 A 
ATOM      5  O   UNL     1       4.883  -6.604 -11.314  0.00  0.00    -0.266 OA
ATOM      6  N   UNL     1       2.939  -5.902 -10.509  0.00  0.00    -0.295 N 
ATOM      7  C   UNL     1       2.175  -5.529  -9.450  0.00  0.00    +0.112 A 
ATOM      8  C   UNL     1       4.655  -5.880  -6.574  0.00  0.00    +0.046 C 
ENDROOT
BRANCH   1  13
ATOM      9  N   UNL     1       0.575  -6.888  -4.101  0.00  0.00    -0.255 N 
ATOM     10  C   UNL     1       0.762  -5.837  -4.881  0.00  0.00    +0.258 C 
ATOM     11  O   UNL     1       0.280  -4.754  -4.601  0.00  0.00    -0.269 OA
ATOM     12  C   UNL     1       1.548  -6.010  -6.061  0.00  0.00    +0.077 C 
ATOM     13  C   UNL     1       1.887  -5.101  -7.016  0.00  0.00    +0.032 C 
ATOM     14  S   UNL     1       1.967  -7.743  -5.941  0.00  0.00    -0.061 S 
ATOM     15  C   UNL     1       1.115  -8.088  -4.409  0.00  0.00    +0.121 C 
ATOM     16  S   UNL     1       1.008  -9.564  -3.549  0.00  0.00    -0.027 S 
BRANCH   9  17
ATOM     17  C   UNL     1      -0.226  -6.748  -2.882  0.00  0.00    +0.118 C 
BRANCH  17  18
ATOM     18  C   UNL     1       0.684  -6.355  -1.717  0.00  0.00    +0.007 C 
BRANCH  18  19
ATOM     19  C   UNL     1       1.273  -4.966  -1.975  0.00  0.00    +0.002 C 
ATOM     20  C   UNL     1       2.243  -4.606  -0.848  0.00  0.00    +0.004 C 
ENDBRANCH  18  19
BRANCH  18  21
ATOM     21  C   UNL     1      -0.129  -6.330  -0.421  0.00  0.00    +0.005 C 
BRANCH  21  22
ATOM     22  C   UNL     1      -0.644  -7.738  -0.115  0.00  0.00    +0.000 C 
BRANCH  22  24
ATOM     23  C   UNL     1      -1.861  -9.149   1.550  0.00  0.00    +0.004 C 
ATOM     24  C   UNL     1      -1.345  -7.741   1.245  0.00  0.00    -0.003 C 
ENDBRANCH  22  24
ENDBRANCH  21  22
ENDBRANCH  18  21
ENDBRANCH  17  18
ENDBRANCH   9  17
ENDBRANCH   1  13
BRANCH   7  25
ATOM     25  N   UNL     1       0.874  -5.168  -9.648  0.00  0.00    -0.311 N 
ATOM     26  C   UNL     1       0.522  -3.795 -10.045  0.00  0.00    +0.137 C 
ATOM     27  C   UNL     1      -0.573  -3.285  -9.101  0.00  0.00    +0.133 C 
ATOM     28  O   UNL     1      -1.644  -4.231  -9.068  0.00  0.00    -0.371 OA
ATOM     29  C   UNL     1      -1.276  -5.514  -8.555  0.00  0.00    +0.133 C 
ATOM     30  C   UNL     1      -0.217  -6.140  -9.477  0.00  0.00    +0.137 C 
ATOM     31  C   UNL     1      -2.509  -6.418  -8.507  0.00  0.00    +0.039 C 
ATOM     32  C   UNL     1      -1.095  -1.938  -9.605  0.00  0.00    +0.039 C 
ENDBRANCH   7  25
BRANCH   6  33
ATOM     33  C   UNL     1       2.353  -5.908 -11.852  0.00  0.00    +0.123 C 
ATOM     34  C   UNL     1       1.673  -7.255 -12.105  0.00  0.00    +0.027 C 
ENDBRANCH   6  33
BRANCH   3  35
ATOM     35  C   UNL     1       6.180  -6.662  -8.889  0.00  0.00    +0.105 C 
ATOM     36  N   UNL     1       7.265  -6.973  -8.756  0.00  0.00    -0.191 NA
ENDBRANCH   3  35
TORSDOF 10
