REMARK  Name = ZINC08748142
REMARK  6 active torsions:
REMARK  status: ('A' for Active; 'I' for Inactive)
REMARK    1  A    between atoms: C_1  and  C_2
REMARK    2  A    between atoms: C_2  and  O_3
REMARK    3  A    between atoms: O_3  and  C_4
REMARK    4  A    between atoms: C_4  and  C_6
REMARK    5  A    between atoms: C_7  and  N_29
REMARK    6  A    between atoms: C_20  and  C_22
REMARK                            x       y       z     vdW  Elec       q    Type
REMARK                         _______ _______ _______ _____ _____    ______ ____
ROOT
ATOM      1  C   UNL     1      -1.221   2.990   0.133  0.00  0.00    +0.105 C 
ATOM      2  C   UNL     1      -1.206   1.673  -0.208  0.00  0.00    +0.195 C 
ATOM      3  O   UNL     1      -2.349   0.986  -0.309  0.00  0.00    -0.441 OA
ATOM      4  C   UNL     1      -3.524   1.618  -0.624  0.00  0.00    +0.146 A 
ATOM      5  C   UNL     1      -4.493   0.733  -1.285  0.00  0.00    +0.032 A 
ATOM      6  C   UNL     1      -4.138  -0.608  -1.524  0.00  0.00    +0.012 A 
ATOM      7  C   UNL     1      -5.020  -1.448  -2.136  0.00  0.00    +0.001 A 
ATOM      8  C   UNL     1      -6.276  -1.016  -2.537  0.00  0.00    +0.001 A 
ATOM      9  C   UNL     1      -6.656   0.295  -2.318  0.00  0.00    +0.016 A 
ATOM     10  C   UNL     1      -5.769   1.151  -1.700  0.00  0.00    +0.026 A 
ATOM     11  S   UNL     1      -6.159   2.851  -1.372  0.00  0.00    -0.047 S 
ATOM     12  C   UNL     1      -4.821   3.707  -0.565  0.00  0.00    +0.225 A 
ATOM     13  O   UNL     1      -4.894   4.885  -0.256  0.00  0.00    -0.280 OA
ATOM     14  C   UNL     1      -3.661   2.924  -0.307  0.00  0.00    +0.061 A 
ATOM     15  C   UNL     1      -2.535   3.676   0.375  0.00  0.00    +0.099 C 
ENDROOT
BRANCH  15  16
ATOM     16  C   UNL     1      -2.799   3.730   1.858  0.00  0.00    -0.035 A 
ATOM     17  C   UNL     1      -2.915   2.558   2.582  0.00  0.00    +0.007 A 
ATOM     18  C   UNL     1      -3.151   2.606   3.942  0.00  0.00    +0.038 A 
ATOM     19  C   UNL     1      -3.283   3.829   4.579  0.00  0.00    +0.123 A 
ATOM     20  C   UNL     1      -3.172   5.002   3.852  0.00  0.00    +0.038 A 
ATOM     21  C   UNL     1      -2.929   4.951   2.492  0.00  0.00    +0.007 A 
ATOM     22  F   UNL     1      -3.519   3.877   5.908  0.00  0.00    -0.205 F 
ENDBRANCH  15  16
BRANCH   2  23
ATOM     23  N   UNL     1      -0.013   1.045  -0.444  0.00  0.00    -0.329 N 
ATOM     24  H   UNL     1       0.732   1.542  -0.816  0.00  0.00    +0.145 HD
ATOM     25  H   UNL     1       0.090   0.103  -0.235  0.00  0.00    +0.145 HD
ENDBRANCH   2  23
BRANCH   1  26
ATOM     26  C   UNL     1      -0.019   3.702   0.254  0.00  0.00    +0.341 C 
ATOM     27  O   UNL     1       1.047   3.119   0.164  0.00  0.00    -0.245 OA
BRANCH  26  28
ATOM     28  O   UNL     1      -0.042   5.035   0.470  0.00  0.00    -0.462 OA
BRANCH  28  30
ATOM     29  C   UNL     1       0.992   7.190   0.824  0.00  0.00    +0.048 C 
ATOM     30  C   UNL     1       1.219   5.697   0.582  0.00  0.00    +0.229 C 
ENDBRANCH  28  30
ENDBRANCH  26  28
ENDBRANCH   1  26
TORSDOF 5
