REMARK  Name = ZINC39710355
REMARK  12 active torsions:
REMARK  status: ('A' for Active; 'I' for Inactive)
REMARK    1  A    between atoms: C_1  and  C_2
REMARK    2  A    between atoms: C_9  and  C_14
REMARK    3  A    between atoms: C_14  and  C_16
REMARK    4  A    between atoms: C_14  and  N_25
REMARK    5  A    between atoms: N_20  and  C_21
REMARK    6  A    between atoms: C_21  and  C_22
REMARK    7  A    between atoms: C_22  and  O_23
REMARK    8  A    between atoms: O_23  and  C_24
REMARK    9  A    between atoms: N_25  and  C_26
REMARK   10  A    between atoms: N_25  and  C_33
REMARK   11  A    between atoms: C_26  and  C_27
REMARK   12  A    between atoms: C_33  and  C_34
REMARK                            x       y       z     vdW  Elec       q    Type
REMARK                         _______ _______ _______ _____ _____    ______ ____
ROOT
ATOM      1  C   UNL     1       1.561  -4.920   3.023  0.00  0.00    +0.019 C 
ENDROOT
BRANCH   1  10
ATOM      2  C   UNL     1       1.094   1.662   0.290  0.00  0.00    +0.044 C 
ATOM      3  C   UNL     1       0.964   0.162   0.218  0.00  0.00    -0.050 A 
ATOM      4  C   UNL     1       0.991  -0.467  -1.027  0.00  0.00    +0.005 A 
ATOM      5  C   UNL     1       0.880  -1.813  -1.171  0.00  0.00    +0.024 A 
ATOM      6  C   UNL     1       0.729  -2.642  -0.043  0.00  0.00    +0.040 A 
ATOM      7  N   UNL     1       0.622  -3.961  -0.196  0.00  0.00    -0.285 N 
ATOM      8  C   UNL     1       0.478  -4.796   0.819  0.00  0.00    +0.223 C 
ATOM      9  O   UNL     1       0.384  -5.993   0.618  0.00  0.00    -0.275 OA
ATOM     10  C   UNL     1       0.430  -4.259   2.232  0.00  0.00    +0.092 C 
ATOM     11  C   UNL     1       0.553  -2.759   2.411  0.00  0.00    -0.006 C 
ATOM     12  C   UNL     1       0.697  -2.004   1.284  0.00  0.00    -0.007 A 
ATOM     13  C   UNL     1       0.828  -0.549   1.367  0.00  0.00    +0.012 A 
ATOM     14  H   UNL     1       0.649  -4.327  -1.094  0.00  0.00    +0.155 HD
ENDBRANCH   1  10
BRANCH   1  15
ATOM     15  C   UNL     1       2.868  -4.708   2.304  0.00  0.00    +0.139 A 
ATOM     16  N   UNL     1       3.271  -5.320   1.217  0.00  0.00    -0.115 NA
ATOM     17  N   UNL     1       4.438  -4.865   0.914  0.00  0.00    -0.023 NA
ATOM     18  N   UNL     1       4.790  -3.980   1.780  0.00  0.00    -0.044 NA
ATOM     19  N   UNL     1       3.846  -3.851   2.650  0.00  0.00    -0.229 N 
BRANCH  19  20
ATOM     20  C   UNL     1       3.842  -2.944   3.800  0.00  0.00    +0.175 C 
BRANCH  20  21
ATOM     21  C   UNL     1       4.452  -3.653   5.011  0.00  0.00    +0.183 C 
BRANCH  21  22
ATOM     22  O   UNL     1       4.448  -2.768   6.133  0.00  0.00    -0.381 OA
ATOM     23  C   UNL     1       5.000  -3.336   7.323  0.00  0.00    +0.194 C 
ENDBRANCH  21  22
ENDBRANCH  20  21
ENDBRANCH  19  20
ENDBRANCH   1  15
BRANCH   1  24
ATOM     24  N   UNL     1       1.296  -6.359   3.146  0.00  0.00    +0.392 N 
ATOM     25  H   UNL     1       1.206  -6.764   2.226  0.00  0.00    -0.080 HD
BRANCH  24  26
ATOM     26  C   UNL     1       2.410  -7.003   3.856  0.00  0.00    -0.042 C 
BRANCH  26  27
ATOM     27  C   UNL     1       2.290  -8.500   3.727  0.00  0.00    -0.064 A 
ATOM     28  C   UNL     1       1.484  -9.207   4.600  0.00  0.00    +0.002 A 
ATOM     29  C   UNL     1       1.375 -10.579   4.481  0.00  0.00    +0.000 A 
ATOM     30  C   UNL     1       2.070 -11.245   3.489  0.00  0.00    +0.000 A 
ATOM     31  C   UNL     1       2.875 -10.538   2.615  0.00  0.00    +0.000 A 
ATOM     32  C   UNL     1       2.981  -9.165   2.732  0.00  0.00    +0.002 A 
ENDBRANCH  26  27
ENDBRANCH  24  26
BRANCH  24  33
ATOM     33  C   UNL     1       0.051  -6.566   3.897  0.00  0.00    -0.042 C 
BRANCH  33  34
ATOM     34  C   UNL     1       0.108  -5.790   5.188  0.00  0.00    -0.064 A 
ATOM     35  C   UNL     1       0.723  -6.340   6.297  0.00  0.00    +0.004 A 
ATOM     36  C   UNL     1       0.777  -5.629   7.481  0.00  0.00    +0.038 A 
ATOM     37  C   UNL     1       0.213  -4.366   7.556  0.00  0.00    +0.123 A 
ATOM     38  C   UNL     1      -0.402  -3.817   6.444  0.00  0.00    +0.038 A 
ATOM     39  C   UNL     1      -0.450  -4.528   5.260  0.00  0.00    +0.004 A 
ATOM     40  F   UNL     1       0.265  -3.670   8.713  0.00  0.00    -0.205 F 
ENDBRANCH  33  34
ENDBRANCH  24  33
ENDBRANCH   1  24
TORSDOF 10
