REMARK  Name = ZINC55443998
REMARK  3 active torsions:
REMARK  status: ('A' for Active; 'I' for Inactive)
REMARK    1  A    between atoms: C_6  and  N_7
REMARK    2  A    between atoms: C_16  and  N_18
REMARK    3  A    between atoms: N_18  and  C_19
REMARK                            x       y       z     vdW  Elec       q    Type
REMARK                         _______ _______ _______ _____ _____    ______ ____
ROOT
ATOM      1  C   UNL     1       0.201   0.672  -0.637  0.00  0.00    +0.036 A 
ATOM      2  C   UNL     1       1.330   1.467  -0.699  0.00  0.00    +0.048 A 
ATOM      3  C   UNL     1       2.559   0.958  -0.312  0.00  0.00    +0.131 A 
ATOM      4  C   UNL     1       2.647  -0.371   0.122  0.00  0.00    +0.019 A 
ATOM      5  C   UNL     1       1.502  -1.159   0.199  0.00  0.00    +0.044 A 
ATOM      6  C   UNL     1       0.284  -0.633  -0.184  0.00  0.00    +0.127 A 
ATOM      7  C   UNL     1       3.975  -0.929   0.457  0.00  0.00    +0.016 C 
ATOM      8  C   UNL     1       5.046  -0.208   0.182  0.00  0.00    -0.011 C 
ATOM      9  C   UNL     1       6.438  -0.792   0.321  0.00  0.00    +0.036 C 
ATOM     10  C   UNL     1       7.087  -0.720  -1.072  0.00  0.00    +0.005 C 
ATOM     11  C   UNL     1       7.057   0.715  -1.594  0.00  0.00    +0.006 C 
ATOM     12  C   UNL     1       5.614   1.213  -1.742  0.00  0.00    +0.070 C 
ATOM     13  C   UNL     1       4.950   1.187  -0.371  0.00  0.00    +0.185 C 
ATOM     14  O   UNL     1       3.663   1.741  -0.330  0.00  0.00    -0.467 OA
ENDROOT
BRANCH   6  15
ATOM     15  N   UNL     1      -0.937  -1.467  -0.108  0.00  0.00    +0.056 N 
ATOM     16  O   UNL     1      -2.004  -1.008  -0.442  0.00  0.00    -0.126 OA
ATOM     17  O   UNL     1      -0.866  -2.607   0.288  0.00  0.00    -0.126 OA
ENDBRANCH   6  15
BRANCH  13  18
ATOM     18  N   UNL     1       5.777   2.031   0.501  0.00  0.00    -0.273 NA
ATOM     19  H   UNL     1       6.749   1.763   0.448  0.00  0.00    +0.126 HD
BRANCH  18  20
ATOM     20  C   UNL     1       5.295   1.987   1.888  0.00  0.00    +0.058 C 
ATOM     21  C   UNL     1       4.419   3.210   2.163  0.00  0.00    +0.019 C 
ATOM     22  C   UNL     1       3.917   3.164   3.607  0.00  0.00    +0.002 C 
ATOM     23  C   UNL     1       5.111   3.168   4.563  0.00  0.00    +0.000 C 
ATOM     24  C   UNL     1       5.988   1.944   4.288  0.00  0.00    +0.002 C 
ATOM     25  C   UNL     1       6.490   1.990   2.844  0.00  0.00    +0.019 C 
ENDBRANCH  18  20
ENDBRANCH  13  18
TORSDOF 3
