REMARK  Name = ZINC01189745
REMARK  6 active torsions:
REMARK  status: ('A' for Active; 'I' for Inactive)
REMARK    1  A    between atoms: C_4  and  C_8
REMARK    2  A    between atoms: C_11  and  C_13
REMARK    3  A    between atoms: C_14  and  C_15
REMARK    4  A    between atoms: C_14  and  C_17
REMARK    5  A    between atoms: N_19  and  C_20
REMARK    6  A    between atoms: C_21  and  C_29
REMARK                            x       y       z     vdW  Elec       q    Type
REMARK                         _______ _______ _______ _____ _____    ______ ____
ROOT
ATOM      1  C   UNL     1      -0.014   1.213   0.009  0.00  0.00    +0.259 C 
ATOM      2  O   UNL     1       0.002  -0.004   0.002  0.00  0.00    -0.269 OA
ATOM      3  N   UNL     1       1.143   1.903   0.001  0.00  0.00    -0.275 N 
ATOM      4  H   UNL     1       1.130   2.873   0.007  0.00  0.00    +0.156 HD
ENDROOT
BRANCH   3   5
ATOM      5  C   UNL     1       2.352   1.226  -0.014  0.00  0.00    +0.085 A 
ATOM      6  C   UNL     1       3.636   1.755  -0.029  0.00  0.00    +0.068 A 
ATOM      7  C   UNL     1       4.747   0.818  -0.038  0.00  0.00    -0.023 A 
ATOM      8  C   UNL     1       4.399  -0.487  -0.043  0.00  0.00    -0.004 A 
ATOM      9  S   UNL     1       2.629  -0.484  -0.026  0.00  0.00    -0.077 S 
ATOM     10  C   UNL     1       5.321  -1.667  -0.059  0.00  0.00    +0.043 C 
ATOM     11  C   UNL     1       6.724  -1.179  -0.448  0.00  0.00    +0.005 C 
ATOM     12  C   UNL     1       7.069   0.053   0.393  0.00  0.00    +0.005 C 
ATOM     13  C   UNL     1       6.211   1.240  -0.049  0.00  0.00    +0.037 C 
BRANCH   6  14
ATOM     14  C   UNL     1       3.862   3.203  -0.031  0.00  0.00    +0.244 C 
ATOM     15  O   UNL     1       3.969   3.804   1.022  0.00  0.00    -0.270 OA
ATOM     16  N   UNL     1       3.952   3.869  -1.199  0.00  0.00    -0.325 N 
ATOM     17  H   UNL     1       3.867   3.390  -2.038  0.00  0.00    +0.145 HD
ATOM     18  H   UNL     1       4.102   4.828  -1.201  0.00  0.00    +0.145 HD
ENDBRANCH   6  14
ENDBRANCH   3   5
BRANCH   1  20
ATOM     19  C   UNL     1      -2.488   1.219   0.021  0.00  0.00    +0.070 C 
ATOM     20  C   UNL     1      -1.295   1.929   0.019  0.00  0.00    +0.117 C 
BRANCH  19  24
ATOM     21  C   UNL     1      -5.182   3.541   0.046  0.00  0.00    +0.137 A 
ATOM     22  C   UNL     1      -5.898   2.362   0.043  0.00  0.00    +0.050 A 
ATOM     23  C   UNL     1      -4.972   1.321   0.027  0.00  0.00    +0.050 A 
ATOM     24  C   UNL     1      -3.713   1.904   0.030  0.00  0.00    +0.130 A 
ATOM     25  O   UNL     1      -3.870   3.245   0.038  0.00  0.00    -0.455 OA
BRANCH  21  29
ATOM     26  C   UNL     1      -6.842   7.449   0.073  0.00  0.00    +0.021 A 
ATOM     27  C   UNL     1      -7.287   6.519  -0.850  0.00  0.00    +0.022 A 
ATOM     28  C   UNL     1      -6.748   5.248  -0.869  0.00  0.00    +0.052 A 
ATOM     29  C   UNL     1      -5.758   4.898   0.055  0.00  0.00    +0.037 A 
ATOM     30  C   UNL     1      -5.313   5.843   0.984  0.00  0.00    +0.033 A 
ATOM     31  C   UNL     1      -5.857   7.112   0.987  0.00  0.00    +0.042 A 
ATOM     32 CL   UNL     1      -5.307   8.287   2.140  0.00  0.00    -0.084 Cl
ATOM     33 CL   UNL     1      -7.303   4.085  -2.031  0.00  0.00    -0.083 Cl
ENDBRANCH  21  29
ENDBRANCH  19  24
BRANCH  20  34
ATOM     34  C   UNL     1      -1.314   3.361   0.027  0.00  0.00    +0.104 C 
ATOM     35  N   UNL     1      -1.330   4.497   0.033  0.00  0.00    -0.191 NA
ENDBRANCH  20  34
ENDBRANCH   1  20
TORSDOF 6
