REMARK  Name = ZINC03148395
REMARK  7 active torsions:
REMARK  status: ('A' for Active; 'I' for Inactive)
REMARK    1  A    between atoms: C_1  and  C_2
REMARK    2  A    between atoms: C_2  and  C_3
REMARK    3  A    between atoms: C_8  and  N_9
REMARK    4  A    between atoms: C_10  and  C_12
REMARK    5  A    between atoms: N_14  and  N_15
REMARK    6  A    between atoms: C_16  and  C_17
REMARK    7  A    between atoms: C_22  and  O_23
REMARK                            x       y       z     vdW  Elec       q    Type
REMARK                         _______ _______ _______ _____ _____    ______ ____
ROOT
ATOM      1  C   UNL     1       4.938  -0.222   1.156  0.00  0.00    +0.318 C 
ATOM      2  O   UNL     1       4.368   0.170   2.154  0.00  0.00    -0.263 OA
ATOM      3  N   UNL     1       6.270  -0.428   1.177  0.00  0.00    -0.199 N 
ATOM      4  H   UNL     1       6.725  -0.741   0.380  0.00  0.00    +0.178 HD
ENDROOT
BRANCH   1   6
ATOM      5  N   UNL     1       2.833  -0.269  -0.115  0.00  0.00    -0.277 N 
ATOM      6  C   UNL     1       4.164  -0.475  -0.093  0.00  0.00    +0.305 C 
ATOM      7  O   UNL     1       4.734  -0.866  -1.091  0.00  0.00    -0.265 OA
ATOM      8  H   UNL     1       2.387   0.106   0.662  0.00  0.00    +0.155 HD
BRANCH   5  14
ATOM      9  C   UNL     1       0.800  -1.086  -1.129  0.00  0.00    -0.026 A 
ATOM     10  C   UNL     1       0.070  -1.402  -2.258  0.00  0.00    +0.005 A 
ATOM     11  C   UNL     1       0.627  -1.234  -3.512  0.00  0.00    +0.000 A 
ATOM     12  C   UNL     1       1.917  -0.751  -3.641  0.00  0.00    +0.002 A 
ATOM     13  C   UNL     1       2.652  -0.433  -2.517  0.00  0.00    +0.023 A 
ATOM     14  C   UNL     1       2.093  -0.595  -1.255  0.00  0.00    +0.037 A 
BRANCH   9  16
ATOM     15  C   UNL     1      -0.422   0.052   0.704  0.00  0.00    +0.009 C 
ATOM     16  C   UNL     1       0.193  -1.269   0.238  0.00  0.00    +0.033 C 
ENDBRANCH   9  16
ENDBRANCH   5  14
ENDBRANCH   1   6
BRANCH   3  17
ATOM     17  N   UNL     1       6.997  -0.190   2.351  0.00  0.00    -0.187 NA
ATOM     18  C   UNL     1       8.281  -0.389   2.371  0.00  0.00    +0.142 C 
BRANCH  18  19
ATOM     19  C   UNL     1       9.045  -0.139   3.605  0.00  0.00    +0.036 A 
ATOM     20  C   UNL     1      10.427  -0.346   3.630  0.00  0.00    +0.013 A 
ATOM     21  C   UNL     1      11.136  -0.110   4.789  0.00  0.00    +0.001 A 
ATOM     22  C   UNL     1      10.485   0.330   5.929  0.00  0.00    +0.004 A 
ATOM     23  C   UNL     1       9.119   0.539   5.917  0.00  0.00    +0.046 A 
ATOM     24  C   UNL     1       8.391   0.313   4.760  0.00  0.00    +0.125 A 
BRANCH  24  25
ATOM     25  O   UNL     1       7.050   0.523   4.746  0.00  0.00    -0.506 OA
ATOM     26  H   UNL     1       6.527  -0.252   4.994  0.00  0.00    +0.292 HD
ENDBRANCH  24  25
ENDBRANCH  18  19
ENDBRANCH   3  17
TORSDOF 6
