REMARK  Name = ZINC06721857
REMARK  7 active torsions:
REMARK  status: ('A' for Active; 'I' for Inactive)
REMARK    1  A    between atoms: C_1  and  C_2
REMARK    2  A    between atoms: C_2  and  N_3
REMARK    3  A    between atoms: N_3  and  C_4
REMARK    4  A    between atoms: C_9  and  O_12
REMARK    5  A    between atoms: C_14  and  N_26
REMARK    6  A    between atoms: C_15  and  C_24
REMARK    7  A    between atoms: C_16  and  C_18
REMARK                            x       y       z     vdW  Elec       q    Type
REMARK                         _______ _______ _______ _____ _____    ______ ____
ROOT
ATOM      1  C   UNL     1       1.111  -2.647  -2.497  0.00  0.00    +0.104 A 
ATOM      2  C   UNL     1       0.493  -2.698  -1.246  0.00  0.00    +0.046 A 
ATOM      3  C   UNL     1      -0.787  -3.211  -1.156  0.00  0.00    +0.155 A 
ATOM      4  C   UNL     1      -1.394  -3.652  -2.325  0.00  0.00    +0.102 A 
ATOM      5  C   UNL     1      -0.737  -3.584  -3.570  0.00  0.00    +0.122 A 
ATOM      6  C   UNL     1      -1.548  -4.096  -4.662  0.00  0.00    +0.245 A 
ATOM      7  N   UNL     1      -2.744  -4.550  -4.423  0.00  0.00    -0.173 NA
ATOM      8  S   UNL     1      -2.961  -4.366  -2.739  0.00  0.00    +0.021 S 
ATOM      9  O   UNL     1      -1.426  -3.280   0.034  0.00  0.00    -0.440 OA
ATOM     10  C   UNL     1      -0.725  -3.213   1.178  0.00  0.00    +0.199 C 
ATOM     11  C   UNL     1       0.533  -2.712   1.220  0.00  0.00    +0.098 C 
ATOM     12  C   UNL     1       1.210  -2.202  -0.022  0.00  0.00    +0.103 C 
ATOM     13  N   UNL     1       0.554  -3.067  -3.660  0.00  0.00    -0.338 N 
ATOM     14  H   UNL     1       1.054  -3.007  -4.554  0.00  0.00    +0.167 HD
ENDROOT
BRANCH  12  15
ATOM     15  C   UNL     1       1.199  -0.695  -0.013  0.00  0.00    -0.016 A 
ATOM     16  C   UNL     1       2.389   0.017  -0.021  0.00  0.00    +0.007 A 
ATOM     17  C   UNL     1       2.331   1.401  -0.013  0.00  0.00    +0.020 A 
ATOM     18  C   UNL     1       1.096   2.023   0.003  0.00  0.00    +0.111 A 
ATOM     19  N   UNL     1      -0.016   1.315   0.009  0.00  0.00    -0.263 NA
ATOM     20  C   UNL     1       0.002  -0.004   0.002  0.00  0.00    +0.115 A 
ENDBRANCH  12  15
BRANCH  10  21
ATOM     21  N   UNL     1      -1.300  -3.666   2.340  0.00  0.00    -0.328 N 
ATOM     22  H   UNL     1      -2.200  -4.027   2.326  0.00  0.00    +0.145 HD
ATOM     23  H   UNL     1      -0.806  -3.623   3.174  0.00  0.00    +0.145 HD
ENDBRANCH  10  21
BRANCH   1  24
ATOM     24  N   UNL     1       2.400  -2.131  -2.592  0.00  0.00    -0.330 N 
ATOM     25  H   UNL     1       2.855  -1.813  -1.797  0.00  0.00    +0.147 HD
BRANCH  24  27
ATOM     26  C   UNL     1       4.464  -1.464  -3.721  0.00  0.00    +0.024 C 
ATOM     27  C   UNL     1       3.069  -2.068  -3.894  0.00  0.00    +0.099 C 
ENDBRANCH  24  27
ENDBRANCH   1  24
BRANCH   6  28
ATOM     28  O   UNL     1      -1.059  -4.100  -5.930  0.00  0.00    -0.491 OA
ATOM     29  H   UNL     1      -1.250  -3.294  -6.429  0.00  0.00    +0.294 HD
ENDBRANCH   6  28
BRANCH  11  30
ATOM     30  C   UNL     1       1.230  -2.667   2.469  0.00  0.00    +0.101 C 
ATOM     31  N   UNL     1       1.784  -2.632   3.461  0.00  0.00    -0.191 NA
ENDBRANCH  11  30
TORSDOF 6
