REMARK  Name = ZINC63694186
REMARK  9 active torsions:
REMARK  status: ('A' for Active; 'I' for Inactive)
REMARK    1  A    between atoms: C_1  and  C_2
REMARK    2  A    between atoms: C_4  and  N_36
REMARK    3  A    between atoms: C_6  and  N_16
REMARK    4  A    between atoms: N_8  and  C_10
REMARK    5  A    between atoms: C_19  and  C_22
REMARK    6  A    between atoms: N_24  and  C_25
REMARK    7  A    between atoms: C_25  and  C_26
REMARK    8  A    between atoms: C_26  and  C_27
REMARK    9  A    between atoms: C_37  and  C_39
REMARK                            x       y       z     vdW  Elec       q    Type
REMARK                         _______ _______ _______ _____ _____    ______ ____
ROOT
ATOM      1  N   UNL     1      -2.683   0.462   2.087  0.00  0.00    +0.394 N 
ATOM      2  C   UNL     1      -2.135   1.712   1.547  0.00  0.00    -0.075 C 
ATOM      3  C   UNL     1      -3.058   2.877   1.914  0.00  0.00    -0.006 C 
ATOM      4  C   UNL     1      -3.161   2.979   3.438  0.00  0.00    +0.071 C 
ATOM      5  C   UNL     1      -3.663   1.644   3.996  0.00  0.00    -0.006 C 
ATOM      6  C   UNL     1      -2.718   0.525   3.553  0.00  0.00    -0.075 C 
ATOM      7  H   UNL     1      -3.619   0.327   1.734  0.00  0.00    -0.079 HD
ENDROOT
BRANCH   1  11
ATOM      8  C   UNL     1      -0.832  -0.511   4.602  0.00  0.00    +0.027 C 
ATOM      9  C   UNL     1      -0.300  -1.286   3.395  0.00  0.00    +0.090 C 
ATOM     10  C   UNL     1      -0.372  -0.424   2.105  0.00  0.00    +0.096 C 
ATOM     11  C   UNL     1      -1.837  -0.663   1.667  0.00  0.00    +0.060 C 
ATOM     12  N   UNL     1      -2.253  -1.899   2.349  0.00  0.00    -0.278 N 
ATOM     13  N   UNL     1      -1.198  -2.420   3.054  0.00  0.00    -0.237 NA
ATOM     14  H   UNL     1      -0.710  -3.117   2.512  0.00  0.00    +0.145 HD
BRANCH  12  15
ATOM     15  C   UNL     1      -3.532  -2.458   2.288  0.00  0.00    +0.043 A 
ATOM     16  C   UNL     1      -4.476  -1.941   1.410  0.00  0.00    +0.024 A 
ATOM     17  C   UNL     1      -5.739  -2.497   1.352  0.00  0.00    +0.002 A 
ATOM     18  C   UNL     1      -6.064  -3.566   2.166  0.00  0.00    +0.000 A 
ATOM     19  C   UNL     1      -5.126  -4.083   3.041  0.00  0.00    +0.002 A 
ATOM     20  C   UNL     1      -3.860  -3.536   3.101  0.00  0.00    +0.024 A 
ENDBRANCH  12  15
BRANCH  10  21
ATOM     21  N   UNL     1       0.568  -0.912   1.093  0.00  0.00    -0.311 N 
ATOM     22  C   UNL     1       1.846  -0.483   1.098  0.00  0.00    +0.210 C 
ATOM     23  O   UNL     1       2.217   0.307   1.940  0.00  0.00    -0.276 OA
ATOM     24  C   UNL     1       2.813  -0.984   0.057  0.00  0.00    +0.109 C 
ATOM     25  H   UNL     1       0.271  -1.543   0.419  0.00  0.00    +0.149 HD
ENDBRANCH  10  21
ENDBRANCH   1  11
BRANCH   4  26
ATOM     26  C   UNL     1      -4.129   4.074   3.805  0.00  0.00    +0.216 C 
ATOM     27  O   UNL     1      -4.682   4.712   2.935  0.00  0.00    -0.276 OA
ATOM     28  N   UNL     1      -4.379   4.346   5.102  0.00  0.00    -0.315 N 
ATOM     29  H   UNL     1      -3.937   3.836   5.798  0.00  0.00    +0.149 HD
BRANCH  28  30
ATOM     30  C   UNL     1      -5.320   5.410   5.459  0.00  0.00    +0.108 C 
BRANCH  30  31
ATOM     31  C   UNL     1      -5.422   5.511   6.982  0.00  0.00    +0.052 C 
BRANCH  31  32
ATOM     32  C   UNL     1      -6.390   6.606   7.349  0.00  0.00    -0.040 C 
ATOM     33  C   UNL     1      -7.704   6.468   7.637  0.00  0.00    -0.001 A 
ATOM     34  C   UNL     1      -8.592   5.300   7.691  0.00  0.00    +0.010 A 
ATOM     35  C   UNL     1      -9.893   5.480   8.016  0.00  0.00    +0.001 A 
ATOM     36  C   UNL     1     -10.412   6.750   8.302  0.00  0.00    +0.002 A 
ATOM     37  C   UNL     1      -9.659   7.869   8.273  0.00  0.00    +0.026 A 
ATOM     38  C   UNL     1      -8.277   7.798   7.943  0.00  0.00    +0.043 A 
ATOM     39  N   UNL     1      -7.353   8.723   7.849  0.00  0.00    -0.380 N 
ATOM     40  C   UNL     1      -6.086   8.082   7.477  0.00  0.00    +0.144 C 
ATOM     41  H   UNL     1      -7.484   9.671   8.003  0.00  0.00    +0.160 HD
ENDBRANCH  31  32
ENDBRANCH  30  31
ENDBRANCH  28  30
ENDBRANCH   4  26
TORSDOF 7
