REMARK  Name = ZINC11965771
REMARK  10 active torsions:
REMARK  status: ('A' for Active; 'I' for Inactive)
REMARK    1  A    between atoms: C_1  and  C_2
REMARK    2  A    between atoms: C_2  and  C_3
REMARK    3  A    between atoms: C_3  and  C_14
REMARK    4  A    between atoms: N_6  and  C_10
REMARK    5  A    between atoms: C_10  and  C_11
REMARK    6  A    between atoms: C_11  and  C_13
REMARK    7  A    between atoms: C_19  and  C_20
REMARK    8  A    between atoms: C_19  and  N_59
REMARK    9  A    between atoms: C_23  and  N_25
REMARK   10  A    between atoms: C_26  and  C_28
REMARK                            x       y       z     vdW  Elec       q    Type
REMARK                         _______ _______ _______ _____ _____    ______ ____
ROOT
ATOM      1  C   UNL     1      -0.662  -0.558   1.264  0.00  0.00    +0.018 C 
ATOM      2  C   UNL     1      -2.150  -0.196   1.260  0.00  0.00    -0.013 C 
ATOM      3  C   UNL     1      -2.796  -0.700   2.553  0.00  0.00    -0.078 C 
ATOM      4  C   UNL     1      -0.708  -0.459   3.758  0.00  0.00    -0.078 C 
ATOM      5  C   UNL     1       0.000   0.052   2.502  0.00  0.00    -0.013 C 
ATOM      6  N   UNL     1      -2.130  -0.057   3.705  0.00  0.00    +0.383 N 
ATOM      7  H   UNL     1      -2.183   0.963   3.594  0.00  0.00    -0.081 HD
ENDROOT
BRANCH   1   8
ATOM      8  C   UNL     1       0.002  -0.004   0.002  0.00  0.00    +0.115 C 
ATOM      9  C   UNL     1      -0.018   1.512   0.010  0.00  0.00    +0.247 C 
ATOM     10  O   UNL     1      -0.995   2.231   0.019  0.00  0.00    -0.273 OA
ATOM     11  N   UNL     1       1.274   1.894   0.000  0.00  0.00    -0.220 N 
ATOM     12  C   UNL     1       2.099   0.841  -0.013  0.00  0.00    +0.310 C 
ATOM     13  O   UNL     1       3.311   0.933  -0.025  0.00  0.00    -0.252 OA
ATOM     14  N   UNL     1       1.438  -0.331  -0.013  0.00  0.00    -0.285 N 
ATOM     15  H   UNL     1       1.831  -1.218  -0.022  0.00  0.00    +0.151 HD
BRANCH   8  17
ATOM     16  C   UNL     1       0.098  -0.121  -2.492  0.00  0.00    +0.006 C 
ATOM     17  C   UNL     1      -0.690  -0.545  -1.251  0.00  0.00    +0.032 C 
ENDBRANCH   8  17
BRANCH  11  18
ATOM     18  C   UNL     1       1.720   3.289   0.002  0.00  0.00    +0.148 C 
BRANCH  18  19
ATOM     19  C   UNL     1       1.886   3.761   1.424  0.00  0.00    -0.062 C 
ATOM     20  C   UNL     1       3.062   3.711   1.997  0.00  0.00    +0.009 C 
ATOM     21  C   UNL     1       0.698   4.290   2.186  0.00  0.00    +0.040 C 
ENDBRANCH  18  19
ENDBRANCH  11  18
ENDBRANCH   1   8
BRANCH   6  22
ATOM     22  C   UNL     1      -2.810  -0.439   4.959  0.00  0.00    -0.036 C 
BRANCH  22  23
ATOM     23  C   UNL     1      -4.188   0.172   4.970  0.00  0.00    -0.025 A 
ATOM     24  C   UNL     1      -5.353  -0.348   4.516  0.00  0.00    +0.011 A 
ATOM     25  C   UNL     1      -6.512   0.397   4.633  0.00  0.00    +0.031 A 
ATOM     26  C   UNL     1      -6.441   1.637   5.193  0.00  0.00    +0.072 A 
ATOM     27  S   UNL     1      -4.703   1.769   5.577  0.00  0.00    -0.080 S 
BRANCH  26  28
ATOM     28  N   UNL     1      -7.464   2.565   5.410  0.00  0.00    -0.280 N 
ATOM     29  C   UNL     1      -7.186   3.752   5.985  0.00  0.00    +0.214 C 
ATOM     30  O   UNL     1      -6.048   4.015   6.314  0.00  0.00    -0.276 OA
ATOM     31  C   UNL     1      -8.288   4.752   6.219  0.00  0.00    +0.109 C 
ATOM     32  H   UNL     1      -8.373   2.354   5.147  0.00  0.00    +0.155 HD
ENDBRANCH  26  28
ENDBRANCH  22  23
ENDBRANCH   6  22
TORSDOF 7
