REMARK  Name = ZINC00758748
REMARK  7 active torsions:
REMARK  status: ('A' for Active; 'I' for Inactive)
REMARK    1  A    between atoms: C_1  and  C_2
REMARK    2  A    between atoms: C_2  and  C_24
REMARK    3  A    between atoms: C_3  and  C_20
REMARK    4  A    between atoms: C_5  and  C_7
REMARK    5  A    between atoms: N_9  and  C_10
REMARK    6  A    between atoms: C_13  and  S_16
REMARK    7  A    between atoms: S_16  and  N_19
REMARK                            x       y       z     vdW  Elec       q    Type
REMARK                         _______ _______ _______ _____ _____    ______ ____
ROOT
ATOM      1  C   UNL     1      -1.135   1.717   0.790  0.00  0.00    +0.221 C 
ATOM      2  O   UNL     1      -1.626   2.760   0.412  0.00  0.00    -0.275 OA
ATOM      3  N   UNL     1      -1.591   1.126   1.912  0.00  0.00    -0.285 N 
ATOM      4  H   UNL     1      -1.246   0.259   2.178  0.00  0.00    +0.155 HD
ENDROOT
BRANCH   3   5
ATOM      5  C   UNL     1      -2.562   1.762   2.694  0.00  0.00    +0.034 A 
ATOM      6  C   UNL     1      -2.540   1.628   4.076  0.00  0.00    +0.025 A 
ATOM      7  C   UNL     1      -3.496   2.262   4.845  0.00  0.00    +0.030 A 
ATOM      8  C   UNL     1      -4.481   3.021   4.239  0.00  0.00    +0.105 A 
ATOM      9  C   UNL     1      -4.508   3.152   2.863  0.00  0.00    +0.030 A 
ATOM     10  C   UNL     1      -3.552   2.525   2.089  0.00  0.00    +0.025 A 
BRANCH   8  11
ATOM     11  S   UNL     1      -5.703   3.823   5.223  0.00  0.00    +0.056 S 
ATOM     12  O   UNL     1      -5.137   3.990   6.516  0.00  0.00    -0.153 OA
ATOM     13  O   UNL     1      -6.188   4.916   4.457  0.00  0.00    -0.153 OA
BRANCH  11  14
ATOM     14  N   UNL     1      -6.966   2.765   5.393  0.00  0.00    -0.204 NA
ATOM     15  H   UNL     1      -6.925   1.890   4.979  0.00  0.00    +0.144 HD
ATOM     16  H   UNL     1      -7.747   3.022   5.908  0.00  0.00    +0.144 HD
ENDBRANCH  11  14
ENDBRANCH   8  11
ENDBRANCH   3   5
BRANCH   1  20
ATOM     17  C   UNL     1       0.907   0.939  -2.439  0.00  0.00    +0.012 C 
ATOM     18  C   UNL     1       0.458   1.803  -1.259  0.00  0.00    -0.016 C 
ATOM     19  C   UNL     1       1.335   1.798  -0.005  0.00  0.00    +0.033 C 
ATOM     20  C   UNL     1      -0.017   1.082   0.004  0.00  0.00    +0.089 C 
ATOM     21  C   UNL     1      -0.239   3.114  -1.628  0.00  0.00    +0.012 C 
BRANCH  19  22
ATOM     22  C   UNL     1       1.446   3.085   0.771  0.00  0.00    +0.010 C 
ATOM     23  C   UNL     1       2.619   3.652   0.938  0.00  0.00    +0.103 C 
ATOM     24 CL   UNL     1       4.041   2.919   0.265  0.00  0.00    -0.071 Cl
ATOM     25 CL   UNL     1       2.747   5.135   1.833  0.00  0.00    -0.071 Cl
ENDBRANCH  19  22
ENDBRANCH   1  20
TORSDOF 5
