REMARK  Name = ZINC09409173
REMARK  12 active torsions:
REMARK  status: ('A' for Active; 'I' for Inactive)
REMARK    1  A    between atoms: C_1  and  C_2
REMARK    2  A    between atoms: C_2  and  C_3
REMARK    3  A    between atoms: C_2  and  C_4
REMARK    4  A    between atoms: C_2  and  C_5
REMARK    5  A    between atoms: C_8  and  C_11
REMARK    6  A    between atoms: C_14  and  C_32
REMARK    7  A    between atoms: N_21  and  C_22
REMARK    8  A    between atoms: C_22  and  C_23
REMARK    9  A    between atoms: C_23  and  C_24
REMARK   10  A    between atoms: C_27  and  O_30
REMARK   11  A    between atoms: O_30  and  C_31
REMARK   12  A    between atoms: C_37  and  O_38
REMARK                            x       y       z     vdW  Elec       q    Type
REMARK                         _______ _______ _______ _____ _____    ______ ____
ROOT
ATOM      1  C   UNL     1       2.713  -1.849  -4.710  0.00  0.00    +0.141 C 
ATOM      2  C   UNL     1       3.707  -2.927  -4.376  0.00  0.00    +0.035 A 
ATOM      3  C   UNL     1       3.931  -4.201  -3.843  0.00  0.00    +0.102 A 
ATOM      4  N   UNL     1       5.225  -4.441  -3.925  0.00  0.00    -0.173 NA
ATOM      5  N   UNL     1       5.840  -3.446  -4.457  0.00  0.00    -0.272 N 
ATOM      6  H   UNL     1       6.796  -3.402  -4.616  0.00  0.00    +0.189 HD
ATOM      7  C   UNL     1       4.947  -2.458  -4.765  0.00  0.00    +0.126 A 
ATOM      8  C   UNL     1       4.781  -1.117  -5.337  0.00  0.00    +0.265 C 
ATOM      9  O   UNL     1       5.686  -0.431  -5.773  0.00  0.00    -0.268 OA
ATOM     10  N   UNL     1       3.485  -0.753  -5.310  0.00  0.00    -0.285 N 
ENDROOT
BRANCH   1  14
ATOM     11  C   UNL     1       0.759  -0.497  -1.160  0.00  0.00    -0.042 A 
ATOM     12  C   UNL     1       2.107  -0.252  -1.343  0.00  0.00    +0.004 A 
ATOM     13  C   UNL     1       2.740  -0.690  -2.492  0.00  0.00    +0.006 A 
ATOM     14  C   UNL     1       2.024  -1.373  -3.458  0.00  0.00    -0.022 A 
ATOM     15  C   UNL     1       0.676  -1.619  -3.274  0.00  0.00    +0.006 A 
ATOM     16  C   UNL     1       0.045  -1.185  -2.123  0.00  0.00    +0.004 A 
BRANCH  11  18
ATOM     17  C   UNL     1      -0.506  -1.221   0.846  0.00  0.00    +0.015 C 
ATOM     18  C   UNL     1       0.070  -0.020   0.092  0.00  0.00    -0.013 C 
ATOM     19  C   UNL     1      -1.062   0.938  -0.282  0.00  0.00    +0.015 C 
ATOM     20  C   UNL     1       1.079   0.706   0.984  0.00  0.00    +0.015 C 
ENDBRANCH  11  18
ENDBRANCH   1  14
BRANCH   3  21
ATOM     21  C   UNL     1       2.902  -5.114  -3.288  0.00  0.00    +0.044 A 
ATOM     22  C   UNL     1       1.552  -4.786  -3.382  0.00  0.00    +0.014 A 
ATOM     23  C   UNL     1       0.598  -5.639  -2.863  0.00  0.00    +0.001 A 
ATOM     24  C   UNL     1       0.978  -6.819  -2.250  0.00  0.00    +0.004 A 
ATOM     25  C   UNL     1       2.315  -7.154  -2.151  0.00  0.00    +0.046 A 
ATOM     26  C   UNL     1       3.283  -6.310  -2.672  0.00  0.00    +0.126 A 
BRANCH  26  27
ATOM     27  O   UNL     1       4.597  -6.641  -2.582  0.00  0.00    -0.506 OA
ATOM     28  H   UNL     1       5.029  -6.321  -1.778  0.00  0.00    +0.292 HD
ENDBRANCH  26  27
ENDBRANCH   3  21
BRANCH  10  29
ATOM     29  C   UNL     1       2.938   0.516  -5.796  0.00  0.00    +0.114 C 
BRANCH  29  30
ATOM     30  C   UNL     1       2.938   1.540  -4.658  0.00  0.00    +0.054 C 
BRANCH  30  31
ATOM     31  C   UNL     1       2.376   2.845  -5.157  0.00  0.00    -0.046 A 
ATOM     32  C   UNL     1       3.218   3.794  -5.708  0.00  0.00    +0.007 A 
ATOM     33  C   UNL     1       2.705   4.992  -6.166  0.00  0.00    +0.046 A 
ATOM     34  C   UNL     1       1.344   5.243  -6.074  0.00  0.00    +0.120 A 
ATOM     35  C   UNL     1       0.501   4.290  -5.521  0.00  0.00    +0.046 A 
ATOM     36  C   UNL     1       1.018   3.091  -5.069  0.00  0.00    +0.007 A 
BRANCH  34  37
ATOM     37  O   UNL     1       0.837   6.421  -6.523  0.00  0.00    -0.495 OA
ATOM     38  C   UNL     1      -0.573   6.611  -6.396  0.00  0.00    +0.277 C 
ENDBRANCH  34  37
ENDBRANCH  30  31
ENDBRANCH  29  30
ENDBRANCH  10  29
TORSDOF 8
