REMARK  Name = ZINC60155498
REMARK  9 active torsions:
REMARK  status: ('A' for Active; 'I' for Inactive)
REMARK    1  A    between atoms: C_1  and  C_2
REMARK    2  A    between atoms: C_5  and  C_8
REMARK    3  A    between atoms: C_8  and  C_10
REMARK    4  A    between atoms: C_8  and  N_34
REMARK    5  A    between atoms: C_10  and  N_11
REMARK    6  A    between atoms: C_12  and  C_14
REMARK    7  A    between atoms: C_18  and  N_20
REMARK    8  A    between atoms: N_34  and  C_35
REMARK    9  A    between atoms: N_34  and  C_36
REMARK                            x       y       z     vdW  Elec       q    Type
REMARK                         _______ _______ _______ _____ _____    ______ ____
ROOT
ATOM      1  C   UNL     1       2.463  -8.373   1.491  0.00  0.00    +0.039 A 
ATOM      2  C   UNL     1       1.293  -9.057   1.158  0.00  0.00    +0.013 A 
ATOM      3  C   UNL     1       1.277 -10.437   1.158  0.00  0.00    +0.003 A 
ATOM      4  C   UNL     1       2.418 -11.146   1.487  0.00  0.00    +0.025 A 
ATOM      5  C   UNL     1       3.587 -10.473   1.820  0.00  0.00    +0.057 A 
ATOM      6  C   UNL     1       3.615  -9.087   1.817  0.00  0.00    +0.038 A 
ENDROOT
BRANCH   5   7
ATOM      7  N   UNL     1       4.739 -11.195   2.153  0.00  0.00    -0.188 N 
ATOM      8  C   UNL     1       5.917 -10.880   1.577  0.00  0.00    +0.240 C 
ATOM      9  O   UNL     1       5.980 -10.006   0.737  0.00  0.00    -0.273 OA
ATOM     10  C   UNL     1       7.163 -11.637   1.999  0.00  0.00    +0.093 C 
ATOM     11  C   UNL     1       7.148 -12.983   1.264  0.00  0.00    +0.040 C 
ATOM     12  C   UNL     1       8.083 -13.959   1.907  0.00  0.00    -0.030 C 
ATOM     13  C   UNL     1       8.554 -13.838   3.105  0.00  0.00    -0.030 C 
ATOM     14  C   UNL     1       8.241 -12.684   4.010  0.00  0.00    +0.040 C 
ATOM     15  C   UNL     1       7.052 -11.880   3.509  0.00  0.00    +0.092 C 
ATOM     16  C   UNL     1       5.756 -12.587   3.797  0.00  0.00    +0.234 C 
ATOM     17  O   UNL     1       5.695 -13.446   4.651  0.00  0.00    -0.274 OA
ATOM     18  N   UNL     1       4.661 -12.238   3.087  0.00  0.00    -0.227 N 
ATOM     19  H   UNL     1       3.825 -12.711   3.222  0.00  0.00    +0.173 HD
ENDBRANCH   5   7
BRANCH   1  21
ATOM     20  N   UNL     1       1.367  -6.205   1.176  0.00  0.00    -0.313 N 
ATOM     21  C   UNL     1       2.482  -6.894   1.492  0.00  0.00    +0.244 C 
ATOM     22  O   UNL     1       3.503  -6.300   1.777  0.00  0.00    -0.270 OA
ATOM     23  H   UNL     1       0.552  -6.680   0.948  0.00  0.00    +0.149 HD
BRANCH  20  24
ATOM     24  C   UNL     1       1.386  -4.740   1.177  0.00  0.00    +0.094 C 
BRANCH  24  25
ATOM     25  C   UNL     1      -0.021  -4.212   0.892  0.00  0.00    -0.021 C 
BRANCH  25  30
ATOM     26  C   UNL     1      -1.698  -5.923  -4.366  0.00  0.00    +0.044 C 
ATOM     27  C   UNL     1      -1.261  -5.477  -2.995  0.00  0.00    -0.050 A 
ATOM     28  C   UNL     1      -1.703  -6.154  -1.874  0.00  0.00    +0.003 A 
ATOM     29  C   UNL     1      -1.302  -5.745  -0.616  0.00  0.00    +0.002 A 
ATOM     30  C   UNL     1      -0.458  -4.659  -0.479  0.00  0.00    -0.059 A 
ATOM     31  C   UNL     1      -0.015  -3.982  -1.600  0.00  0.00    +0.002 A 
ATOM     32  C   UNL     1      -0.413  -4.394  -2.858  0.00  0.00    +0.003 A 
ENDBRANCH  25  30
BRANCH  25  33
ATOM     33  N   UNL     1      -0.014  -2.744   0.950  0.00  0.00    +0.382 N 
ATOM     34  C   UNL     1      -1.370  -2.238   0.703  0.00  0.00    -0.096 C 
ATOM     35  C   UNL     1       0.438  -2.308   2.278  0.00  0.00    -0.096 C 
ATOM     36  H   UNL     1       0.613  -2.383   0.246  0.00  0.00    -0.082 HD
ENDBRANCH  25  33
ENDBRANCH  24  25
ENDBRANCH  20  24
ENDBRANCH   1  21
TORSDOF 6
