REMARK  Name = ZINC13865416
REMARK  7 active torsions:
REMARK  status: ('A' for Active; 'I' for Inactive)
REMARK    1  A    between atoms: C_1  and  C_2
REMARK    2  A    between atoms: C_2  and  C_3
REMARK    3  A    between atoms: C_2  and  C_4
REMARK    4  A    between atoms: C_7  and  N_10
REMARK    5  A    between atoms: N_12  and  N_13
REMARK    6  A    between atoms: C_14  and  C_15
REMARK    7  A    between atoms: C_14  and  C_16
REMARK                            x       y       z     vdW  Elec       q    Type
REMARK                         _______ _______ _______ _____ _____    ______ ____
ROOT
ATOM      1  N   UNL     1      -5.320  -1.967   0.042  0.00  0.00    -0.294 N 
ATOM      2  C   UNL     1      -5.797  -2.673  -1.030  0.00  0.00    +0.163 C 
ATOM      3  N   UNL     1      -7.109  -3.058  -1.065  0.00  0.00    -0.258 N 
ATOM      4  S   UNL     1      -4.784  -3.061  -2.286  0.00  0.00    -0.014 SA
ATOM      5  H   UNL     1      -5.756  -2.042   0.905  0.00  0.00    +0.154 HD
ATOM      6  H   UNL     1      -7.701  -2.831  -0.332  0.00  0.00    +0.191 HD
ENDROOT
BRANCH   1  10
ATOM      7  C   UNL     1      -1.995   0.503  -0.404  0.00  0.00    -0.045 A 
ATOM      8  C   UNL     1      -2.896   0.363  -1.445  0.00  0.00    +0.006 A 
ATOM      9  C   UNL     1      -3.999  -0.455  -1.300  0.00  0.00    +0.023 A 
ATOM     10  C   UNL     1      -4.204  -1.138  -0.108  0.00  0.00    +0.033 A 
ATOM     11  C   UNL     1      -3.297  -0.995   0.935  0.00  0.00    +0.023 A 
ATOM     12  C   UNL     1      -2.193  -0.180   0.782  0.00  0.00    +0.006 A 
BRANCH   7  14
ATOM     13  C   UNL     1       0.059   0.899  -1.736  0.00  0.00    +0.012 C 
ATOM     14  C   UNL     1      -0.792   1.396  -0.566  0.00  0.00    +0.013 C 
ATOM     15  C   UNL     1      -1.254   2.828  -0.844  0.00  0.00    +0.012 C 
ENDBRANCH   7  14
ENDBRANCH   1  10
BRANCH   3  16
ATOM     16  N   UNL     1      -7.598  -3.780  -2.162  0.00  0.00    -0.177 NA
ATOM     17  C   UNL     1      -8.843  -4.145  -2.196  0.00  0.00    +0.066 C 
ATOM     18  C   UNL     1      -9.763  -3.793  -1.056  0.00  0.00    +0.068 C 
BRANCH  17  19
ATOM     19  C   UNL     1      -9.357  -4.905  -3.350  0.00  0.00    +0.001 A 
ATOM     20  C   UNL     1     -10.698  -5.295  -3.391  0.00  0.00    +0.013 A 
ATOM     21  C   UNL     1     -11.177  -6.005  -4.472  0.00  0.00    +0.050 A 
ATOM     22  C   UNL     1     -10.330  -6.335  -5.521  0.00  0.00    +0.166 A 
ATOM     23  C   UNL     1      -8.991  -5.950  -5.486  0.00  0.00    +0.167 A 
ATOM     24  C   UNL     1      -8.506  -5.233  -4.408  0.00  0.00    +0.059 A 
ATOM     25  O   UNL     1      -8.380  -6.393  -6.624  0.00  0.00    -0.453 OA
ATOM     26  C   UNL     1      -9.255  -7.403  -7.161  0.00  0.00    +0.466 C 
ATOM     27  O   UNL     1     -10.557  -7.019  -6.680  0.00  0.00    -0.453 OA
ENDBRANCH  17  19
ENDBRANCH   3  16
TORSDOF 4
