REMARK  Name = ZINC14643098
REMARK  13 active torsions:
REMARK  status: ('A' for Active; 'I' for Inactive)
REMARK    1  A    between atoms: C_1  and  C_2
REMARK    2  A    between atoms: C_5  and  N_9
REMARK    3  A    between atoms: C_6  and  C_8
REMARK    4  A    between atoms: C_10  and  C_12
REMARK    5  A    between atoms: C_12  and  C_13
REMARK    6  A    between atoms: C_13  and  C_14
REMARK    7  A    between atoms: N_16  and  N_17
REMARK    8  A    between atoms: C_18  and  C_20
REMARK    9  A    between atoms: C_20  and  C_22
REMARK   10  A    between atoms: C_20  and  O_23
REMARK   11  A    between atoms: O_23  and  C_24
REMARK   12  A    between atoms: C_25  and  C_32
REMARK   13  A    between atoms: C_29  and  C_30
REMARK                            x       y       z     vdW  Elec       q    Type
REMARK                         _______ _______ _______ _____ _____    ______ ____
ROOT
ATOM      1  C   UNL     1       4.018   2.142   0.464  0.00  0.00    +0.230 C 
ATOM      2  O   UNL     1       4.148   3.346   0.530  0.00  0.00    -0.274 OA
ATOM      3  N   UNL     1       5.102   1.353   0.328  0.00  0.00    -0.234 N 
ATOM      4  H   UNL     1       4.997   0.390   0.276  0.00  0.00    +0.173 HD
ENDROOT
BRANCH   3   5
ATOM      5  N   UNL     1       6.380   1.923   0.263  0.00  0.00    -0.231 N 
ATOM      6  C   UNL     1       7.464   1.134   0.127  0.00  0.00    +0.270 C 
ATOM      7  O   UNL     1       7.333  -0.070   0.061  0.00  0.00    -0.270 OA
ATOM      8  H   UNL     1       6.484   2.886   0.316  0.00  0.00    +0.173 HD
BRANCH   6   9
ATOM      9  C   UNL     1       8.838   1.748   0.057  0.00  0.00    +0.257 C 
ATOM     10  C   UNL     1       8.955   2.593  -1.213  0.00  0.00    +0.062 C 
BRANCH   9  11
ATOM     11  O   UNL     1       9.822   0.712   0.031  0.00  0.00    -0.479 OA
BRANCH  11  12
ATOM     12  C   UNL     1      10.995   0.958   0.672  0.00  0.00    +0.127 A 
ATOM     13  C   UNL     1      12.089   1.430  -0.039  0.00  0.00    -0.007 A 
ATOM     14  C   UNL     1      13.279   1.685   0.615  0.00  0.00    +0.022 A 
ATOM     15  C   UNL     1      13.383   1.460   1.976  0.00  0.00    +0.019 A 
ATOM     16  C   UNL     1      12.294   0.985   2.686  0.00  0.00    +0.022 A 
ATOM     17  C   UNL     1      11.101   0.734   2.037  0.00  0.00    -0.007 A 
ATOM     18  C   UNL     1       9.916   0.216   2.811  0.00  0.00    +0.047 C 
ATOM     19 BR   UNL     1      15.015   1.804   2.868  0.00  0.00    -0.050 Br
ATOM     20  C   UNL     1      11.978   1.669  -1.523  0.00  0.00    +0.047 C 
ENDBRANCH  11  12
ENDBRANCH   9  11
ENDBRANCH   6   9
ENDBRANCH   3   5
BRANCH   1  21
ATOM     21  C   UNL     1       2.643   1.528   0.535  0.00  0.00    +0.106 C 
BRANCH  21  22
ATOM     22  C   UNL     1       1.598   2.635   0.688  0.00  0.00    +0.105 C 
BRANCH  22  24
ATOM     23  N   UNL     1      -0.862   2.810   0.888  0.00  0.00    -0.285 N 
ATOM     24  C   UNL     1       0.223   2.021   0.758  0.00  0.00    +0.218 C 
ATOM     25  O   UNL     1       0.092   0.817   0.692  0.00  0.00    -0.275 OA
ATOM     26  H   UNL     1      -0.753   3.765   1.024  0.00  0.00    +0.155 HD
BRANCH  23  31
ATOM     27  C   UNL     1      -6.059   0.550   0.646  0.00  0.00    +0.044 C 
ATOM     28  C   UNL     1      -4.679   1.151   0.710  0.00  0.00    -0.050 A 
ATOM     29  C   UNL     1      -3.619   0.511   0.093  0.00  0.00    +0.005 A 
ATOM     30  C   UNL     1      -2.352   1.059   0.151  0.00  0.00    +0.024 A 
ATOM     31  C   UNL     1      -2.144   2.253   0.828  0.00  0.00    +0.036 A 
ATOM     32  C   UNL     1      -3.209   2.890   1.451  0.00  0.00    -0.029 A 
ATOM     33  C   UNL     1      -4.474   2.340   1.385  0.00  0.00    +0.008 A 
ATOM     34  C   UNL     1      -2.986   4.183   2.192  0.00  0.00    +0.045 C 
ENDBRANCH  23  31
ENDBRANCH  22  24
ENDBRANCH  21  22
ENDBRANCH   1  21
TORSDOF 8
