REMARK  Name = ZINC61104033
REMARK  5 active torsions:
REMARK  status: ('A' for Active; 'I' for Inactive)
REMARK    1  A    between atoms: C_3  and  C_22
REMARK    2  A    between atoms: C_5  and  O_7
REMARK    3  A    between atoms: O_7  and  C_8
REMARK    4  A    between atoms: C_8  and  C_10
REMARK    5  A    between atoms: C_22  and  C_23
REMARK                            x       y       z     vdW  Elec       q    Type
REMARK                         _______ _______ _______ _____ _____    ______ ____
ROOT
ATOM      1  C   UNL     1       0.059  -2.691   0.091  0.00  0.00    +0.362 C 
ATOM      2  O   UNL     1      -0.984  -2.067   0.103  0.00  0.00    -0.243 OA
ENDROOT
BRANCH   1   3
ATOM      3  C   UNL     1       0.040  -4.154   0.198  0.00  0.00    +0.144 A 
ATOM      4  C   UNL     1      -1.078  -4.923   0.309  0.00  0.00    +0.080 A 
ATOM      5  C   UNL     1      -0.664  -6.276   0.386  0.00  0.00    +0.020 A 
ATOM      6  C   UNL     1      -1.358  -7.487   0.508  0.00  0.00    +0.031 A 
ATOM      7  C   UNL     1      -0.666  -8.663   0.558  0.00  0.00    +0.042 A 
ATOM      8  C   UNL     1       0.723  -8.671   0.490  0.00  0.00    +0.022 A 
ATOM      9  C   UNL     1       1.425  -7.493   0.370  0.00  0.00    +0.028 A 
ATOM     10  C   UNL     1       0.742  -6.281   0.316  0.00  0.00    +0.049 A 
ATOM     11  N   UNL     1       1.154  -4.974   0.195  0.00  0.00    -0.348 N 
ATOM     12  H   UNL     1       2.075  -4.677   0.123  0.00  0.00    +0.166 HD
ATOM     13 CL   UNL     1      -1.528 -10.163   0.710  0.00  0.00    -0.084 Cl
ATOM     14 CL   UNL     1      -2.716  -4.349   0.349  0.00  0.00    -0.080 Cl
ENDBRANCH   1   3
BRANCH   1  15
ATOM     15  O   UNL     1       1.235  -2.039  -0.021  0.00  0.00    -0.421 OA
BRANCH  15  20
ATOM     16  C   UNL     1       1.492   1.420  -1.120  0.00  0.00    +0.004 A 
ATOM     17  C   UNL     1       1.176   2.085   0.051  0.00  0.00    +0.004 A 
ATOM     18  C   UNL     1       0.881   1.371   1.197  0.00  0.00    -0.035 A 
ATOM     19  C   UNL     1       0.900  -0.010   1.175  0.00  0.00    +0.050 A 
ATOM     20  C   UNL     1       1.215  -0.680   0.002  0.00  0.00    +0.132 A 
ATOM     21  C   UNL     1       1.512   0.039  -1.147  0.00  0.00    +0.046 A 
BRANCH  18  22
ATOM     22  C   UNL     1       0.539   2.100   2.471  0.00  0.00    +0.130 C 
BRANCH  22  23
ATOM     23  C   UNL     1      -0.949   2.330   2.533  0.00  0.00    +0.215 C 
ATOM     24  O   UNL     1      -1.662   1.941   1.632  0.00  0.00    -0.276 OA
ATOM     25  N   UNL     1      -1.488   2.969   3.591  0.00  0.00    -0.329 N 
ATOM     26  H   UNL     1      -0.919   3.280   4.311  0.00  0.00    +0.145 HD
ATOM     27  H   UNL     1      -2.446   3.117   3.631  0.00  0.00    +0.145 HD
ENDBRANCH  22  23
ENDBRANCH  18  22
ENDBRANCH  15  20
ENDBRANCH   1  15
TORSDOF 5
