REMARK  Name = ZINC33139655
REMARK  10 active torsions:
REMARK  status: ('A' for Active; 'I' for Inactive)
REMARK    1  A    between atoms: C_1  and  C_2
REMARK    2  A    between atoms: C_5  and  C_9
REMARK    3  A    between atoms: C_7  and  C_8
REMARK    4  A    between atoms: C_11  and  C_16
REMARK    5  A    between atoms: C_12  and  C_15
REMARK    6  A    between atoms: N_18  and  C_19
REMARK    7  A    between atoms: C_19  and  C_20
REMARK    8  A    between atoms: C_20  and  C_21
REMARK    9  A    between atoms: C_24  and  S_27
REMARK   10  A    between atoms: S_27  and  N_30
REMARK                            x       y       z     vdW  Elec       q    Type
REMARK                         _______ _______ _______ _____ _____    ______ ____
ROOT
ATOM      1  C   UNL     1      -0.268   1.258  -2.409  0.00  0.00    +0.246 C 
ATOM      2  O   UNL     1       0.729   0.573  -2.534  0.00  0.00    -0.270 OA
ATOM      3  N   UNL     1      -0.721   1.571  -1.179  0.00  0.00    -0.311 N 
ATOM      4  H   UNL     1      -1.623   2.191  -1.066  0.00  0.00    +0.149 HD
ENDROOT
BRANCH   1   7
ATOM      5  C   UNL     1      -2.467   2.766  -4.920  0.00  0.00    +0.047 A 
ATOM      6  C   UNL     1      -2.150   2.550  -3.618  0.00  0.00    +0.041 A 
ATOM      7  C   UNL     1      -0.981   1.746  -3.603  0.00  0.00    +0.057 A 
ATOM      8  C   UNL     1      -0.635   1.514  -4.916  0.00  0.00    +0.025 A 
ATOM      9  N   UNL     1      -1.539   2.127  -5.706  0.00  0.00    -0.358 N 
ATOM     10  H   UNL     1      -1.620   2.175  -6.802  0.00  0.00    +0.166 HD
ATOM     11  C   UNL     1       0.548   0.710  -5.389  0.00  0.00    +0.064 C 
BRANCH   5  16
ATOM     12  C   UNL     1      -6.941   5.843  -6.827  0.00  0.00    +0.044 C 
ATOM     13  C   UNL     1      -5.770   5.038  -6.328  0.00  0.00    -0.047 A 
ATOM     14  C   UNL     1      -4.907   4.443  -7.232  0.00  0.00    +0.004 A 
ATOM     15  C   UNL     1      -3.830   3.709  -6.781  0.00  0.00    +0.010 A 
ATOM     16  C   UNL     1      -3.617   3.557  -5.410  0.00  0.00    -0.001 A 
ATOM     17  C   UNL     1      -4.490   4.159  -4.504  0.00  0.00    +0.013 A 
ATOM     18  C   UNL     1      -5.561   4.896  -4.968  0.00  0.00    -0.047 A 
ATOM     19  C   UNL     1      -6.505   5.547  -3.990  0.00  0.00    +0.044 C 
ENDBRANCH   5  16
ENDBRANCH   1   7
BRANCH   3  20
ATOM     20  C   UNL     1      -0.013   1.086   0.008  0.00  0.00    +0.109 C 
BRANCH  20  21
ATOM     21  C   UNL     1      -0.729   1.579   1.267  0.00  0.00    +0.054 C 
BRANCH  21  22
ATOM     22  C   UNL     1       0.000   1.080   2.488  0.00  0.00    -0.046 A 
ATOM     23  C   UNL     1      -0.347  -0.133   3.052  0.00  0.00    +0.005 A 
ATOM     24  C   UNL     1       0.324  -0.593   4.170  0.00  0.00    +0.029 A 
ATOM     25  C   UNL     1       1.337   0.164   4.728  0.00  0.00    +0.105 A 
ATOM     26  C   UNL     1       1.681   1.380   4.166  0.00  0.00    +0.029 A 
ATOM     27  C   UNL     1       1.012   1.838   3.046  0.00  0.00    +0.005 A 
BRANCH  25  28
ATOM     28  S   UNL     1       2.190  -0.420   6.154  0.00  0.00    +0.056 S 
ATOM     29  O   UNL     1       2.048  -1.834   6.162  0.00  0.00    -0.153 OA
ATOM     30  O   UNL     1       3.459   0.218   6.158  0.00  0.00    -0.153 OA
BRANCH  28  31
ATOM     31  N   UNL     1       1.372   0.145   7.479  0.00  0.00    -0.204 NA
ATOM     32  H   UNL     1       1.875  -0.200   8.395  0.00  0.00    +0.144 HD
ATOM     33  H   UNL     1       0.340  -0.236   7.463  0.00  0.00    +0.144 HD
ENDBRANCH  28  31
ENDBRANCH  25  28
ENDBRANCH  21  22
ENDBRANCH  20  21
ENDBRANCH   3  20
TORSDOF 7
