REMARK  Name = ZINC62182423
REMARK  8 active torsions:
REMARK  status: ('A' for Active; 'I' for Inactive)
REMARK    1  A    between atoms: C_1  and  C_2
REMARK    2  A    between atoms: C_2  and  N_3
REMARK    3  A    between atoms: N_3  and  C_4
REMARK    4  A    between atoms: N_3  and  C_6
REMARK    5  A    between atoms: C_4  and  C_5
REMARK    6  A    between atoms: C_8  and  O_24
REMARK    7  A    between atoms: C_17  and  C_18
REMARK    8  A    between atoms: C_17  and  C_19
REMARK                            x       y       z     vdW  Elec       q    Type
REMARK                         _______ _______ _______ _____ _____    ______ ____
ROOT
ATOM      1  C   UNL     1      -1.243  -1.959   0.044  0.00  0.00    +0.009 C 
ATOM      2  C   UNL     1      -0.518  -2.333   1.339  0.00  0.00    +0.138 C 
ATOM      3  C   UNL     1      -1.433  -2.109   2.517  0.00  0.00    +0.025 A 
ATOM      4  C   UNL     1      -0.879  -2.021   3.784  0.00  0.00    +0.059 A 
ATOM      5  C   UNL     1      -1.686  -1.819   4.890  0.00  0.00    +0.163 A 
ATOM      6  C   UNL     1      -3.062  -1.702   4.729  0.00  0.00    +0.166 A 
ATOM      7  C   UNL     1      -3.616  -1.790   3.463  0.00  0.00    +0.095 A 
ATOM      8  C   UNL     1      -2.802  -1.992   2.353  0.00  0.00    +0.130 A 
ATOM      9  O   UNL     1      -3.386  -2.061   1.127  0.00  0.00    -0.487 OA
ATOM     10  C   UNL     1      -2.626  -2.624   0.056  0.00  0.00    +0.096 C 
ATOM     11  C   UNL     1      -2.471  -4.131   0.270  0.00  0.00    +0.054 C 
ATOM     12  C   UNL     1      -3.335  -2.362  -1.274  0.00  0.00    +0.054 C 
ATOM     13  O   UNL     1      -3.874  -1.497   5.802  0.00  0.00    -0.485 OA
ATOM     14  C   UNL     1      -3.322  -1.784   7.091  0.00  0.00    +0.270 C 
ATOM     15  C   UNL     1      -1.921  -1.163   7.164  0.00  0.00    +0.270 C 
ATOM     16  O   UNL     1      -1.120  -1.739   6.127  0.00  0.00    -0.485 OA
ENDROOT
BRANCH   1  17
ATOM     17  N   UNL     1      -1.395  -0.500  -0.034  0.00  0.00    +0.386 N 
ATOM     18  H   UNL     1      -2.014  -0.267  -0.796  0.00  0.00    -0.081 HD
BRANCH  17  20
ATOM     19  C   UNL     1      -2.042   1.528   1.175  0.00  0.00    -0.017 C 
ATOM     20  C   UNL     1      -1.960   0.002   1.226  0.00  0.00    -0.082 C 
ENDBRANCH  17  20
BRANCH  17  21
ATOM     21  C   UNL     1      -0.083   0.118  -0.264  0.00  0.00    -0.082 C 
ATOM     22  C   UNL     1       0.445  -0.300  -1.638  0.00  0.00    -0.017 C 
ENDBRANCH  17  21
ENDBRANCH   1  17
BRANCH   2  23
ATOM     23  O   UNL     1      -0.137  -3.710   1.290  0.00  0.00    -0.389 OA
ATOM     24  H   UNL     1       0.329  -4.017   2.080  0.00  0.00    +0.210 HD
ENDBRANCH   2  23
TORSDOF 4
