REMARK  Name = ZINC15988780
REMARK  7 active torsions:
REMARK  status: ('A' for Active; 'I' for Inactive)
REMARK    1  A    between atoms: C_3  and  C_17
REMARK    2  A    between atoms: C_5  and  S_7
REMARK    3  A    between atoms: S_7  and  N_10
REMARK    4  A    between atoms: N_19  and  C_20
REMARK    5  A    between atoms: C_20  and  C_21
REMARK    6  A    between atoms: C_21  and  C_23
REMARK    7  A    between atoms: C_21  and  N_65
REMARK                            x       y       z     vdW  Elec       q    Type
REMARK                         _______ _______ _______ _____ _____    ______ ____
ROOT
ATOM      1  C   UNL     1      -3.015   4.387  -2.420  0.00  0.00    +0.244 C 
ATOM      2  O   UNL     1      -2.424   4.213  -3.468  0.00  0.00    -0.270 OA
ATOM      3  N   UNL     1      -2.623   3.732  -1.309  0.00  0.00    -0.312 N 
ATOM      4  H   UNL     1      -3.094   3.870  -0.473  0.00  0.00    +0.149 HD
ENDROOT
BRANCH   1   7
ATOM      5  C   UNL     1      -5.916   6.384  -1.117  0.00  0.00    +0.003 A 
ATOM      6  C   UNL     1      -4.848   5.513  -1.164  0.00  0.00    +0.013 A 
ATOM      7  C   UNL     1      -4.164   5.316  -2.364  0.00  0.00    +0.039 A 
ATOM      8  C   UNL     1      -4.572   5.995  -3.513  0.00  0.00    +0.041 A 
ATOM      9  C   UNL     1      -5.645   6.860  -3.454  0.00  0.00    +0.106 A 
ATOM     10  C   UNL     1      -6.316   7.054  -2.260  0.00  0.00    +0.028 A 
BRANCH   9  11
ATOM     11  S   UNL     1      -6.163   7.719  -4.903  0.00  0.00    +0.061 S 
ATOM     12  O   UNL     1      -6.848   8.883  -4.462  0.00  0.00    -0.153 OA
ATOM     13  O   UNL     1      -5.034   7.779  -5.764  0.00  0.00    -0.153 OA
BRANCH  11  14
ATOM     14  N   UNL     1      -7.286   6.767  -5.661  0.00  0.00    -0.177 NA
ATOM     15  C   UNL     1      -6.833   5.811  -6.646  0.00  0.00    +0.109 C 
ATOM     16  C   UNL     1      -6.794   6.470  -8.040  0.00  0.00    +0.017 C 
ATOM     17  C   UNL     1      -8.160   6.699  -8.535  0.00  0.00    +0.001 C 
ATOM     18  C   UNL     1      -8.984   7.660  -7.683  0.00  0.00    +0.001 C 
ATOM     19  C   UNL     1      -9.623   6.900  -6.547  0.00  0.00    +0.017 C 
ATOM     20  C   UNL     1      -8.710   6.934  -5.308  0.00  0.00    +0.109 C 
ENDBRANCH  11  14
ENDBRANCH   9  11
ENDBRANCH   1   7
BRANCH   3  21
ATOM     21  C   UNL     1      -1.484   2.812  -1.365  0.00  0.00    +0.097 C 
BRANCH  21  22
ATOM     22  C   UNL     1      -1.250   2.205   0.020  0.00  0.00    +0.016 C 
BRANCH  22  28
ATOM     23  C   UNL     1       0.013   4.181   0.623  0.00  0.00    -0.078 C 
ATOM     24  C   UNL     1       0.063   5.368   1.587  0.00  0.00    -0.019 C 
ATOM     25  C   UNL     1       0.273   4.851   3.014  0.00  0.00    -0.004 C 
ATOM     26  C   UNL     1      -0.857   3.882   3.369  0.00  0.00    -0.019 C 
ATOM     27  C   UNL     1      -0.880   2.738   2.353  0.00  0.00    -0.078 C 
ATOM     28  N   UNL     1      -1.111   3.299   1.004  0.00  0.00    +0.387 N 
ATOM     29  H   UNL     1      -1.977   3.849   1.016  0.00  0.00    -0.081 HD
ENDBRANCH  22  28
BRANCH  22  30
ATOM     30  C   UNL     1      -0.007   1.355  -0.007  0.00  0.00    +0.093 A 
ATOM     31  C   UNL     1       0.028   0.011   0.034  0.00  0.00    +0.043 A 
ATOM     32  C   UNL     1       1.389  -0.366  -0.020  0.00  0.00    +0.041 A 
ATOM     33  C   UNL     1       2.105   0.770  -0.091  0.00  0.00    +0.195 A 
ATOM     34  O   UNL     1       1.254   1.810  -0.083  0.00  0.00    -0.469 OA
ENDBRANCH  22  30
ENDBRANCH  21  22
ENDBRANCH   3  21
TORSDOF 7
