REMARK  Name = ZINC40768668
REMARK  6 active torsions:
REMARK  status: ('A' for Active; 'I' for Inactive)
REMARK    1  A    between atoms: C_1  and  C_2
REMARK    2  A    between atoms: C_2  and  C_4
REMARK    3  A    between atoms: C_2  and  N_10
REMARK    4  A    between atoms: N_10  and  C_11
REMARK    5  A    between atoms: C_11  and  C_12
REMARK    6  A    between atoms: C_15  and  C_18
REMARK                            x       y       z     vdW  Elec       q    Type
REMARK                         _______ _______ _______ _____ _____    ______ ____
ROOT
ATOM      1  C   UNL     1      -2.050  -0.126  -1.234  0.00  0.00    -0.046 C 
ENDROOT
BRANCH   1   2
ATOM      2  C   UNL     1      -3.464  -0.648  -1.224  0.00  0.00    -0.064 A 
ATOM      3  C   UNL     1      -3.738  -1.906  -1.729  0.00  0.00    +0.002 A 
ATOM      4  C   UNL     1      -5.031  -2.389  -1.722  0.00  0.00    +0.010 A 
ATOM      5  C   UNL     1      -6.061  -1.606  -1.203  0.00  0.00    +0.002 A 
ATOM      6  C   UNL     1      -5.779  -0.340  -0.695  0.00  0.00    +0.010 A 
ATOM      7  C   UNL     1      -4.482   0.131  -0.703  0.00  0.00    +0.002 A 
BRANCH   5   8
ATOM      8  C   UNL     1      -7.453  -2.120  -1.193  0.00  0.00    +0.092 A 
ATOM      9  C   UNL     1      -8.584  -1.439  -0.701  0.00  0.00    +0.049 A 
ATOM     10  C   UNL     1      -9.657  -2.242  -0.872  0.00  0.00    +0.105 A 
ATOM     11  N   UNL     1      -9.234  -3.388  -1.448  0.00  0.00    -0.284 N 
ATOM     12  N   UNL     1      -7.850  -3.290  -1.646  0.00  0.00    -0.174 NA
ATOM     13  H   UNL     1      -9.791  -4.145  -1.686  0.00  0.00    +0.188 HD
ENDBRANCH   5   8
ENDBRANCH   1   2
BRANCH   1  14
ATOM     14  N   UNL     1      -1.376  -0.512   0.012  0.00  0.00    +0.386 N 
ATOM     15  H   UNL     1      -1.363  -1.518   0.090  0.00  0.00    -0.085 HD
ATOM     16  H   UNL     1      -1.873  -0.121   0.799  0.00  0.00    -0.085 HD
BRANCH  14  18
ATOM     17  C   UNL     1      -0.019   1.526   0.010  0.00  0.00    -0.008 C 
ATOM     18  C   UNL     1       0.002  -0.004   0.002  0.00  0.00    -0.036 C 
BRANCH  18  19
ATOM     19  C   UNL     1       0.731  -0.503   1.223  0.00  0.00    -0.010 A 
ATOM     20  C   UNL     1       1.979  -1.024   1.319  0.00  0.00    +0.026 A 
ATOM     21  C   UNL     1       2.447  -1.420   2.558  0.00  0.00    +0.023 A 
ATOM     22  C   UNL     1       1.643  -1.276   3.640  0.00  0.00    +0.046 A 
ATOM     23  S   UNL     1       0.177  -0.556   2.919  0.00  0.00    -0.102 S 
ATOM     24 BR   UNL     1       3.064  -1.205  -0.219  0.00  0.00    -0.050 Br
ENDBRANCH  18  19
ENDBRANCH  14  18
ENDBRANCH   1  14
TORSDOF 5
