REMARK  Name = ZINC12568026
REMARK  11 active torsions:
REMARK  status: ('A' for Active; 'I' for Inactive)
REMARK    1  A    between atoms: C_1  and  C_2
REMARK    2  A    between atoms: C_2  and  C_3
REMARK    3  A    between atoms: C_3  and  C_4
REMARK    4  A    between atoms: C_4  and  N_5
REMARK    5  A    between atoms: C_6  and  N_37
REMARK    6  A    between atoms: C_7  and  N_14
REMARK    7  A    between atoms: N_14  and  C_15
REMARK    8  A    between atoms: C_15  and  C_16
REMARK    9  A    between atoms: C_17  and  C_19
REMARK   10  A    between atoms: C_23  and  S_25
REMARK   11  A    between atoms: S_25  and  N_28
REMARK                            x       y       z     vdW  Elec       q    Type
REMARK                         _______ _______ _______ _____ _____    ______ ____
ROOT
ATOM      1  N   UNL     1       2.222   3.842  -0.163  0.00  0.00    -0.260 N 
ATOM      2  C   UNL     1       2.156   5.180  -0.017  0.00  0.00    +0.251 C 
ATOM      3  O   UNL     1       3.168   5.819   0.197  0.00  0.00    -0.270 OA
ENDROOT
BRANCH   1   6
ATOM      4  N   UNL     1      -0.758   2.669  -1.964  0.00  0.00    -0.280 N 
ATOM      5  C   UNL     1       0.368   3.398  -1.660  0.00  0.00    +0.127 A 
ATOM      6  C   UNL     1       1.064   3.112  -0.503  0.00  0.00    +0.140 A 
ATOM      7  C   UNL     1       0.597   2.080   0.333  0.00  0.00    +0.277 A 
ATOM      8  O   UNL     1       1.192   1.806   1.361  0.00  0.00    -0.266 OA
ATOM      9  N   UNL     1      -0.512   1.396  -0.012  0.00  0.00    -0.273 N 
ATOM     10  H   UNL     1      -0.846   0.665   0.583  0.00  0.00    +0.173 HD
ATOM     11  C   UNL     1      -1.173   1.685  -1.146  0.00  0.00    +0.331 A 
ATOM     12  O   UNL     1      -2.169   1.049  -1.435  0.00  0.00    -0.246 OA
BRANCH   5  13
ATOM     13  N   UNL     1       0.796   4.399  -2.499  0.00  0.00    -0.343 N 
ATOM     14  H   UNL     1       1.656   4.822  -2.350  0.00  0.00    +0.144 HD
ATOM     15  H   UNL     1       0.237   4.684  -3.239  0.00  0.00    +0.144 HD
ENDBRANCH   5  13
BRANCH   4  16
ATOM     16  C   UNL     1      -1.505   2.961  -3.190  0.00  0.00    +0.128 C 
BRANCH  16  17
ATOM     17  C   UNL     1      -0.955   2.112  -4.338  0.00  0.00    +0.021 C 
BRANCH  17  19
ATOM     18  C   UNL     1      -1.186   1.568  -6.765  0.00  0.00    +0.004 C 
ATOM     19  C   UNL     1      -1.736   2.417  -5.618  0.00  0.00    -0.002 C 
ENDBRANCH  17  19
ENDBRANCH  16  17
ENDBRANCH   4  16
ENDBRANCH   1   6
BRANCH   2  20
ATOM     20  C   UNL     1       0.853   5.872  -0.117  0.00  0.00    +0.039 A 
ATOM     21  C   UNL     1      -0.334   5.158   0.054  0.00  0.00    +0.013 A 
ATOM     22  C   UNL     1      -1.546   5.809  -0.041  0.00  0.00    +0.003 A 
ATOM     23  C   UNL     1      -1.587   7.167  -0.305  0.00  0.00    +0.029 A 
ATOM     24  C   UNL     1      -0.414   7.880  -0.476  0.00  0.00    +0.109 A 
ATOM     25  C   UNL     1       0.805   7.242  -0.378  0.00  0.00    +0.042 A 
BRANCH  24  26
ATOM     26  S   UNL     1      -0.477   9.609  -0.811  0.00  0.00    +0.075 S 
ATOM     27  O   UNL     1       0.738   9.939  -1.470  0.00  0.00    -0.150 OA
ATOM     28  O   UNL     1      -1.750   9.864  -1.388  0.00  0.00    -0.150 OA
BRANCH  26  29
ATOM     29  N   UNL     1      -0.452  10.392   0.647  0.00  0.00    -0.202 N 
ATOM     30  C   UNL     1       0.760  10.825   1.347  0.00  0.00    +0.136 C 
ATOM     31  C   UNL     1       0.263  11.494   2.639  0.00  0.00    +0.058 C 
ATOM     32  C   UNL     1      -1.244  11.384   2.567  0.00  0.00    -0.023 A 
ATOM     33  C   UNL     1      -1.583  10.741   1.387  0.00  0.00    +0.054 A 
ATOM     34  C   UNL     1      -2.932  10.528   1.095  0.00  0.00    +0.025 A 
ATOM     35  C   UNL     1      -3.908  10.956   1.969  0.00  0.00    +0.002 A 
ATOM     36  C   UNL     1      -3.559  11.599   3.142  0.00  0.00    +0.000 A 
ATOM     37  C   UNL     1      -2.225  11.806   3.443  0.00  0.00    +0.005 A 
ENDBRANCH  26  29
ENDBRANCH  24  26
ENDBRANCH   2  20
BRANCH   1  38
ATOM     38  C   UNL     1       3.496   3.145   0.032  0.00  0.00    +0.111 C 
ATOM     39  C   UNL     1       4.208   2.999  -1.314  0.00  0.00    +0.025 C 
ENDBRANCH   1  38
TORSDOF 9
