REMARK  Name = ZINC45150615
REMARK  8 active torsions:
REMARK  status: ('A' for Active; 'I' for Inactive)
REMARK    1  A    between atoms: C_1  and  C_2
REMARK    2  A    between atoms: C_2  and  C_3
REMARK    3  A    between atoms: C_2  and  C_4
REMARK    4  A    between atoms: C_4  and  C_6
REMARK    5  A    between atoms: C_4  and  N_18
REMARK    6  A    between atoms: C_9  and  C_12
REMARK    7  A    between atoms: N_21  and  N_22
REMARK    8  A    between atoms: C_23  and  C_25
REMARK                            x       y       z     vdW  Elec       q    Type
REMARK                         _______ _______ _______ _____ _____    ______ ____
ROOT
ATOM      1  C   UNL     1      -1.433  -0.534   0.013  0.00  0.00    +0.107 C 
ENDROOT
BRANCH   1   2
ATOM      2  C   UNL     1      -1.413  -2.041   0.005  0.00  0.00    -0.027 A 
ATOM      3  C   UNL     1      -1.201  -2.722  -1.179  0.00  0.00    +0.006 A 
ATOM      4  C   UNL     1      -1.183  -4.104  -1.187  0.00  0.00    +0.004 A 
ATOM      5  C   UNL     1      -1.375  -4.805  -0.011  0.00  0.00    -0.044 A 
ATOM      6  C   UNL     1      -1.586  -4.123   1.173  0.00  0.00    +0.004 A 
ATOM      7  C   UNL     1      -1.600  -2.741   1.182  0.00  0.00    +0.006 A 
BRANCH   5   8
ATOM      8  C   UNL     1      -1.355  -6.312  -0.019  0.00  0.00    +0.019 C 
ATOM      9  C   UNL     1      -2.701  -6.842   0.479  0.00  0.00    +0.008 C 
ATOM     10  C   UNL     1      -2.682  -8.372   0.470  0.00  0.00    +0.001 C 
ATOM     11  C   UNL     1      -1.565  -8.873   1.389  0.00  0.00    +0.000 C 
ATOM     12  C   UNL     1      -0.219  -8.342   0.891  0.00  0.00    +0.001 C 
ATOM     13  C   UNL     1      -0.239  -6.812   0.899  0.00  0.00    +0.008 C 
ENDBRANCH   5   8
ENDBRANCH   1   2
BRANCH   1  14
ATOM     14  N   UNL     1      -2.142  -0.048  -1.174  0.00  0.00    -0.291 N 
ATOM     15  C   UNL     1      -2.727   1.166  -1.160  0.00  0.00    +0.316 C 
ATOM     16  O   UNL     1      -2.667   1.858  -0.163  0.00  0.00    -0.251 OA
ATOM     17  N   UNL     1      -3.379   1.612  -2.252  0.00  0.00    -0.218 N 
ATOM     18  H   UNL     1      -2.190  -0.601  -1.970  0.00  0.00    +0.151 HD
ATOM     19  H   UNL     1      -3.800   2.486  -2.242  0.00  0.00    +0.174 HD
BRANCH  17  20
ATOM     20  N   UNL     1      -3.448   0.814  -3.401  0.00  0.00    -0.233 N 
ATOM     21  C   UNL     1      -4.100   1.261  -4.493  0.00  0.00    +0.226 C 
ATOM     22  O   UNL     1      -4.627   2.353  -4.481  0.00  0.00    -0.275 OA
ATOM     23  C   UNL     1      -4.175   0.402  -5.730  0.00  0.00    +0.110 C 
ATOM     24  H   UNL     1      -3.027  -0.059  -3.411  0.00  0.00    +0.173 HD
ENDBRANCH  17  20
ENDBRANCH   1  14
BRANCH   1  26
ATOM     25  C   UNL     1      -0.019   1.526   0.010  0.00  0.00    +0.009 C 
ATOM     26  C   UNL     1       0.002  -0.004   0.002  0.00  0.00    +0.008 C 
ATOM     27  C   UNL     1       0.742  -0.511   1.242  0.00  0.00    +0.009 C 
ENDBRANCH   1  26
TORSDOF 5
