REMARK  Name = ZINC59020665
REMARK  7 active torsions:
REMARK  status: ('A' for Active; 'I' for Inactive)
REMARK    1  A    between atoms: C_1  and  C_2
REMARK    2  A    between atoms: C_2  and  C_22
REMARK    3  A    between atoms: N_3  and  N_4
REMARK    4  A    between atoms: C_7  and  S_10
REMARK    5  A    between atoms: S_10  and  C_11
REMARK    6  A    between atoms: C_11  and  C_12
REMARK    7  A    between atoms: N_14  and  C_15
REMARK                            x       y       z     vdW  Elec       q    Type
REMARK                         _______ _______ _______ _____ _____    ______ ____
ROOT
ATOM      1  N   UNL     1      -1.064  -1.490   1.392  0.00  0.00    -0.205 N 
ATOM      2  C   UNL     1      -1.639  -1.725   2.628  0.00  0.00    +0.232 A 
ATOM      3  N   UNL     1      -1.517  -0.964   3.695  0.00  0.00    -0.186 NA
ATOM      4  C   UNL     1      -2.207  -1.497   4.709  0.00  0.00    +0.211 A 
ATOM      5  N   UNL     1      -2.777  -2.606   4.300  0.00  0.00    -0.144 NA
ATOM      6  N   UNL     1      -2.427  -2.773   2.951  0.00  0.00    -0.245 N 
ATOM      7  H   UNL     1      -1.216  -2.110   0.661  0.00  0.00    +0.177 HD
ATOM      8  H   UNL     1      -2.697  -3.498   2.366  0.00  0.00    +0.192 HD
ENDROOT
BRANCH   1  11
ATOM      9  C   UNL     1       1.186   1.036  -0.172  0.00  0.00    +0.068 C 
ATOM     10  C   UNL     1       0.190  -0.080   0.011  0.00  0.00    +0.063 C 
ATOM     11  N   UNL     1      -0.264  -0.357   1.196  0.00  0.00    -0.184 NA
BRANCH  10  12
ATOM     12  C   UNL     1      -0.269  -0.858  -1.154  0.00  0.00    -0.002 A 
ATOM     13  C   UNL     1      -1.585  -1.323  -1.213  0.00  0.00    +0.011 A 
ATOM     14  C   UNL     1      -2.009  -2.050  -2.306  0.00  0.00    +0.016 A 
ATOM     15  C   UNL     1      -1.133  -2.318  -3.344  0.00  0.00    +0.018 A 
ATOM     16  C   UNL     1       0.173  -1.859  -3.293  0.00  0.00    +0.016 A 
ATOM     17  C   UNL     1       0.608  -1.127  -2.208  0.00  0.00    +0.011 A 
ATOM     18 BR   UNL     1      -1.722  -3.315  -4.839  0.00  0.00    -0.050 Br
ENDBRANCH  10  12
ENDBRANCH   1  11
BRANCH   4  19
ATOM     19  S   UNL     1      -2.331  -0.821   6.331  0.00  0.00    -0.075 S 
BRANCH  19  20
ATOM     20  C   UNL     1      -3.389  -1.997   7.218  0.00  0.00    +0.173 C 
BRANCH  20  21
ATOM     21  C   UNL     1      -3.578  -1.531   8.639  0.00  0.00    +0.227 C 
ATOM     22  O   UNL     1      -3.050  -0.506   9.016  0.00  0.00    -0.275 OA
ATOM     23  N   UNL     1      -4.333  -2.253   9.490  0.00  0.00    -0.285 N 
ATOM     24  H   UNL     1      -4.806  -3.038   9.172  0.00  0.00    +0.155 HD
BRANCH  23  25
ATOM     25  C   UNL     1      -4.435  -1.870  10.832  0.00  0.00    +0.033 A 
ATOM     26  C   UNL     1      -4.450  -2.834  11.832  0.00  0.00    +0.025 A 
ATOM     27  C   UNL     1      -4.551  -2.453  13.155  0.00  0.00    +0.022 A 
ATOM     28  C   UNL     1      -4.637  -1.113  13.486  0.00  0.00    +0.041 A 
ATOM     29  C   UNL     1      -4.623  -0.150  12.492  0.00  0.00    +0.022 A 
ATOM     30  C   UNL     1      -4.516  -0.525  11.168  0.00  0.00    +0.025 A 
ATOM     31 CL   UNL     1      -4.764  -0.637  15.151  0.00  0.00    -0.084 Cl
ENDBRANCH  23  25
ENDBRANCH  20  21
ENDBRANCH  19  20
ENDBRANCH   4  19
TORSDOF 6
