REMARK  Name = ZINC30983762
REMARK  9 active torsions:
REMARK  status: ('A' for Active; 'I' for Inactive)
REMARK    1  A    between atoms: C_4  and  C_7
REMARK    2  A    between atoms: C_7  and  S_8
REMARK    3  A    between atoms: S_8  and  C_9
REMARK    4  A    between atoms: C_9  and  C_10
REMARK    5  A    between atoms: C_10  and  N_11
REMARK    6  A    between atoms: C_12  and  C_14
REMARK    7  A    between atoms: N_17  and  C_20
REMARK    8  A    between atoms: C_20  and  C_21
REMARK    9  A    between atoms: C_23  and  C_26
REMARK                            x       y       z     vdW  Elec       q    Type
REMARK                         _______ _______ _______ _____ _____    ______ ____
ROOT
ATOM      1  C   UNL     1      -3.403  -1.407  -3.622  0.00  0.00    +0.071 C 
ATOM      2  C   UNL     1      -2.899  -2.644  -2.872  0.00  0.00    -0.006 C 
ATOM      3  C   UNL     1      -2.611  -2.270  -1.416  0.00  0.00    -0.077 C 
ATOM      4  N   UNL     1      -1.601  -1.204  -1.374  0.00  0.00    +0.386 N 
ATOM      5  C   UNL     1      -2.082   0.010  -2.047  0.00  0.00    -0.077 C 
ATOM      6  C   UNL     1      -2.354  -0.296  -3.521  0.00  0.00    -0.006 C 
ATOM      7  H   UNL     1      -0.715  -1.561  -1.919  0.00  0.00    -0.081 HD
ENDROOT
BRANCH   1   9
ATOM      8  N   UNL     1      -4.079  -0.814  -5.926  0.00  0.00    -0.314 N 
ATOM      9  C   UNL     1      -3.632  -1.754  -5.070  0.00  0.00    +0.216 C 
ATOM     10  O   UNL     1      -3.414  -2.880  -5.465  0.00  0.00    -0.276 OA
ATOM     11  H   UNL     1      -4.277   0.206  -5.567  0.00  0.00    +0.149 HD
BRANCH   8  12
ATOM     12  C   UNL     1      -4.301  -1.152  -7.334  0.00  0.00    +0.115 C 
BRANCH  12  13
ATOM     13  C   UNL     1      -4.805   0.084  -8.082  0.00  0.00    +0.088 C 
BRANCH  13  14
ATOM     14  S   UNL     1      -5.080  -0.334  -9.825  0.00  0.00    -0.155 S 
BRANCH  14  15
ATOM     15  C   UNL     1      -5.667   1.217 -10.561  0.00  0.00    +0.104 C 
BRANCH  15  19
ATOM     16  C   UNL     1      -6.432   0.619 -14.721  0.00  0.00    +0.000 A 
ATOM     17  C   UNL     1      -7.438   0.408 -13.796  0.00  0.00    +0.000 A 
ATOM     18  C   UNL     1      -7.190   0.602 -12.450  0.00  0.00    +0.004 A 
ATOM     19  C   UNL     1      -5.937   1.006 -12.029  0.00  0.00    -0.038 A 
ATOM     20  C   UNL     1      -4.933   1.222 -12.954  0.00  0.00    +0.004 A 
ATOM     21  C   UNL     1      -5.179   1.024 -14.300  0.00  0.00    +0.000 A 
ENDBRANCH  15  19
ENDBRANCH  14  15
ENDBRANCH  13  14
ENDBRANCH  12  13
ENDBRANCH   8  12
ENDBRANCH   1   9
BRANCH   4  22
ATOM     22  C   UNL     1      -1.198  -0.915   0.009  0.00  0.00    +0.022 C 
BRANCH  22  23
ATOM     23  C   UNL     1       0.002  -0.004   0.002  0.00  0.00    +0.211 A 
ATOM     24  N   UNL     1      -0.016   1.306   0.009  0.00  0.00    -0.193 NA
ATOM     25  C   UNL     1       1.282   1.686  -0.001  0.00  0.00    +0.203 A 
ATOM     26  N   UNL     1       2.004   0.596  -0.014  0.00  0.00    -0.056 NA
ATOM     27  O   UNL     1       1.285  -0.380  -0.012  0.00  0.00    -0.340 OA
BRANCH  25  28
ATOM     28  C   UNL     1       1.791   3.080   0.001  0.00  0.00    +0.041 A 
ATOM     29  C   UNL     1       0.898   4.151   0.009  0.00  0.00    +0.013 A 
ATOM     30  C   UNL     1       1.377   5.445   0.017  0.00  0.00    +0.001 A 
ATOM     31  C   UNL     1       2.740   5.682   0.005  0.00  0.00    +0.001 A 
ATOM     32  C   UNL     1       3.631   4.624  -0.009  0.00  0.00    +0.021 A 
ATOM     33  C   UNL     1       3.163   3.324  -0.011  0.00  0.00    +0.052 A 
ATOM     34 CL   UNL     1       4.283   1.997  -0.029  0.00  0.00    -0.083 Cl
ENDBRANCH  25  28
ENDBRANCH  22  23
ENDBRANCH   4  22
TORSDOF 9
