REMARK  Name = ZINC34912310
REMARK  4 active torsions:
REMARK  status: ('A' for Active; 'I' for Inactive)
REMARK    1  A    between atoms: C_10  and  N_12
REMARK    2  A    between atoms: C_13  and  C_15
REMARK    3  A    between atoms: N_18  and  C_21
REMARK    4  A    between atoms: C_27  and  C_29
REMARK                            x       y       z     vdW  Elec       q    Type
REMARK                         _______ _______ _______ _____ _____    ______ ____
ROOT
ATOM      1  C   UNL     1       5.870   2.617   2.370  0.00  0.00    +0.071 C 
ATOM      2  C   UNL     1       6.923   1.535   2.629  0.00  0.00    -0.006 C 
ATOM      3  C   UNL     1       8.096   2.146   3.398  0.00  0.00    -0.078 C 
ATOM      4  N   UNL     1       8.691   3.231   2.609  0.00  0.00    +0.382 N 
ATOM      5  C   UNL     1       7.709   4.305   2.418  0.00  0.00    -0.078 C 
ATOM      6  C   UNL     1       6.521   3.777   1.611  0.00  0.00    -0.006 C 
ATOM      7  H   UNL     1       8.977   2.874   1.710  0.00  0.00    -0.081 HD
ENDROOT
BRANCH   4   8
ATOM      8  C   UNL     1       9.864   3.762   3.317  0.00  0.00    -0.066 C 
ATOM      9  C   UNL     1      10.892   2.645   3.510  0.00  0.00    +0.004 C 
ATOM     10  C   UNL     1      12.099   3.193   4.278  0.00  0.00    +0.106 C 
ATOM     11  N   UNL     1      12.615   4.372   3.569  0.00  0.00    -0.298 N 
ATOM     12  C   UNL     1      11.688   5.467   3.252  0.00  0.00    +0.106 C 
ATOM     13  C   UNL     1      10.486   4.893   2.495  0.00  0.00    +0.004 C 
ATOM     14  C   UNL     1      13.913   4.447   3.216  0.00  0.00    +0.248 C 
ATOM     15  O   UNL     1      14.686   3.570   3.551  0.00  0.00    -0.270 OA
BRANCH  14  16
ATOM     16  C   UNL     1      14.398   5.595   2.423  0.00  0.00    +0.055 A 
ATOM     17  C   UNL     1      14.180   6.900   2.872  0.00  0.00    +0.016 A 
ATOM     18  C   UNL     1      14.634   7.967   2.127  0.00  0.00    +0.021 A 
ATOM     19  C   UNL     1      15.306   7.749   0.935  0.00  0.00    +0.042 A 
ATOM     20  C   UNL     1      15.525   6.459   0.484  0.00  0.00    +0.040 A 
ATOM     21  C   UNL     1      15.081   5.381   1.223  0.00  0.00    +0.054 A 
ATOM     22 CL   UNL     1      15.364   3.763   0.660  0.00  0.00    -0.083 Cl
ATOM     23 CL   UNL     1      15.874   9.099   0.004  0.00  0.00    -0.083 Cl
ENDBRANCH  14  16
ENDBRANCH   4   8
BRANCH   1  25
ATOM     24  N   UNL     1       4.028   1.005   2.016  0.00  0.00    -0.308 N 
ATOM     25  C   UNL     1       4.748   2.042   1.545  0.00  0.00    +0.216 C 
ATOM     26  O   UNL     1       4.493   2.513   0.456  0.00  0.00    -0.276 OA
ATOM     27  H   UNL     1       4.232   0.629   2.887  0.00  0.00    +0.149 HD
BRANCH  24  37
ATOM     28  C   UNL     1      -0.555   2.821   1.883  0.00  0.00    +0.000 A 
ATOM     29  C   UNL     1       0.686   3.413   1.736  0.00  0.00    +0.000 A 
ATOM     30  C   UNL     1       1.798   2.626   1.523  0.00  0.00    +0.006 A 
ATOM     31  C   UNL     1       1.683   1.243   1.457  0.00  0.00    -0.024 A 
ATOM     32  C   UNL     1       0.448   0.654   1.609  0.00  0.00    -0.042 A 
ATOM     33  C   UNL     1      -0.672   1.448   1.820  0.00  0.00    +0.004 A 
ATOM     34  C   UNL     1       0.251  -0.839   1.565  0.00  0.00    +0.035 C 
ATOM     35  C   UNL     1       1.452  -1.520   0.913  0.00  0.00    +0.007 C 
ATOM     36  C   UNL     1       2.727  -1.017   1.600  0.00  0.00    +0.027 C 
ATOM     37  C   UNL     1       2.937   0.446   1.214  0.00  0.00    +0.103 C 
ENDBRANCH  24  37
ENDBRANCH   1  25
TORSDOF 4
