REMARK  Name = ZINC08768135
REMARK  7 active torsions:
REMARK  status: ('A' for Active; 'I' for Inactive)
REMARK    1  A    between atoms: C_1  and  C_2
REMARK    2  A    between atoms: C_2  and  C_38
REMARK    3  A    between atoms: C_6  and  C_14
REMARK    4  A    between atoms: C_8  and  C_12
REMARK    5  A    between atoms: C_9  and  N_11
REMARK    6  A    between atoms: C_16  and  C_29
REMARK    7  A    between atoms: N_18  and  C_19
REMARK                            x       y       z     vdW  Elec       q    Type
REMARK                         _______ _______ _______ _____ _____    ______ ____
ROOT
ATOM      1  C   UNL     1       1.201  -2.743  -2.264  0.00  0.00    +0.053 A 
ATOM      2  C   UNL     1       1.150  -4.026  -1.844  0.00  0.00    +0.054 A 
ATOM      3  C   UNL     1       0.526  -4.041  -0.581  0.00  0.00    +0.093 A 
ATOM      4  N   UNL     1       0.223  -2.800  -0.264  0.00  0.00    -0.170 NA
ATOM      5  N   UNL     1       0.635  -1.969  -1.314  0.00  0.00    -0.261 N 
ENDROOT
BRANCH   1  11
ATOM      6  C   UNL     1       1.314  -3.011  -7.816  0.00  0.00    +0.012 C 
ATOM      7  C   UNL     1       0.621  -4.226  -7.197  0.00  0.00    -0.021 C 
ATOM      8  C   UNL     1       1.613  -4.992  -6.320  0.00  0.00    +0.081 C 
ATOM      9  C   UNL     1       2.100  -4.100  -5.203  0.00  0.00    +0.115 C 
ATOM     10  C   UNL     1       1.303  -3.144  -4.691  0.00  0.00    +0.047 C 
ATOM     11  C   UNL     1       1.787  -2.261  -3.567  0.00  0.00    +0.119 C 
ATOM     12  C   UNL     1       3.287  -2.305  -3.485  0.00  0.00    +0.100 C 
ATOM     13  C   UNL     1       3.976  -3.313  -4.074  0.00  0.00    +0.198 C 
ATOM     14  O   UNL     1       3.347  -4.296  -4.736  0.00  0.00    -0.445 OA
ATOM     15  C   UNL     1       0.000  -2.935  -5.184  0.00  0.00    +0.164 C 
ATOM     16  O   UNL     1      -0.695  -2.073  -4.685  0.00  0.00    -0.292 OA
ATOM     17  C   UNL     1      -0.545  -3.760  -6.318  0.00  0.00    +0.086 C 
ATOM     18  C   UNL     1       0.100  -5.142  -8.306  0.00  0.00    +0.012 C 
BRANCH  13  19
ATOM     19  N   UNL     1       5.346  -3.329  -3.991  0.00  0.00    -0.328 N 
ATOM     20  H   UNL     1       5.849  -4.045  -4.408  0.00  0.00    +0.145 HD
ATOM     21  H   UNL     1       5.811  -2.623  -3.515  0.00  0.00    +0.145 HD
ENDBRANCH  13  19
BRANCH  12  22
ATOM     22  C   UNL     1       3.993  -1.276  -2.783  0.00  0.00    +0.101 C 
ATOM     23  N   UNL     1       4.553  -0.460  -2.225  0.00  0.00    -0.191 NA
ENDBRANCH  12  22
ENDBRANCH   1  11
BRANCH   5  24
ATOM     24  C   UNL     1       0.484  -0.513  -1.368  0.00  0.00    +0.065 C 
ATOM     25  C   UNL     1      -0.483  -0.142  -2.494  0.00  0.00    +0.033 C 
ATOM     26  C   UNL     1      -0.640   1.379  -2.551  0.00  0.00    -0.008 C 
ATOM     27  C   UNL     1      -1.194   1.884  -1.217  0.00  0.00    +0.007 C 
ATOM     28  C   UNL     1      -0.227   1.513  -0.090  0.00  0.00    -0.008 C 
ATOM     29  C   UNL     1      -0.069  -0.008  -0.034  0.00  0.00    +0.033 C 
ATOM     30  C   UNL     1       1.135   2.158  -0.355  0.00  0.00    +0.007 C 
ATOM     31  C   UNL     1       1.688   1.652  -1.688  0.00  0.00    -0.008 C 
ATOM     32  C   UNL     1       0.722   2.023  -2.815  0.00  0.00    +0.007 C 
ATOM     33  C   UNL     1       1.846   0.132  -1.632  0.00  0.00    +0.033 C 
ENDBRANCH   5  24
BRANCH   3  34
ATOM     34  C   UNL     1       0.263  -5.243   0.248  0.00  0.00    +0.002 A 
ATOM     35  C   UNL     1       0.638  -6.504  -0.209  0.00  0.00    +0.010 A 
ATOM     36  C   UNL     1       0.395  -7.619   0.568  0.00  0.00    +0.001 A 
ATOM     37  C   UNL     1      -0.229  -7.486   1.795  0.00  0.00    +0.000 A 
ATOM     38  C   UNL     1      -0.609  -6.237   2.252  0.00  0.00    +0.001 A 
ATOM     39  C   UNL     1      -0.366  -5.115   1.485  0.00  0.00    +0.010 A 
ENDBRANCH   3  34
TORSDOF 5
