REMARK  Name = ZINC28159534
REMARK  5 active torsions:
REMARK  status: ('A' for Active; 'I' for Inactive)
REMARK    1  A    between atoms: C_4  and  N_7
REMARK    2  A    between atoms: C_8  and  C_10
REMARK    3  A    between atoms: C_10  and  C_11
REMARK    4  A    between atoms: C_19  and  C_33
REMARK    5  A    between atoms: C_22  and  C_24
REMARK                            x       y       z     vdW  Elec       q    Type
REMARK                         _______ _______ _______ _____ _____    ______ ____
ROOT
ATOM      1  C   UNL     1       0.500  -2.676  -0.015  0.00  0.00    +0.150 C 
ATOM      2  C   UNL     1      -0.922  -2.130   0.004  0.00  0.00    +0.252 C 
ATOM      3  O   UNL     1      -1.898  -2.855   0.016  0.00  0.00    -0.272 OA
ATOM      4  N   UNL     1      -1.020  -0.828   0.008  0.00  0.00    -0.157 NA
ATOM      5  C   UNL     1       0.015   0.001  -0.004  0.00  0.00    +0.170 C 
ATOM      6  S   UNL     1       1.431  -1.091  -0.033  0.00  0.00    -0.078 S 
ATOM      7  N   UNL     1       0.004   1.365  -0.002  0.00  0.00    -0.195 N 
ATOM      8  C   UNL     1      -1.201   2.211   0.010  0.00  0.00    +0.136 C 
ATOM      9  C   UNL     1      -0.636   3.645   0.011  0.00  0.00    +0.087 C 
ATOM     10  C   UNL     1       0.863   3.446  -0.010  0.00  0.00    +0.069 C 
ATOM     11  N   UNL     1       1.129   2.186  -0.016  0.00  0.00    -0.182 NA
ENDROOT
BRANCH  10  12
ATOM     12  C   UNL     1       1.864   4.528  -0.022  0.00  0.00    +0.002 A 
ATOM     13  C   UNL     1       1.453   5.863  -0.019  0.00  0.00    +0.013 A 
ATOM     14  C   UNL     1       2.391   6.873  -0.026  0.00  0.00    +0.050 A 
ATOM     15  C   UNL     1       3.745   6.569  -0.046  0.00  0.00    +0.166 A 
ATOM     16  C   UNL     1       4.162   5.238  -0.054  0.00  0.00    +0.167 A 
ATOM     17  C   UNL     1       3.227   4.221  -0.042  0.00  0.00    +0.059 A 
ATOM     18  O   UNL     1       5.527   5.210  -0.074  0.00  0.00    -0.453 OA
ATOM     19  C   UNL     1       5.945   6.526   0.336  0.00  0.00    +0.466 C 
ATOM     20  O   UNL     1       4.849   7.371  -0.060  0.00  0.00    -0.453 OA
ENDBRANCH  10  12
BRANCH   8  21
ATOM     21  C   UNL     1      -2.011   1.962   1.256  0.00  0.00    -0.025 A 
ATOM     22  C   UNL     1      -1.373   1.745   2.463  0.00  0.00    +0.008 A 
ATOM     23  C   UNL     1      -2.115   1.522   3.608  0.00  0.00    +0.038 A 
ATOM     24  C   UNL     1      -3.498   1.504   3.543  0.00  0.00    +0.123 A 
ATOM     25  C   UNL     1      -4.136   1.716   2.332  0.00  0.00    +0.038 A 
ATOM     26  C   UNL     1      -3.392   1.944   1.190  0.00  0.00    +0.008 A 
ATOM     27  F   UNL     1      -4.224   1.280   4.660  0.00  0.00    -0.205 F 
ENDBRANCH   8  21
BRANCH   1  28
ATOM     28  C   UNL     1       0.801  -3.494   1.242  0.00  0.00    +0.120 C 
BRANCH  28  30
ATOM     29  N   UNL     1       2.651  -4.882   2.119  0.00  0.00    -0.285 N 
ATOM     30  C   UNL     1       2.170  -4.114   1.123  0.00  0.00    +0.219 C 
ATOM     31  O   UNL     1       2.838  -3.920   0.129  0.00  0.00    -0.275 OA
ATOM     32  H   UNL     1       2.078  -4.996   3.052  0.00  0.00    +0.155 HD
BRANCH  29  36
ATOM     33  C   UNL     1       6.307  -6.829   1.669  0.00  0.00    +0.000 A 
ATOM     34  C   UNL     1       6.118  -5.578   1.111  0.00  0.00    +0.002 A 
ATOM     35  C   UNL     1       4.907  -4.930   1.258  0.00  0.00    +0.023 A 
ATOM     36  C   UNL     1       3.879  -5.536   1.968  0.00  0.00    +0.033 A 
ATOM     37  C   UNL     1       4.074  -6.790   2.533  0.00  0.00    +0.023 A 
ATOM     38  C   UNL     1       5.285  -7.435   2.377  0.00  0.00    +0.002 A 
ENDBRANCH  29  36
ENDBRANCH  28  30
ENDBRANCH   1  28
TORSDOF 5
