REMARK  Name = ZINC15222851
REMARK  6 active torsions:
REMARK  status: ('A' for Active; 'I' for Inactive)
REMARK    1  A    between atoms: C_1  and  C_2
REMARK    2  A    between atoms: C_2  and  C_4
REMARK    3  A    between atoms: C_2  and  S_10
REMARK    4  A    between atoms: S_10  and  C_11
REMARK    5  A    between atoms: C_14  and  C_24
REMARK    6  A    between atoms: N_15  and  C_16
REMARK                            x       y       z     vdW  Elec       q    Type
REMARK                         _______ _______ _______ _____ _____    ______ ____
ROOT
ATOM      1  C   UNL     1      -5.122   0.729   0.758  0.00  0.00    +0.197 A 
ATOM      2  N   UNL     1      -5.056  -0.540   0.422  0.00  0.00    -0.122 NA
ATOM      3  N   UNL     1      -6.229  -1.064   0.444  0.00  0.00    -0.128 NA
ATOM      4  C   UNL     1      -7.119  -0.161   0.786  0.00  0.00    +0.171 A 
ATOM      5  N   UNL     1      -6.437   1.017   0.999  0.00  0.00    -0.270 N 
ENDROOT
BRANCH   5   6
ATOM      6  C   UNL     1      -6.979   2.253   1.381  0.00  0.00    +0.052 A 
ATOM      7  C   UNL     1      -6.950   3.327   0.502  0.00  0.00    +0.029 A 
ATOM      8  C   UNL     1      -7.483   4.543   0.880  0.00  0.00    +0.042 A 
ATOM      9  C   UNL     1      -8.047   4.693   2.136  0.00  0.00    +0.142 A 
ATOM     10  C   UNL     1      -8.077   3.623   3.016  0.00  0.00    +0.078 A 
ATOM     11  C   UNL     1      -7.549   2.402   2.638  0.00  0.00    +0.049 A 
ATOM     12 CL   UNL     1      -8.784   3.812   4.590  0.00  0.00    -0.081 Cl
ATOM     13  F   UNL     1      -8.568   5.884   2.504  0.00  0.00    -0.204 F 
ENDBRANCH   5   6
BRANCH   4  14
ATOM     14  C   UNL     1      -8.576  -0.369   0.920  0.00  0.00    +0.038 A 
ATOM     15  C   UNL     1      -9.469   0.535   0.343  0.00  0.00    +0.014 A 
ATOM     16  C   UNL     1     -10.828   0.332   0.467  0.00  0.00    +0.021 A 
ATOM     17  C   UNL     1     -11.307  -0.760   1.171  0.00  0.00    +0.042 A 
ATOM     18  C   UNL     1     -10.427  -1.658   1.751  0.00  0.00    +0.040 A 
ATOM     19  C   UNL     1      -9.065  -1.469   1.629  0.00  0.00    +0.053 A 
ATOM     20 CL   UNL     1      -7.962  -2.596   2.356  0.00  0.00    -0.083 Cl
ATOM     21 CL   UNL     1     -13.019  -1.003   1.328  0.00  0.00    -0.083 Cl
ENDBRANCH   4  14
BRANCH   1  22
ATOM     22  S   UNL     1      -3.768   1.852   0.869  0.00  0.00    -0.073 S 
BRANCH  22  24
ATOM     23  C   UNL     1      -2.578   0.297  -1.036  0.00  0.00    +0.029 C 
ATOM     24  C   UNL     1      -2.406   0.749   0.416  0.00  0.00    +0.137 C 
BRANCH  24  25
ATOM     25  C   UNL     1      -1.097   1.481   0.563  0.00  0.00    +0.233 C 
ATOM     26  O   UNL     1      -1.079   2.693   0.577  0.00  0.00    -0.274 OA
ATOM     27  N   UNL     1       0.053   0.788   0.678  0.00  0.00    -0.239 N 
ATOM     28  C   UNL     1       1.224   1.442   0.804  0.00  0.00    +0.303 C 
ATOM     29  O   UNL     1       1.243   2.657   0.818  0.00  0.00    -0.253 OA
ATOM     30  N   UNL     1       2.375   0.749   0.914  0.00  0.00    -0.313 N 
ATOM     31  H   UNL     1       0.038  -0.182   0.667  0.00  0.00    +0.159 HD
ATOM     32  H   UNL     1       2.360  -0.221   0.902  0.00  0.00    +0.146 HD
ATOM     33  H   UNL     1       3.218   1.220   1.004  0.00  0.00    +0.146 HD
ENDBRANCH  24  25
ENDBRANCH  22  24
ENDBRANCH   1  22
TORSDOF 5
