REMARK  Name = ZINC33889827
REMARK  6 active torsions:
REMARK  status: ('A' for Active; 'I' for Inactive)
REMARK    1  A    between atoms: C_1  and  C_2
REMARK    2  A    between atoms: C_15  and  O_34
REMARK    3  A    between atoms: C_18  and  C_31
REMARK    4  A    between atoms: C_23  and  C_25
REMARK    5  A    between atoms: C_25  and  C_30
REMARK    6  A    between atoms: N_32  and  O_33
REMARK                            x       y       z     vdW  Elec       q    Type
REMARK                         _______ _______ _______ _____ _____    ______ ____
ROOT
ATOM      1  C   UNL     1      -0.348   1.908  -0.024  0.00  0.00    +0.012 C 
ATOM      2  C   UNL     1      -0.210   0.376  -0.051  0.00  0.00    -0.023 C 
ATOM      3  C   UNL     1       0.521  -0.057  -1.317  0.00  0.00    +0.012 C 
ATOM      4  C   UNL     1       1.911   0.574  -1.378  0.00  0.00    +0.065 C 
ATOM      5  C   UNL     1       2.728   0.172  -0.152  0.00  0.00    +0.170 C 
ATOM      6  C   UNL     1       2.005   0.553   1.137  0.00  0.00    +0.069 C 
ATOM      7  C   UNL     1       0.594  -0.023   1.190  0.00  0.00    +0.000 C 
ATOM      8  C   UNL     1       0.652  -1.532   1.398  0.00  0.00    +0.004 C 
ATOM      9  C   UNL     1      -0.774  -2.099   1.483  0.00  0.00    +0.004 C 
ATOM     10  C   UNL     1      -1.440  -1.778   0.152  0.00  0.00    -0.001 C 
ATOM     11  C   UNL     1      -1.597  -0.257   0.011  0.00  0.00    +0.027 C 
ATOM     12  C   UNL     1      -2.486   0.002  -1.195  0.00  0.00    +0.119 C 
ATOM     13  C   UNL     1      -3.939  -0.412  -0.873  0.00  0.00    +0.045 C 
ATOM     14  C   UNL     1      -3.967  -1.595   0.053  0.00  0.00    +0.022 C 
ATOM     15  C   UNL     1      -2.727  -2.493  -0.115  0.00  0.00    +0.005 C 
ATOM     16  C   UNL     1      -3.065  -3.682   0.797  0.00  0.00    +0.005 C 
ATOM     17  C   UNL     1      -4.592  -3.873   0.598  0.00  0.00    +0.010 C 
ATOM     18  C   UNL     1      -5.100  -2.616  -0.156  0.00  0.00    +0.060 C 
ATOM     19  O   UNL     1       2.975  -1.241  -0.175  0.00  0.00    -0.346 OA
ATOM     20  C   UNL     1       4.324  -1.395  -0.673  0.00  0.00    +0.191 C 
ATOM     21  C   UNL     1       5.020  -0.140  -0.089  0.00  0.00    +0.191 C 
ATOM     22  O   UNL     1       3.990   0.864  -0.191  0.00  0.00    -0.346 OA
ENDROOT
BRANCH  18  23
ATOM     23  C   UNL     1      -5.316  -2.943  -1.635  0.00  0.00    +0.171 C 
ATOM     24  O   UNL     1      -4.142  -3.581  -2.165  0.00  0.00    -0.346 OA
ATOM     25  C   UNL     1      -4.036  -3.092  -3.524  0.00  0.00    +0.191 C 
ATOM     26  C   UNL     1      -4.526  -1.630  -3.371  0.00  0.00    +0.191 C 
ATOM     27  O   UNL     1      -5.555  -1.734  -2.367  0.00  0.00    -0.346 OA
ATOM     28  C   UNL     1      -6.517  -3.880  -1.784  0.00  0.00    +0.074 C 
ENDBRANCH  18  23
BRANCH  14  29
ATOM     29  C   UNL     1      -4.109  -1.119   1.486  0.00  0.00    +0.133 C 
ATOM     30  N   UNL     1      -4.170   0.133   1.742  0.00  0.00    -0.099 NA
BRANCH  30  31
ATOM     31  O   UNL     1      -4.303   0.577   3.079  0.00  0.00    -0.409 OA
ATOM     32  H   UNL     1      -4.341   1.539   3.173  0.00  0.00    +0.328 HD
ENDBRANCH  30  31
ENDBRANCH  14  29
BRANCH  12  33
ATOM     33  O   UNL     1      -2.494   1.372  -1.593  0.00  0.00    -0.391 OA
ATOM     34  H   UNL     1      -3.055   1.556  -2.359  0.00  0.00    +0.210 HD
ENDBRANCH  12  33
TORSDOF 4
