REMARK  Name = ZINC20985112
REMARK  8 active torsions:
REMARK  status: ('A' for Active; 'I' for Inactive)
REMARK    1  A    between atoms: C_1  and  C_2
REMARK    2  A    between atoms: C_7  and  C_8
REMARK    3  A    between atoms: C_8  and  N_9
REMARK    4  A    between atoms: C_12  and  C_15
REMARK    5  A    between atoms: C_15  and  N_16
REMARK    6  A    between atoms: N_16  and  S_17
REMARK    7  A    between atoms: S_17  and  C_20
REMARK    8  A    between atoms: C_23  and  C_25
REMARK                            x       y       z     vdW  Elec       q    Type
REMARK                         _______ _______ _______ _____ _____    ______ ____
ROOT
ATOM      1  N   UNL     1       2.898  -1.543  -5.882  0.00  0.00    -0.189 NA
ATOM      2  H   UNL     1       2.393  -2.322  -5.291  0.00  0.00    +0.148 HD
ENDROOT
BRANCH   1   3
ATOM      3  S   UNL     1       2.793  -1.586  -7.534  0.00  0.00    +0.065 S 
ATOM      4  O   UNL     1       1.839  -2.589  -7.855  0.00  0.00    -0.153 OA
ATOM      5  O   UNL     1       2.657  -0.239  -7.967  0.00  0.00    -0.153 OA
BRANCH   3   6
ATOM      6  C   UNL     1       4.346  -2.155  -8.141  0.00  0.00    +0.143 A 
ATOM      7  C   UNL     1       4.754  -3.428  -8.382  0.00  0.00    +0.037 A 
ATOM      8  C   UNL     1       6.026  -3.646  -8.864  0.00  0.00    +0.020 A 
ATOM      9  C   UNL     1       6.843  -2.567  -9.075  0.00  0.00    +0.041 A 
ATOM     10  S   UNL     1       5.792  -1.208  -8.589  0.00  0.00    -0.067 S 
BRANCH   9  11
ATOM     11  C   UNL     1       8.233  -2.536  -9.574  0.00  0.00    +0.098 A 
ATOM     12  C   UNL     1       8.904  -1.297  -9.720  0.00  0.00    +0.036 A 
ATOM     13  C   UNL     1      10.185  -1.308 -10.184  0.00  0.00    +0.073 A 
ATOM     14  C   UNL     1      10.768  -2.558 -10.491  0.00  0.00    +0.265 A 
ATOM     15  O   UNL     1      11.913  -2.616 -10.909  0.00  0.00    -0.266 OA
ATOM     16  N   UNL     1      10.051  -3.684 -10.320  0.00  0.00    -0.243 N 
ATOM     17  H   UNL     1      10.495  -4.661 -10.561  0.00  0.00    +0.192 HD
ATOM     18  N   UNL     1       8.846  -3.659  -9.877  0.00  0.00    -0.170 NA
ENDBRANCH   9  11
ENDBRANCH   3   6
ENDBRANCH   1   3
BRANCH   1  19
ATOM     19  C   UNL     1       3.828  -0.617  -5.231  0.00  0.00    +0.109 C 
BRANCH  19  23
ATOM     20  N   UNL     1       2.805   1.155  -1.478  0.00  0.00    +0.382 N 
ATOM     21  C   UNL     1       1.778   0.316  -2.109  0.00  0.00    -0.078 C 
ATOM     22  C   UNL     1       2.098   0.147  -3.596  0.00  0.00    -0.014 C 
ATOM     23  C   UNL     1       3.476  -0.501  -3.746  0.00  0.00    +0.001 C 
ATOM     24  C   UNL     1       4.520   0.367  -3.039  0.00  0.00    -0.014 C 
ATOM     25  C   UNL     1       4.130   0.530  -1.568  0.00  0.00    -0.078 C 
ATOM     26  H   UNL     1       2.845   2.107  -2.029  0.00  0.00    -0.081 HD
BRANCH  20  27
ATOM     27  C   UNL     1       2.457   1.453  -0.082  0.00  0.00    -0.043 C 
BRANCH  27  34
ATOM     28  C   UNL     1       2.897   4.233  -0.732  0.00  0.00    +0.044 C 
ATOM     29  C   UNL     1       1.517   3.756  -0.359  0.00  0.00    -0.049 A 
ATOM     30  C   UNL     1       0.463   4.650  -0.321  0.00  0.00    +0.003 A 
ATOM     31  C   UNL     1      -0.803   4.211   0.017  0.00  0.00    +0.000 A 
ATOM     32  C   UNL     1      -1.014   2.881   0.328  0.00  0.00    +0.000 A 
ATOM     33  C   UNL     1       0.041   1.988   0.296  0.00  0.00    +0.002 A 
ATOM     34  C   UNL     1       1.307   2.426  -0.048  0.00  0.00    -0.061 A 
ENDBRANCH  27  34
ENDBRANCH  20  27
ENDBRANCH  19  23
ENDBRANCH   1  19
TORSDOF 7
