REMARK  Name = ZINC13038919
REMARK  5 active torsions:
REMARK  status: ('A' for Active; 'I' for Inactive)
REMARK    1  A    between atoms: C_3  and  S_8
REMARK    2  A    between atoms: S_8  and  N_11
REMARK    3  A    between atoms: N_11  and  C_12
REMARK    4  A    between atoms: C_15  and  S_18
REMARK    5  A    between atoms: S_18  and  N_21
REMARK                            x       y       z     vdW  Elec       q    Type
REMARK                         _______ _______ _______ _____ _____    ______ ____
ROOT
ATOM      1  C   UNL     1       4.641   1.283   2.296  0.00  0.00    +0.048 A 
ATOM      2  C   UNL     1       3.967   0.088   2.078  0.00  0.00    +0.026 A 
ATOM      3  C   UNL     1       4.323  -1.043   2.786  0.00  0.00    +0.031 A 
ATOM      4  C   UNL     1       5.350  -0.987   3.711  0.00  0.00    +0.113 A 
ATOM      5  C   UNL     1       6.023   0.201   3.930  0.00  0.00    +0.031 A 
ATOM      6  C   UNL     1       5.675   1.335   3.221  0.00  0.00    +0.026 A 
ENDROOT
BRANCH   4   7
ATOM      7  S   UNL     1       5.801  -2.432   4.613  0.00  0.00    +0.100 S 
ATOM      8  O   UNL     1       6.426  -1.986   5.809  0.00  0.00    -0.146 OA
ATOM      9  O   UNL     1       4.660  -3.279   4.620  0.00  0.00    -0.146 OA
BRANCH   7  10
ATOM     10  N   UNL     1       6.965  -3.214   3.733  0.00  0.00    -0.118 NA
ATOM     11  C   UNL     1       7.477  -4.317   4.174  0.00  0.00    +0.117 C 
ATOM     12  C   UNL     1       7.003  -4.903   5.502  0.00  0.00    +0.073 C 
ATOM     13  C   UNL     1       6.230  -6.166   5.186  0.00  0.00    +0.008 C 
ATOM     14  C   UNL     1       7.109  -7.415   5.110  0.00  0.00    +0.002 C 
ATOM     15  C   UNL     1       8.420  -7.182   4.358  0.00  0.00    +0.019 C 
ATOM     16  C   UNL     1       8.246  -6.362   3.097  0.00  0.00    +0.102 C 
ATOM     17  N   UNL     1       8.404  -4.942   3.475  0.00  0.00    -0.331 N 
ATOM     18  H   UNL     1       9.203  -4.464   3.205  0.00  0.00    +0.147 HD
ENDBRANCH   7  10
ENDBRANCH   4   7
BRANCH   1  19
ATOM     19  N   UNL     1       4.283   2.428   1.581  0.00  0.00    -0.216 N 
ATOM     20  H   UNL     1       3.780   3.134   2.017  0.00  0.00    +0.174 HD
BRANCH  19  21
ATOM     21  S   UNL     1       4.718   2.581  -0.009  0.00  0.00    +0.072 S 
ATOM     22  O   UNL     1       4.286   3.869  -0.426  0.00  0.00    -0.150 OA
ATOM     23  O   UNL     1       4.299   1.390  -0.661  0.00  0.00    -0.150 OA
BRANCH  21  26
ATOM     24  C   UNL     1       8.553   1.438  -0.365  0.00  0.00    +0.003 A 
ATOM     25  C   UNL     1       7.172   1.427  -0.317  0.00  0.00    +0.029 A 
ATOM     26  C   UNL     1       6.479   2.596  -0.069  0.00  0.00    +0.110 A 
ATOM     27  C   UNL     1       7.167   3.779   0.131  0.00  0.00    +0.044 A 
ATOM     28  C   UNL     1       8.549   3.790   0.084  0.00  0.00    +0.020 A 
ATOM     29  C   UNL     1       9.242   2.619  -0.164  0.00  0.00    +0.015 A 
ATOM     30 BR   UNL     1       9.491   5.407   0.358  0.00  0.00    -0.050 Br
ENDBRANCH  21  26
ENDBRANCH  19  21
ENDBRANCH   1  19
TORSDOF 5
