REMARK  Name = ZINC41063082
REMARK  8 active torsions:
REMARK  status: ('A' for Active; 'I' for Inactive)
REMARK    1  A    between atoms: C_1  and  C_2
REMARK    2  A    between atoms: C_2  and  N_3
REMARK    3  A    between atoms: C_7  and  C_9
REMARK    4  A    between atoms: C_9  and  C_11
REMARK    5  A    between atoms: C_9  and  O_12
REMARK    6  A    between atoms: O_12  and  C_13
REMARK    7  A    between atoms: C_13  and  C_15
REMARK    8  A    between atoms: C_20  and  N_21
REMARK                            x       y       z     vdW  Elec       q    Type
REMARK                         _______ _______ _______ _____ _____    ______ ____
ROOT
ATOM      1  O   UNL     1      -4.462  -5.578   0.176  0.00  0.00    -0.449 OA
ENDROOT
BRANCH   1   2
ATOM      2  C   UNL     1      -4.475  -4.153   0.074  0.00  0.00    +0.259 C 
ATOM      3  C   UNL     1      -5.149  -3.741  -1.236  0.00  0.00    +0.062 C 
BRANCH   2   8
ATOM      4  N   UNL     1      -1.333  -0.515   0.149  0.00  0.00    -0.299 N 
ATOM      5  C   UNL     1      -1.564  -1.843   0.132  0.00  0.00    +0.306 C 
ATOM      6  O   UNL     1      -0.631  -2.622   0.133  0.00  0.00    -0.252 OA
ATOM      7  N   UNL     1      -2.829  -2.307   0.113  0.00  0.00    -0.237 N 
ATOM      8  C   UNL     1      -3.060  -3.634   0.095  0.00  0.00    +0.261 C 
ATOM      9  O   UNL     1      -2.130  -4.412   0.097  0.00  0.00    -0.271 OA
ATOM     10  H   UNL     1      -2.077   0.106   0.147  0.00  0.00    +0.150 HD
ATOM     11  H   UNL     1      -3.574  -1.685   0.111  0.00  0.00    +0.159 HD
BRANCH   4  13
ATOM     12  C   UNL     1       0.025   1.518   0.186  0.00  0.00    +0.024 C 
ATOM     13  C   UNL     1       0.043  -0.011   0.170  0.00  0.00    +0.102 C 
ENDBRANCH   4  13
ENDBRANCH   2   8
ENDBRANCH   1   2
BRANCH   1  14
ATOM     14  C   UNL     1      -5.520  -6.158   0.776  0.00  0.00    +0.342 C 
ATOM     15  O   UNL     1      -6.429  -5.473   1.201  0.00  0.00    -0.245 OA
BRANCH  14  16
ATOM     16  C   UNL     1      -5.575  -7.624   0.916  0.00  0.00    +0.081 A 
ATOM     17  C   UNL     1      -4.595  -8.424   0.322  0.00  0.00    +0.036 A 
ATOM     18  C   UNL     1      -4.652  -9.795   0.458  0.00  0.00    +0.042 A 
ATOM     19  C   UNL     1      -5.677 -10.385   1.182  0.00  0.00    +0.022 A 
ATOM     20  C   UNL     1      -6.651  -9.608   1.774  0.00  0.00    +0.025 A 
ATOM     21  C   UNL     1      -6.608  -8.225   1.653  0.00  0.00    +0.039 A 
ATOM     22 CL   UNL     1      -3.434 -10.787  -0.281  0.00  0.00    -0.084 Cl
BRANCH  21  23
ATOM     23  N   UNL     1      -7.585  -7.440   2.253  0.00  0.00    -0.357 N 
ATOM     24  H   UNL     1      -7.601  -6.483   2.098  0.00  0.00    +0.142 HD
ATOM     25  H   UNL     1      -8.251  -7.850   2.826  0.00  0.00    +0.142 HD
ENDBRANCH  21  23
ENDBRANCH  14  16
ENDBRANCH   1  14
TORSDOF 6
