REMARK  Name = ZINC38663989
REMARK  7 active torsions:
REMARK  status: ('A' for Active; 'I' for Inactive)
REMARK    1  A    between atoms: C_7  and  C_10
REMARK    2  A    between atoms: C_13  and  S_16
REMARK    3  A    between atoms: S_16  and  C_17
REMARK    4  A    between atoms: C_17  and  C_18
REMARK    5  A    between atoms: N_20  and  C_21
REMARK    6  A    between atoms: C_25  and  S_27
REMARK    7  A    between atoms: S_27  and  N_30
REMARK                            x       y       z     vdW  Elec       q    Type
REMARK                         _______ _______ _______ _____ _____    ______ ____
ROOT
ATOM      1  C   UNL     1      -0.057  -5.082  -2.875  0.00  0.00    +0.170 C 
ENDROOT
BRANCH   1   2
ATOM      2  C   UNL     1      -0.093  -5.819  -4.190  0.00  0.00    +0.227 C 
ATOM      3  O   UNL     1      -0.195  -7.027  -4.205  0.00  0.00    -0.275 OA
ATOM      4  N   UNL     1      -0.011  -5.134  -5.348  0.00  0.00    -0.285 N 
ATOM      5  H   UNL     1       0.003  -4.164  -5.338  0.00  0.00    +0.155 HD
BRANCH   4   6
ATOM      6  C   UNL     1       0.054  -5.823  -6.564  0.00  0.00    +0.035 A 
ATOM      7  C   UNL     1      -0.650  -7.008  -6.731  0.00  0.00    +0.023 A 
ATOM      8  C   UNL     1      -0.585  -7.685  -7.933  0.00  0.00    +0.004 A 
ATOM      9  C   UNL     1       0.182  -7.185  -8.970  0.00  0.00    +0.028 A 
ATOM     10  C   UNL     1       0.885  -6.005  -8.806  0.00  0.00    +0.107 A 
ATOM     11  C   UNL     1       0.818  -5.319  -7.609  0.00  0.00    +0.051 A 
BRANCH  10  12
ATOM     12  S   UNL     1       1.860  -5.372 -10.130  0.00  0.00    +0.061 S 
ATOM     13  O   UNL     1       2.853  -4.542  -9.542  0.00  0.00    -0.153 OA
ATOM     14  O   UNL     1       2.187  -6.478 -10.960  0.00  0.00    -0.153 OA
BRANCH  12  15
ATOM     15  N   UNL     1       0.884  -4.379 -11.027  0.00  0.00    -0.177 NA
ATOM     16  C   UNL     1       0.054  -4.796 -12.167  0.00  0.00    +0.109 C 
ATOM     17  C   UNL     1      -0.657  -3.535 -12.701  0.00  0.00    +0.018 C 
ATOM     18  C   UNL     1       0.247  -2.383 -12.189  0.00  0.00    +0.018 C 
ATOM     19  C   UNL     1       0.698  -2.933 -10.810  0.00  0.00    +0.109 C 
ENDBRANCH  12  15
ENDBRANCH  10  12
ENDBRANCH   4   6
ENDBRANCH   1   2
BRANCH   1  20
ATOM     20  S   UNL     1      -0.186  -6.272  -1.512  0.00  0.00    -0.087 S 
BRANCH  20  24
ATOM     21  C   UNL     1       0.649  -3.123  -0.020  0.00  0.00    +0.238 C 
ATOM     22  N   UNL     1      -0.653  -3.011  -0.016  0.00  0.00    -0.145 NA
ATOM     23  N   UNL     1      -1.247  -4.281  -0.017  0.00  0.00    -0.219 N 
ATOM     24  C   UNL     1      -0.129  -5.239  -0.022  0.00  0.00    +0.339 C 
ATOM     25  O   UNL     1       1.048  -4.418  -0.029  0.00  0.00    -0.443 OA
ATOM     26  H   UNL     1      -2.195  -4.486  -0.015  0.00  0.00    +0.173 HD
BRANCH  21  33
ATOM     27  C   UNL     1      -0.072   1.356   0.007  0.00  0.00    +0.001 A 
ATOM     28  C   UNL     1       1.103   2.111   0.002  0.00  0.00    +0.002 A 
ATOM     29  C   UNL     1       2.327   1.528  -0.010  0.00  0.00    +0.026 A 
ATOM     30  C   UNL     1       2.436   0.114  -0.017  0.00  0.00    +0.043 A 
ATOM     31  N   UNL     1       3.488  -0.681  -0.029  0.00  0.00    -0.380 N 
ATOM     32  C   UNL     1       3.041  -2.077  -0.032  0.00  0.00    +0.154 C 
ATOM     33  C   UNL     1       1.529  -2.032  -0.021  0.00  0.00    +0.043 C 
ATOM     34  C   UNL     1       1.194  -0.677  -0.012  0.00  0.00    +0.008 A 
ATOM     35  C   UNL     1      -0.045  -0.002  -0.000  0.00  0.00    +0.010 A 
ATOM     36  H   UNL     1       4.413  -0.387  -0.034  0.00  0.00    +0.160 HD
ENDBRANCH  21  33
ENDBRANCH  20  24
ENDBRANCH   1  20
TORSDOF 7
