REMARK  Name = ZINC42934248
REMARK  6 active torsions:
REMARK  status: ('A' for Active; 'I' for Inactive)
REMARK    1  A    between atoms: C_1  and  C_2
REMARK    2  A    between atoms: C_2  and  C_3
REMARK    3  A    between atoms: C_2  and  C_4
REMARK    4  A    between atoms: C_4  and  C_6
REMARK    5  A    between atoms: C_4  and  S_18
REMARK    6  A    between atoms: S_18  and  C_19
REMARK                            x       y       z     vdW  Elec       q    Type
REMARK                         _______ _______ _______ _____ _____    ______ ____
ROOT
ATOM      1  C   UNL     1      -1.405  -0.651  -0.098  0.00  0.00    +0.142 C 
ENDROOT
BRANCH   1   2
ATOM      2  C   UNL     1      -1.419  -2.153   0.021  0.00  0.00    +0.233 C 
ATOM      3  O   UNL     1      -1.628  -2.837  -0.960  0.00  0.00    -0.274 OA
ATOM      4  N   UNL     1      -1.200  -2.737   1.215  0.00  0.00    -0.270 N 
ATOM      5  C   UNL     1      -1.043  -1.922   2.428  0.00  0.00    +0.114 C 
ATOM      6  C   UNL     1       0.150  -2.478   3.216  0.00  0.00    +0.024 C 
ATOM      7  C   UNL     1      -0.169  -3.909   3.650  0.00  0.00    +0.038 C 
ATOM      8  C   UNL     1      -0.625  -4.729   2.473  0.00  0.00    -0.026 A 
ATOM      9  C   UNL     1      -1.122  -4.133   1.323  0.00  0.00    +0.039 A 
ATOM     10  C   UNL     1      -1.545  -4.918   0.257  0.00  0.00    +0.024 A 
ATOM     11  C   UNL     1      -1.474  -6.295   0.342  0.00  0.00    +0.002 A 
ATOM     12  C   UNL     1      -0.982  -6.890   1.489  0.00  0.00    +0.000 A 
ATOM     13  C   UNL     1      -0.550  -6.109   2.548  0.00  0.00    +0.005 A 
ENDBRANCH   1   2
BRANCH   1  15
ATOM     14  C   UNL     1       0.953  -0.580   0.723  0.00  0.00    +0.009 C 
ATOM     15  C   UNL     1       0.014  -0.177  -0.416  0.00  0.00    +0.005 C 
ATOM     16  C   UNL     1       0.487  -0.823  -1.720  0.00  0.00    +0.009 C 
ENDBRANCH   1  15
BRANCH   1  17
ATOM     17  S   UNL     1      -2.526  -0.139  -1.429  0.00  0.00    -0.084 S 
BRANCH  17  18
ATOM     18  C   UNL     1      -2.596   1.615  -1.276  0.00  0.00    +0.161 A 
ATOM     19  N   UNL     1      -1.933   2.410  -0.459  0.00  0.00    -0.133 NA
ATOM     20  N   UNL     1      -2.142   3.769  -0.507  0.00  0.00    -0.125 NA
ATOM     21  C   UNL     1      -3.003   4.271  -1.371  0.00  0.00    +0.180 A 
ATOM     22  S   UNL     1      -3.578   2.793  -2.193  0.00  0.00    -0.025 S 
ATOM     23  N   UNL     1      -3.363   5.596  -1.587  0.00  0.00    -0.336 N 
ATOM     24  H   UNL     1      -2.957   6.301  -1.059  0.00  0.00    +0.144 HD
ATOM     25  H   UNL     1      -4.019   5.815  -2.266  0.00  0.00    +0.144 HD
ENDBRANCH  17  18
ENDBRANCH   1  17
TORSDOF 4
