REMARK  Name = ZINC65396858
REMARK  6 active torsions:
REMARK  status: ('A' for Active; 'I' for Inactive)
REMARK    1  A    between atoms: C_1  and  C_2
REMARK    2  A    between atoms: C_2  and  C_3
REMARK    3  A    between atoms: C_2  and  N_4
REMARK    4  A    between atoms: C_7  and  C_10
REMARK    5  A    between atoms: N_12  and  C_13
REMARK    6  A    between atoms: C_22  and  N_25
REMARK                            x       y       z     vdW  Elec       q    Type
REMARK                         _______ _______ _______ _____ _____    ______ ____
ROOT
ATOM      1  C   UNL     1       4.122  -4.058  -5.475  0.00  0.00    +0.037 C 
ATOM      2  C   UNL     1       3.290  -3.500  -6.631  0.00  0.00    +0.029 C 
ATOM      3  C   UNL     1       3.912  -3.929  -7.961  0.00  0.00    -0.006 C 
ATOM      4  C   UNL     1       5.341  -3.390  -8.054  0.00  0.00    +0.007 C 
ATOM      5  C   UNL     1       6.173  -3.948  -6.897  0.00  0.00    -0.006 C 
ATOM      6  C   UNL     1       5.550  -3.518  -5.567  0.00  0.00    +0.029 C 
ATOM      7  C   UNL     1       6.198  -5.476  -6.978  0.00  0.00    +0.034 C 
ATOM      8  C   UNL     1       4.770  -6.015  -6.886  0.00  0.00    +0.068 C 
ATOM      9  C   UNL     1       3.938  -5.457  -8.042  0.00  0.00    +0.034 C 
ATOM     10  C   UNL     1       4.147  -5.586  -5.556  0.00  0.00    +0.056 C 
ENDROOT
BRANCH   8  11
ATOM     11  N   UNL     1       4.794  -7.478  -6.964  0.00  0.00    -0.246 N 
ATOM     12  C   UNL     1       5.004  -8.223  -8.063  0.00  0.00    +0.219 A 
ATOM     13  N   UNL     1       4.949  -9.483  -7.716  0.00  0.00    -0.223 NA
ATOM     14  C   UNL     1       4.707  -9.582  -6.409  0.00  0.00    +0.245 A 
ATOM     15  N   UNL     1       4.610  -8.380  -5.903  0.00  0.00    -0.158 NA
ENDBRANCH   8  11
BRANCH   1  18
ATOM     16  C   UNL     1       3.398  -2.337  -3.909  0.00  0.00    +0.216 C 
ATOM     17  O   UNL     1       3.777  -1.499  -4.699  0.00  0.00    -0.276 OA
ATOM     18  N   UNL     1       3.526  -3.647  -4.201  0.00  0.00    -0.309 N 
ATOM     19  H   UNL     1       3.222  -4.317  -3.569  0.00  0.00    +0.149 HD
BRANCH  16  23
ATOM     20  N   UNL     1       0.690  -0.478  -1.207  0.00  0.00    +0.381 N 
ATOM     21  C   UNL     1       2.064   0.038  -1.220  0.00  0.00    -0.078 C 
ATOM     22  C   UNL     1       2.759  -0.385  -2.516  0.00  0.00    -0.006 C 
ATOM     23  C   UNL     1       2.785  -1.914  -2.599  0.00  0.00    +0.071 C 
ATOM     24  C   UNL     1       1.352  -2.445  -2.509  0.00  0.00    -0.006 C 
ATOM     25  C   UNL     1       0.709  -1.946  -1.213  0.00  0.00    -0.078 C 
ATOM     26  H   UNL     1       0.200  -0.145  -2.023  0.00  0.00    -0.081 HD
BRANCH  20  28
ATOM     27  C   UNL     1      -0.019   1.526   0.010  0.00  0.00    -0.014 C 
ATOM     28  C   UNL     1       0.002  -0.004   0.002  0.00  0.00    -0.075 C 
ATOM     29  C   UNL     1      -1.433  -0.534   0.013  0.00  0.00    -0.014 C 
ENDBRANCH  20  28
ENDBRANCH  16  23
ENDBRANCH   1  18
TORSDOF 4
