REMARK  Name = ZINC36970314
REMARK  4 active torsions:
REMARK  status: ('A' for Active; 'I' for Inactive)
REMARK    1  A    between atoms: C_8  and  C_10
REMARK    2  A    between atoms: C_10  and  N_11
REMARK    3  A    between atoms: N_11  and  C_12
REMARK    4  A    between atoms: C_17  and  N_18
REMARK                            x       y       z     vdW  Elec       q    Type
REMARK                         _______ _______ _______ _____ _____    ______ ____
ROOT
ATOM      1  N   UNL     1       4.503  -3.494  -1.523  0.00  0.00    -0.335 N 
ATOM      2  H   UNL     1       4.162  -2.973  -2.266  0.00  0.00    +0.147 HD
ENDROOT
BRANCH   1   3
ATOM      3  C   UNL     1       5.049  -4.759  -1.750  0.00  0.00    +0.059 A 
ATOM      4  C   UNL     1       5.648  -5.456  -0.708  0.00  0.00    +0.045 A 
ATOM      5  C   UNL     1       6.187  -6.708  -0.936  0.00  0.00    +0.043 A 
ATOM      6  C   UNL     1       6.131  -7.267  -2.201  0.00  0.00    +0.022 A 
ATOM      7  C   UNL     1       5.536  -6.575  -3.239  0.00  0.00    +0.036 A 
ATOM      8  C   UNL     1       4.990  -5.326  -3.016  0.00  0.00    +0.147 A 
ATOM      9 CL   UNL     1       6.935  -7.580   0.366  0.00  0.00    -0.083 Cl
BRANCH   8  10
ATOM     10  N   UNL     1       4.347  -4.590  -4.128  0.00  0.00    +0.058 N 
ATOM     11  O   UNL     1       3.356  -3.929  -3.922  0.00  0.00    -0.126 OA
ATOM     12  O   UNL     1       4.814  -4.649  -5.242  0.00  0.00    -0.126 OA
ENDBRANCH   8  10
ENDBRANCH   1   3
BRANCH   1  13
ATOM     13  C   UNL     1       4.446  -2.954  -0.162  0.00  0.00    +0.176 C 
BRANCH  13  21
ATOM     14  C   UNL     1       1.466   2.334  -0.216  0.00  0.00    +0.001 A 
ATOM     15  C   UNL     1       2.747   2.839  -0.387  0.00  0.00    +0.004 A 
ATOM     16  C   UNL     1       3.835   1.994  -0.444  0.00  0.00    +0.047 A 
ATOM     17  C   UNL     1       3.651   0.622  -0.328  0.00  0.00    +0.135 A 
ATOM     18  C   UNL     1       2.351   0.117  -0.154  0.00  0.00    +0.020 A 
ATOM     19  C   UNL     1       1.263   0.987  -0.100  0.00  0.00    +0.011 A 
ATOM     20  C   UNL     1       2.506  -1.340  -0.068  0.00  0.00    +0.054 A 
ATOM     21  C   UNL     1       3.817  -1.585  -0.191  0.00  0.00    +0.123 A 
ATOM     22  O   UNL     1       4.491  -0.431  -0.344  0.00  0.00    -0.458 OA
ENDBRANCH  13  21
ENDBRANCH   1  13
TORSDOF 4
