REMARK  Name = ZINC32852694
REMARK  5 active torsions:
REMARK  status: ('A' for Active; 'I' for Inactive)
REMARK    1  A    between atoms: C_1  and  C_2
REMARK    2  A    between atoms: C_15  and  C_17
REMARK    3  A    between atoms: C_17  and  O_18
REMARK    4  A    between atoms: O_18  and  C_19
REMARK    5  A    between atoms: C_19  and  C_21
REMARK                            x       y       z     vdW  Elec       q    Type
REMARK                         _______ _______ _______ _____ _____    ______ ____
ROOT
ATOM      1  C   UNL     1      -3.516  12.486  -0.919  0.00  0.00    +0.029 C 
ATOM      2  C   UNL     1      -3.327  11.826   0.448  0.00  0.00    +0.087 C 
ATOM      3  C   UNL     1      -4.346  12.398   1.428  0.00  0.00    +0.118 C 
ATOM      4  C   UNL     1      -4.446  11.512   2.642  0.00  0.00    +0.219 C 
ATOM      5  O   UNL     1      -3.927  11.856   3.683  0.00  0.00    -0.275 OA
ATOM      6  N   UNL     1      -5.111  10.338   2.579  0.00  0.00    -0.284 N 
ATOM      7  C   UNL     1      -5.633   9.882   1.363  0.00  0.00    +0.055 A 
ATOM      8  C   UNL     1      -6.934   9.413   1.280  0.00  0.00    +0.025 A 
ATOM      9  C   UNL     1      -7.410   8.916   0.081  0.00  0.00    +0.002 A 
ATOM     10  C   UNL     1      -6.594   8.886  -1.035  0.00  0.00    +0.002 A 
ATOM     11  C   UNL     1      -5.298   9.363  -0.963  0.00  0.00    +0.025 A 
ATOM     12  C   UNL     1      -4.815   9.870   0.233  0.00  0.00    +0.058 A 
ATOM     13  N   UNL     1      -3.512  10.379   0.319  0.00  0.00    -0.264 N 
ATOM     14  C   UNL     1      -2.449   9.551   0.289  0.00  0.00    +0.258 C 
ATOM     15  O   UNL     1      -1.326  10.004   0.365  0.00  0.00    -0.271 OA
ATOM     16  H   UNL     1      -5.244   9.732   3.488  0.00  0.00    +0.155 HD
ENDROOT
BRANCH  14  17
ATOM     17  C   UNL     1      -2.655   8.064   0.162  0.00  0.00    +0.328 C 
BRANCH  17  18
ATOM     18  O   UNL     1      -1.366   7.395   0.153  0.00  0.00    -0.452 OA
BRANCH  18  19
ATOM     19  C   UNL     1      -1.375   6.052   0.045  0.00  0.00    +0.340 C 
ATOM     20  O   UNL     1      -2.430   5.456  -0.040  0.00  0.00    -0.245 OA
BRANCH  19  21
ATOM     21  C   UNL     1      -0.104   5.306   0.029  0.00  0.00    +0.067 A 
ATOM     22  C   UNL     1       1.112   5.978   0.006  0.00  0.00    +0.015 A 
ATOM     23  C   UNL     1       2.308   5.273  -0.009  0.00  0.00    +0.001 A 
ATOM     24  C   UNL     1       2.339   3.912  -0.001  0.00  0.00    +0.008 A 
ATOM     25  C   UNL     1       1.147   3.168   0.023  0.00  0.00    -0.017 A 
ATOM     26  C   UNL     1      -0.096   3.845   0.039  0.00  0.00    -0.004 A 
ATOM     27  C   UNL     1      -1.286   3.107   0.063  0.00  0.00    +0.009 A 
ATOM     28  C   UNL     1      -1.234   1.745   0.065  0.00  0.00    +0.001 A 
ATOM     29  C   UNL     1      -0.012   1.076   0.054  0.00  0.00    +0.001 A 
ATOM     30  C   UNL     1       1.164   1.762   0.032  0.00  0.00    +0.008 A 
ENDBRANCH  19  21
ENDBRANCH  18  19
ENDBRANCH  17  18
ENDBRANCH  14  17
TORSDOF 4
