REMARK  Name = ZINC38486791
REMARK  7 active torsions:
REMARK  status: ('A' for Active; 'I' for Inactive)
REMARK    1  A    between atoms: C_1  and  C_2
REMARK    2  A    between atoms: C_2  and  O_3
REMARK    3  A    between atoms: O_3  and  C_4
REMARK    4  A    between atoms: C_7  and  C_10
REMARK    5  A    between atoms: C_13  and  C_15
REMARK    6  A    between atoms: C_16  and  N_27
REMARK    7  A    between atoms: N_17  and  C_20
REMARK                            x       y       z     vdW  Elec       q    Type
REMARK                         _______ _______ _______ _____ _____    ______ ____
ROOT
ATOM      1  C   UNL     1      -0.036  -9.232  -0.032  0.00  0.00    +0.159 A 
ATOM      2  C   UNL     1      -0.258 -10.598  -0.045  0.00  0.00    +0.150 A 
ATOM      3  N   UNL     1       0.974 -11.186  -0.047  0.00  0.00    -0.198 N 
ATOM      4  N   UNL     1       1.914 -10.147  -0.035  0.00  0.00    -0.058 NA
ATOM      5  N   UNL     1       1.290  -9.022  -0.032  0.00  0.00    -0.125 NA
ENDROOT
BRANCH   3   6
ATOM      6  C   UNL     1       1.245 -12.562  -0.059  0.00  0.00    +0.070 A 
ATOM      7  C   UNL     1       0.409 -13.441   0.616  0.00  0.00    +0.028 A 
ATOM      8  C   UNL     1       0.679 -14.796   0.603  0.00  0.00    +0.003 A 
ATOM      9  C   UNL     1       1.780 -15.277  -0.081  0.00  0.00    +0.020 A 
ATOM     10  C   UNL     1       2.615 -14.403  -0.755  0.00  0.00    +0.043 A 
ATOM     11  C   UNL     1       2.347 -13.047  -0.750  0.00  0.00    +0.048 A 
ATOM     12 CL   UNL     1       3.997 -15.011  -1.613  0.00  0.00    -0.083 Cl
ENDBRANCH   3   6
BRANCH   1  16
ATOM     13  C   UNL     1      -1.998  -6.073  -0.013  0.00  0.00    +0.079 A 
ATOM     14  C   UNL     1      -3.253  -6.619  -0.015  0.00  0.00    +0.075 A 
ATOM     15  S   UNL     1      -2.857  -8.363  -0.024  0.00  0.00    -0.073 S 
ATOM     16  C   UNL     1      -1.078  -8.187  -0.025  0.00  0.00    +0.132 A 
ATOM     17  N   UNL     1      -0.943  -6.869  -0.023  0.00  0.00    -0.237 NA
BRANCH  13  21
ATOM     18  C   UNL     1      -1.498  -1.848   0.006  0.00  0.00    +0.121 A 
ATOM     19  C   UNL     1      -0.385  -2.678  -0.003  0.00  0.00    +0.046 A 
ATOM     20  C   UNL     1      -0.544  -4.048  -0.009  0.00  0.00    +0.013 A 
ATOM     21  C   UNL     1      -1.824  -4.599  -0.006  0.00  0.00    +0.001 A 
ATOM     22  C   UNL     1      -2.940  -3.764   0.004  0.00  0.00    +0.013 A 
ATOM     23  C   UNL     1      -2.774  -2.395   0.016  0.00  0.00    +0.046 A 
BRANCH  18  24
ATOM     24  O   UNL     1      -1.339  -0.499   0.012  0.00  0.00    -0.492 OA
BRANCH  24  26
ATOM     25  C   UNL     1      -0.019   1.526   0.010  0.00  0.00    +0.048 C 
ATOM     26  C   UNL     1       0.002  -0.004   0.002  0.00  0.00    +0.225 C 
ENDBRANCH  24  26
ENDBRANCH  18  24
ENDBRANCH  13  21
ENDBRANCH   1  16
BRANCH   2  27
ATOM     27  N   UNL     1      -1.486 -11.242  -0.053  0.00  0.00    -0.341 N 
ATOM     28  H   UNL     1      -2.305 -10.723  -0.050  0.00  0.00    +0.144 HD
ATOM     29  H   UNL     1      -1.526 -12.211  -0.062  0.00  0.00    +0.144 HD
ENDBRANCH   2  27
TORSDOF 6
