REMARK  Name = ZINC12887333
REMARK  8 active torsions:
REMARK  status: ('A' for Active; 'I' for Inactive)
REMARK    1  A    between atoms: C_1  and  C_2
REMARK    2  A    between atoms: C_2  and  C_3
REMARK    3  A    between atoms: C_2  and  C_4
REMARK    4  A    between atoms: C_4  and  C_5
REMARK    5  A    between atoms: C_5  and  C_7
REMARK    6  A    between atoms: C_5  and  N_13
REMARK    7  A    between atoms: N_9  and  C_10
REMARK    8  A    between atoms: C_14  and  C_16
REMARK                            x       y       z     vdW  Elec       q    Type
REMARK                         _______ _______ _______ _____ _____    ______ ____
ROOT
ATOM      1  C   UNL     1       4.627   0.067   0.308  0.00  0.00    +0.167 C 
ATOM      2  C   UNL     1       3.102  -0.068   0.193  0.00  0.00    +0.069 C 
ATOM      3  C   UNL     1       2.455   1.293   0.205  0.00  0.00    -0.015 A 
ATOM      4  C   UNL     1       1.049   1.594   0.408  0.00  0.00    +0.003 A 
ATOM      5  C   UNL     1      -0.063   0.784   0.655  0.00  0.00    +0.010 A 
ATOM      6  C   UNL     1      -1.273   1.418   0.793  0.00  0.00    +0.001 A 
ATOM      7  C   UNL     1      -1.397   2.795   0.706  0.00  0.00    +0.002 A 
ATOM      8  C   UNL     1      -0.313   3.620   0.461  0.00  0.00    +0.026 A 
ATOM      9  C   UNL     1       0.927   3.003   0.309  0.00  0.00    +0.047 A 
ATOM     10  N   UNL     1       2.174   3.502   0.064  0.00  0.00    -0.356 N 
ATOM     11  H   UNL     1       2.386   4.441  -0.054  0.00  0.00    +0.166 HD
ATOM     12  C   UNL     1       3.079   2.477   0.010  0.00  0.00    +0.046 A 
ATOM     13  C   UNL     1       4.565   2.592  -0.224  0.00  0.00    +0.155 C 
ATOM     14  N   UNL     1       5.037   1.216  -0.505  0.00  0.00    -0.273 N 
ATOM     15  C   UNL     1       5.815   1.247  -1.596  0.00  0.00    +0.248 C 
ATOM     16  O   UNL     1       6.519   0.334  -1.980  0.00  0.00    -0.270 OA
ATOM     17  C   UNL     1       5.688   2.551  -2.255  0.00  0.00    +0.042 A 
ATOM     18  C   UNL     1       4.894   3.385  -1.442  0.00  0.00    -0.009 A 
ATOM     19  C   UNL     1       4.567   4.666  -1.827  0.00  0.00    +0.006 A 
ATOM     20  C   UNL     1       5.066   5.107  -3.049  0.00  0.00    +0.000 A 
ATOM     21  C   UNL     1       5.855   4.302  -3.846  0.00  0.00    +0.001 A 
ATOM     22  C   UNL     1       6.188   3.007  -3.477  0.00  0.00    +0.013 A 
ENDROOT
BRANCH   1  24
ATOM     23  N   UNL     1       5.192  -1.515  -1.507  0.00  0.00    -0.302 N 
ATOM     24  C   UNL     1       5.291  -1.185  -0.204  0.00  0.00    +0.235 C 
ATOM     25  O   UNL     1       5.915  -1.895   0.556  0.00  0.00    -0.274 OA
ATOM     26  H   UNL     1       4.694  -0.947  -2.115  0.00  0.00    +0.150 HD
BRANCH  23  27
ATOM     27  C   UNL     1       5.838  -2.732  -2.005  0.00  0.00    +0.159 C 
BRANCH  27  28
ATOM     28  C   UNL     1       6.122  -2.583  -3.478  0.00  0.00    +0.234 C 
ATOM     29  O   UNL     1       5.814  -1.561  -4.054  0.00  0.00    -0.274 OA
ATOM     30  N   UNL     1       6.716  -3.586  -4.154  0.00  0.00    -0.311 N 
ATOM     31  H   UNL     1       6.962  -4.403  -3.693  0.00  0.00    +0.149 HD
BRANCH  30  32
ATOM     32  C   UNL     1       6.992  -3.441  -5.586  0.00  0.00    +0.073 C 
ATOM     33  C   UNL     1       6.676  -4.635  -6.490  0.00  0.00    +0.024 C 
ATOM     34  C   UNL     1       8.131  -4.277  -6.174  0.00  0.00    +0.024 C 
ENDBRANCH  30  32
ENDBRANCH  27  28
BRANCH  27  35
ATOM     35  C   UNL     1       4.911  -3.929  -1.783  0.00  0.00    +0.034 C 
BRANCH  35  37
ATOM     36  C   UNL     1       3.700  -5.272  -0.058  0.00  0.00    +0.007 C 
ATOM     37  C   UNL     1       4.723  -4.156  -0.281  0.00  0.00    -0.015 C 
ATOM     38  C   UNL     1       6.060  -4.557   0.345  0.00  0.00    +0.007 C 
ENDBRANCH  35  37
ENDBRANCH  27  35
ENDBRANCH  23  27
ENDBRANCH   1  24
TORSDOF 6
