REMARK  Name = ZINC21225611
REMARK  8 active torsions:
REMARK  status: ('A' for Active; 'I' for Inactive)
REMARK    1  A    between atoms: C_1  and  C_2
REMARK    2  A    between atoms: C_2  and  C_3
REMARK    3  A    between atoms: C_2  and  C_4
REMARK    4  A    between atoms: C_4  and  O_5
REMARK    5  A    between atoms: O_5  and  C_6
REMARK    6  A    between atoms: C_9  and  C_12
REMARK    7  A    between atoms: C_17  and  C_23
REMARK    8  A    between atoms: C_27  and  O_29
REMARK                            x       y       z     vdW  Elec       q    Type
REMARK                         _______ _______ _______ _____ _____    ______ ____
ROOT
ATOM      1  C   UNL     1       1.919   6.128  -3.695  0.00  0.00    +0.032 C 
ATOM      2  C   UNL     1       2.686   6.539  -2.436  0.00  0.00    +0.059 C 
ATOM      3  C   UNL     1       1.971   6.017  -1.214  0.00  0.00    +0.018 C 
ATOM      4  C   UNL     1       0.630   5.868  -1.209  0.00  0.00    +0.020 C 
ATOM      5  C   UNL     1      -0.065   5.351   0.029  0.00  0.00    +0.063 C 
ATOM      6  C   UNL     1       0.664   5.863   1.272  0.00  0.00    +0.109 C 
ATOM      7  C   UNL     1       2.143   5.621   1.112  0.00  0.00    +0.218 C 
ATOM      8  O   UNL     1       2.821   5.358   2.081  0.00  0.00    -0.275 OA
ATOM      9  N   UNL     1       2.711   5.697  -0.104  0.00  0.00    -0.289 N 
ATOM     10  C   UNL     1      -0.146   6.182  -2.337  0.00  0.00    +0.162 C 
ATOM     11  O   UNL     1      -1.353   6.046  -2.290  0.00  0.00    -0.292 OA
ATOM     12  C   UNL     1       0.494   6.685  -3.603  0.00  0.00    +0.088 C 
ATOM     13  H   UNL     1       3.788   5.497  -0.201  0.00  0.00    +0.155 HD
ENDROOT
BRANCH   1  17
ATOM     14  C   UNL     1       3.865   7.727  -7.147  0.00  0.00    +0.121 A 
ATOM     15  C   UNL     1       3.694   6.356  -7.018  0.00  0.00    +0.046 A 
ATOM     16  C   UNL     1       3.065   5.842  -5.901  0.00  0.00    +0.007 A 
ATOM     17  C   UNL     1       2.605   6.692  -4.912  0.00  0.00    -0.043 A 
ATOM     18  C   UNL     1       2.769   8.059  -5.041  0.00  0.00    +0.007 A 
ATOM     19  C   UNL     1       3.403   8.578  -6.153  0.00  0.00    +0.046 A 
BRANCH  14  20
ATOM     20  O   UNL     1       4.483   8.236  -8.245  0.00  0.00    -0.492 OA
BRANCH  20  21
ATOM     21  C   UNL     1       4.624   9.656  -8.311  0.00  0.00    +0.232 C 
BRANCH  21  23
ATOM     22  C   UNL     1       5.378  11.563  -9.739  0.00  0.00    +0.010 C 
ATOM     23  C   UNL     1       5.338  10.039  -9.609  0.00  0.00    +0.020 C 
ATOM     24  C   UNL     1       6.766   9.491  -9.585  0.00  0.00    +0.010 C 
ENDBRANCH  21  23
ENDBRANCH  20  21
ENDBRANCH  14  20
ENDBRANCH   1  17
BRANCH   5  25
ATOM     25  C   UNL     1      -0.049   3.844   0.022  0.00  0.00    -0.036 A 
ATOM     26  C   UNL     1       1.156   3.166   0.007  0.00  0.00    +0.004 A 
ATOM     27  C   UNL     1       1.174   1.783   0.000  0.00  0.00    +0.004 A 
ATOM     28  C   UNL     1      -0.013   1.076   0.008  0.00  0.00    +0.045 A 
ATOM     29  C   UNL     1      -1.223   1.754   0.017  0.00  0.00    +0.117 A 
ATOM     30  C   UNL     1      -1.238   3.141   0.029  0.00  0.00    +0.049 A 
BRANCH  29  31
ATOM     31  O   UNL     1      -2.391   1.060   0.019  0.00  0.00    -0.507 OA
ATOM     32  H   UNL     1      -3.351   1.598   0.027  0.00  0.00    +0.292 HD
ENDBRANCH  29  31
ENDBRANCH   5  25
TORSDOF 6
