REMARK  Name = ZINC38769273
REMARK  7 active torsions:
REMARK  status: ('A' for Active; 'I' for Inactive)
REMARK    1  A    between atoms: C_1  and  C_2
REMARK    2  A    between atoms: C_7  and  S_16
REMARK    3  A    between atoms: S_16  and  C_17
REMARK    4  A    between atoms: C_21  and  C_23
REMARK    5  A    between atoms: C_23  and  C_24
REMARK    6  A    between atoms: C_23  and  C_25
REMARK    7  A    between atoms: C_23  and  C_26
REMARK                            x       y       z     vdW  Elec       q    Type
REMARK                         _______ _______ _______ _____ _____    ______ ____
ROOT
ATOM      1  C   UNL     1      -0.019   1.526   0.010  0.00  0.00    +0.032 C 
ATOM      2  C   UNL     1       0.002  -0.004   0.002  0.00  0.00    +0.115 C 
ATOM      3  C   UNL     1      -1.403  -0.551   0.089  0.00  0.00    +0.078 C 
ATOM      4  C   UNL     1      -1.473  -1.277   1.224  0.00  0.00    +0.157 C 
ATOM      5  N   UNL     1      -2.542  -1.962   1.724  0.00  0.00    -0.222 NA
ATOM      6  C   UNL     1      -2.478  -2.635   2.848  0.00  0.00    +0.115 C 
ATOM      7  C   UNL     1      -1.214  -2.659   3.603  0.00  0.00    +0.030 A 
ATOM      8  C   UNL     1      -1.095  -3.360   4.802  0.00  0.00    +0.012 A 
ATOM      9  C   UNL     1       0.110  -3.354   5.475  0.00  0.00    +0.001 A 
ATOM     10  C   UNL     1       1.195  -2.659   4.968  0.00  0.00    +0.002 A 
ATOM     11  C   UNL     1       1.090  -1.960   3.780  0.00  0.00    +0.025 A 
ATOM     12  C   UNL     1      -0.113  -1.956   3.091  0.00  0.00    +0.061 A 
ATOM     13  N   UNL     1      -0.253  -1.262   1.891  0.00  0.00    -0.217 N 
ATOM     14  N   UNL     1       0.675  -0.516   1.208  0.00  0.00    -0.226 NA
ATOM     15 CL   UNL     1      -2.685  -0.294  -1.053  0.00  0.00    -0.083 Cl
ATOM     16  H   UNL     1       1.480  -1.072   0.964  0.00  0.00    +0.146 HD
ENDROOT
BRANCH   6  17
ATOM     17  S   UNL     1      -3.890  -3.502   3.447  0.00  0.00    -0.030 S 
BRANCH  17  18
ATOM     18  C   UNL     1      -5.130  -3.186   2.236  0.00  0.00    +0.190 A 
ATOM     19  N   UNL     1      -6.401  -3.641   2.262  0.00  0.00    -0.253 N 
ATOM     20  H   UNL     1      -6.806  -4.199   2.945  0.00  0.00    +0.191 HD
ATOM     21  N   UNL     1      -7.022  -3.145   1.104  0.00  0.00    -0.156 NA
ATOM     22  C   UNL     1      -6.127  -2.442   0.462  0.00  0.00    +0.157 A 
ATOM     23  N   UNL     1      -4.984  -2.461   1.147  0.00  0.00    -0.205 NA
BRANCH  22  24
ATOM     24  C   UNL     1      -6.352  -1.721  -0.842  0.00  0.00    +0.024 C 
ATOM     25  C   UNL     1      -7.795  -1.937  -1.301  0.00  0.00    +0.019 C 
ATOM     26  C   UNL     1      -6.097  -0.225  -0.648  0.00  0.00    +0.019 C 
ATOM     27  C   UNL     1      -5.393  -2.269  -1.900  0.00  0.00    +0.019 C 
ENDBRANCH  22  24
ENDBRANCH  17  18
ENDBRANCH   6  17
TORSDOF 3
