REMARK  Name = ZINC30342849
REMARK  5 active torsions:
REMARK  status: ('A' for Active; 'I' for Inactive)
REMARK    1  A    between atoms: C_1  and  C_2
REMARK    2  A    between atoms: C_2  and  N_3
REMARK    3  A    between atoms: C_12  and  S_14
REMARK    4  A    between atoms: S_14  and  C_15
REMARK    5  A    between atoms: C_15  and  C_16
REMARK                            x       y       z     vdW  Elec       q    Type
REMARK                         _______ _______ _______ _____ _____    ______ ____
ROOT
ATOM      1  N   UNL     1       0.711  -0.489   1.189  0.00  0.00    -0.329 N 
ATOM      2  C   UNL     1       0.857  -1.844   1.398  0.00  0.00    +0.131 A 
ATOM      3  C   UNL     1       1.534  -2.333   2.544  0.00  0.00    +0.040 A 
ATOM      4  C   UNL     1       2.080  -1.476   3.505  0.00  0.00    +0.013 A 
ATOM      5  C   UNL     1       2.721  -2.002   4.589  0.00  0.00    +0.001 A 
ATOM      6  C   UNL     1       2.840  -3.379   4.750  0.00  0.00    +0.002 A 
ATOM      7  C   UNL     1       2.319  -4.241   3.830  0.00  0.00    +0.028 A 
ATOM      8  C   UNL     1       1.654  -3.735   2.706  0.00  0.00    +0.077 A 
ATOM      9  N   UNL     1       1.124  -4.540   1.773  0.00  0.00    -0.222 NA
ATOM     10  C   UNL     1       0.503  -4.032   0.725  0.00  0.00    +0.191 A 
ATOM     11  N   UNL     1       0.364  -2.721   0.537  0.00  0.00    -0.206 NA
ATOM     12  H   UNL     1       1.077   0.142   1.827  0.00  0.00    +0.147 HD
ENDROOT
BRANCH   1  14
ATOM     13  C   UNL     1      -0.019   1.526   0.010  0.00  0.00    +0.024 C 
ATOM     14  C   UNL     1       0.002  -0.004   0.002  0.00  0.00    +0.099 C 
ENDBRANCH   1  14
BRANCH  10  15
ATOM     15  S   UNL     1      -0.175  -5.133  -0.471  0.00  0.00    -0.080 S 
BRANCH  15  16
ATOM     16  C   UNL     1       0.229  -6.781   0.171  0.00  0.00    +0.136 C 
BRANCH  16  17
ATOM     17  C   UNL     1      -0.303  -7.831  -0.771  0.00  0.00    +0.101 A 
ATOM     18  C   UNL     1      -1.552  -8.353  -0.653  0.00  0.00    +0.122 A 
ATOM     19  S   UNL     1      -1.597  -9.441  -1.931  0.00  0.00    +0.048 S 
ATOM     20  N   UNL     1      -0.114  -9.205  -2.533  0.00  0.00    -0.109 NA
ATOM     21  N   UNL     1       0.407  -8.306  -1.773  0.00  0.00    -0.144 NA
ATOM     22 CL   UNL     1      -2.782  -7.990   0.517  0.00  0.00    -0.072 Cl
ENDBRANCH  16  17
ENDBRANCH  15  16
ENDBRANCH  10  15
TORSDOF 4
