REMARK  Name = ZINC46569531
REMARK  8 active torsions:
REMARK  status: ('A' for Active; 'I' for Inactive)
REMARK    1  A    between atoms: C_3  and  C_6
REMARK    2  A    between atoms: C_9  and  C_29
REMARK    3  A    between atoms: C_12  and  C_14
REMARK    4  A    between atoms: C_14  and  N_15
REMARK    5  A    between atoms: N_15  and  C_16
REMARK    6  A    between atoms: N_15  and  C_26
REMARK    7  A    between atoms: C_16  and  C_17
REMARK    8  A    between atoms: C_20  and  C_23
REMARK                            x       y       z     vdW  Elec       q    Type
REMARK                         _______ _______ _______ _____ _____    ______ ____
ROOT
ATOM      1  C   UNL     1       5.415  -0.143  -2.910  0.00  0.00    +0.021 C 
ENDROOT
BRANCH   1   7
ATOM      2  C   UNL     1       4.026   2.200  -0.156  0.00  0.00    +0.143 C 
ATOM      3  C   UNL     1       4.819   2.317   1.161  0.00  0.00    +0.088 C 
ATOM      4  C   UNL     1       6.002   1.397   0.957  0.00  0.00    +0.075 C 
ATOM      5  N   UNL     1       5.930   0.856  -0.213  0.00  0.00    -0.180 NA
ATOM      6  N   UNL     1       4.816   1.252  -0.957  0.00  0.00    -0.186 N 
ATOM      7  C   UNL     1       4.513   0.835  -2.203  0.00  0.00    +0.219 C 
ATOM      8  O   UNL     1       3.514   1.247  -2.754  0.00  0.00    -0.276 OA
BRANCH   2  11
ATOM      9  C   UNL     1       0.308   1.597   0.417  0.00  0.00    +0.008 A 
ATOM     10  C   UNL     1       1.463   2.312   0.163  0.00  0.00    +0.013 A 
ATOM     11  C   UNL     1       2.646   1.653   0.103  0.00  0.00    +0.013 A 
ATOM     12  S   UNL     1       2.144  -0.033   0.411  0.00  0.00    -0.100 S 
ATOM     13  C   UNL     1       0.392   0.256   0.599  0.00  0.00    +0.045 A 
ENDBRANCH   2  11
BRANCH   4  14
ATOM     14  C   UNL     1       7.066   1.157   1.937  0.00  0.00    +0.035 A 
ATOM     15  C   UNL     1       8.181   0.343   1.833  0.00  0.00    +0.017 A 
ATOM     16  C   UNL     1       9.047   0.282   2.899  0.00  0.00    +0.008 A 
ATOM     17  C   UNL     1       8.786   1.016   4.012  0.00  0.00    +0.046 A 
ATOM     18  S   UNL     1       7.268   1.846   3.572  0.00  0.00    -0.095 S 
ENDBRANCH   4  14
ENDBRANCH   1   7
BRANCH   1  19
ATOM     19  N   UNL     1       4.954  -0.321  -4.294  0.00  0.00    +0.390 N 
ATOM     20  H   UNL     1       3.977  -0.573  -4.293  0.00  0.00    -0.080 HD
BRANCH  19  21
ATOM     21  C   UNL     1       5.734  -1.387  -4.936  0.00  0.00    -0.068 C 
ATOM     22  C   UNL     1       4.966  -2.438  -5.741  0.00  0.00    -0.017 C 
ATOM     23  C   UNL     1       5.577  -2.807  -4.387  0.00  0.00    -0.017 C 
ENDBRANCH  19  21
BRANCH  19  24
ATOM     24  C   UNL     1       5.136   0.934  -5.036  0.00  0.00    -0.042 C 
BRANCH  24  25
ATOM     25  C   UNL     1       4.551   0.789  -6.417  0.00  0.00    -0.064 A 
ATOM     26  C   UNL     1       5.341   0.325  -7.454  0.00  0.00    +0.002 A 
ATOM     27  C   UNL     1       4.812   0.190  -8.721  0.00  0.00    +0.013 A 
ATOM     28  C   UNL     1       3.477   0.524  -8.956  0.00  0.00    +0.037 A 
ATOM     29  C   UNL     1       2.686   0.993  -7.906  0.00  0.00    +0.013 A 
ATOM     30  C   UNL     1       3.226   1.117  -6.642  0.00  0.00    +0.002 A 
BRANCH  28  31
ATOM     31  C   UNL     1       2.904   0.383 -10.312  0.00  0.00    +0.242 C 
ATOM     32  O   UNL     1       3.595  -0.024 -11.225  0.00  0.00    -0.270 OA
ATOM     33  N   UNL     1       1.615   0.707 -10.535  0.00  0.00    -0.325 N 
ATOM     34  H   UNL     1       1.063   1.032  -9.807  0.00  0.00    +0.145 HD
ATOM     35  H   UNL     1       1.239   0.614 -11.425  0.00  0.00    +0.145 HD
ENDBRANCH  28  31
ENDBRANCH  24  25
ENDBRANCH  19  24
ENDBRANCH   1  19
TORSDOF 8
