REMARK  Name = ZINC09961265
REMARK  10 active torsions:
REMARK  status: ('A' for Active; 'I' for Inactive)
REMARK    1  A    between atoms: C_1  and  N_52
REMARK    2  A    between atoms: C_2  and  N_52
REMARK    3  A    between atoms: C_3  and  C_5
REMARK    4  A    between atoms: C_3  and  C_26
REMARK    5  A    between atoms: C_3  and  N_52
REMARK    6  A    between atoms: C_5  and  N_6
REMARK    7  A    between atoms: C_7  and  C_9
REMARK    8  A    between atoms: C_12  and  S_15
REMARK    9  A    between atoms: S_15  and  N_18
REMARK   10  A    between atoms: N_18  and  C_19
REMARK                            x       y       z     vdW  Elec       q    Type
REMARK                         _______ _______ _______ _____ _____    ______ ____
ROOT
ATOM      1  C   UNL     1      -1.705   5.642   4.289  0.00  0.00    +0.037 A 
ATOM      2  C   UNL     1      -1.312   6.676   3.439  0.00  0.00    +0.015 A 
ATOM      3  C   UNL     1      -1.544   7.987   3.799  0.00  0.00    +0.029 A 
ATOM      4  C   UNL     1      -2.157   8.278   5.005  0.00  0.00    +0.109 A 
ATOM      5  C   UNL     1      -2.545   7.258   5.855  0.00  0.00    +0.029 A 
ATOM      6  C   UNL     1      -2.323   5.942   5.504  0.00  0.00    +0.015 A 
ENDROOT
BRANCH   1   8
ATOM      7  N   UNL     1      -0.867   3.947   2.733  0.00  0.00    -0.313 N 
ATOM      8  C   UNL     1      -1.464   4.234   3.907  0.00  0.00    +0.244 C 
ATOM      9  O   UNL     1      -1.804   3.335   4.652  0.00  0.00    -0.270 OA
ATOM     10  H   UNL     1      -0.596   4.664   2.139  0.00  0.00    +0.149 HD
BRANCH   7  11
ATOM     11  C   UNL     1      -0.628   2.552   2.355  0.00  0.00    +0.094 C 
BRANCH  11  12
ATOM     12  C   UNL     1      -0.062   2.499   0.934  0.00  0.00    -0.014 C 
BRANCH  12  13
ATOM     13  C   UNL     1      -1.103   2.985  -0.040  0.00  0.00    -0.022 A 
ATOM     14  C   UNL     1      -1.927   2.264  -0.839  0.00  0.00    +0.009 A 
ATOM     15  C   UNL     1      -2.817   2.931  -1.661  0.00  0.00    +0.008 A 
ATOM     16  C   UNL     1      -2.832   4.287  -1.650  0.00  0.00    +0.045 A 
ATOM     17  S   UNL     1      -1.567   4.661  -0.447  0.00  0.00    -0.103 S 
ENDBRANCH  12  13
BRANCH  12  20
ATOM     18  C   UNL     1       1.746   3.268  -0.480  0.00  0.00    -0.096 C 
ATOM     19  C   UNL     1       2.094   3.023   1.903  0.00  0.00    -0.096 C 
ATOM     20  N   UNL     1       1.119   3.384   0.853  0.00  0.00    +0.382 N 
ATOM     21  H   UNL     1       0.818   4.355   0.997  0.00  0.00    -0.082 HD
ENDBRANCH  12  20
ENDBRANCH  11  12
ENDBRANCH   7  11
ENDBRANCH   1   8
BRANCH   4  22
ATOM     22  S   UNL     1      -2.445   9.956   5.459  0.00  0.00    +0.072 S 
ATOM     23  O   UNL     1      -2.485  10.704   4.251  0.00  0.00    -0.150 OA
ATOM     24  O   UNL     1      -3.524   9.947   6.385  0.00  0.00    -0.150 OA
BRANCH  22  25
ATOM     25  N   UNL     1      -1.111  10.474   6.293  0.00  0.00    -0.213 N 
ATOM     26  H   UNL     1      -1.200  10.779   7.209  0.00  0.00    +0.174 HD
BRANCH  25  27
ATOM     27  C   UNL     1       0.144  10.470   5.675  0.00  0.00    +0.083 A 
ATOM     28  C   UNL     1       0.254  10.764   4.323  0.00  0.00    +0.027 A 
ATOM     29  C   UNL     1       1.496  10.764   3.716  0.00  0.00    +0.002 A 
ATOM     30  C   UNL     1       2.627  10.463   4.452  0.00  0.00    +0.003 A 
ATOM     31  C   UNL     1       2.522  10.165   5.798  0.00  0.00    +0.040 A 
ATOM     32  C   UNL     1       1.283  10.168   6.413  0.00  0.00    +0.146 A 
ATOM     33  F   UNL     1       1.180   9.876   7.728  0.00  0.00    -0.204 F 
ENDBRANCH  25  27
ENDBRANCH  22  25
ENDBRANCH   4  22
TORSDOF 8
