REMARK  Name = ZINC38980248
REMARK  6 active torsions:
REMARK  status: ('A' for Active; 'I' for Inactive)
REMARK    1  A    between atoms: C_1  and  C_2
REMARK    2  A    between atoms: N_4  and  C_5
REMARK    3  A    between atoms: C_8  and  N_11
REMARK    4  A    between atoms: N_11  and  C_12
REMARK    5  A    between atoms: N_15  and  S_16
REMARK    6  A    between atoms: S_16  and  C_19
REMARK                            x       y       z     vdW  Elec       q    Type
REMARK                         _______ _______ _______ _____ _____    ______ ____
ROOT
ATOM      1  C   UNL     1      -2.579  -6.934  -0.586  0.00  0.00    +0.237 C 
ATOM      2  C   UNL     1      -2.435  -7.819  -1.804  0.00  0.00    +0.192 C 
ATOM      3  N   UNL     1      -2.102  -7.309  -2.953  0.00  0.00    -0.110 NA
ATOM      4  N   UNL     1      -2.656  -9.137  -1.681  0.00  0.00    -0.226 NA
ATOM      5  C   UNL     1      -2.995  -9.677  -0.529  0.00  0.00    +0.089 A 
ATOM      6  C   UNL     1      -3.220 -11.073  -0.436  0.00  0.00    +0.030 A 
ATOM      7  C   UNL     1      -3.568 -11.632   0.744  0.00  0.00    +0.002 A 
ATOM      8  C   UNL     1      -3.724 -10.884   1.922  0.00  0.00    +0.002 A 
ATOM      9  C   UNL     1      -3.533  -9.546   1.945  0.00  0.00    +0.027 A 
ATOM     10  C   UNL     1      -3.152  -8.861   0.701  0.00  0.00    +0.063 A 
ATOM     11  N   UNL     1      -2.958  -7.573   0.685  0.00  0.00    -0.359 N 
ATOM     12  H   UNL     1      -3.062  -7.046   1.493  0.00  0.00    +0.162 HD
ENDROOT
BRANCH   3  13
ATOM     13  S   UNL     1      -1.947  -8.289  -4.279  0.00  0.00    +0.100 S 
ATOM     14  O   UNL     1      -0.840  -9.143  -4.026  0.00  0.00    -0.146 OA
ATOM     15  O   UNL     1      -3.245  -8.790  -4.568  0.00  0.00    -0.146 OA
BRANCH  13  16
ATOM     16  C   UNL     1      -1.491  -7.261  -5.636  0.00  0.00    +0.113 A 
ATOM     17  C   UNL     1      -2.468  -6.684  -6.424  0.00  0.00    +0.032 A 
ATOM     18  C   UNL     1      -2.111  -5.877  -7.488  0.00  0.00    +0.040 A 
ATOM     19  C   UNL     1      -0.774  -5.648  -7.764  0.00  0.00    +0.124 A 
ATOM     20  C   UNL     1       0.204  -6.226  -6.973  0.00  0.00    +0.040 A 
ATOM     21  C   UNL     1      -0.155  -7.029  -5.907  0.00  0.00    +0.032 A 
ATOM     22  F   UNL     1      -0.424  -4.860  -8.804  0.00  0.00    -0.205 F 
ENDBRANCH  13  16
ENDBRANCH   3  13
BRANCH   1  23
ATOM     23  N   UNL     1      -1.302  -6.248  -0.378  0.00  0.00    -0.318 N 
ATOM     24  H   UNL     1      -0.477  -6.757  -0.352  0.00  0.00    +0.148 HD
BRANCH  23  28
ATOM     25  C   UNL     1      -1.214  -2.109   0.103  0.00  0.00    +0.033 A 
ATOM     26  C   UNL     1      -2.431  -2.776   0.056  0.00  0.00    +0.025 A 
ATOM     27  C   UNL     1      -2.460  -4.147  -0.104  0.00  0.00    +0.025 A 
ATOM     28  C   UNL     1      -1.273  -4.859  -0.216  0.00  0.00    +0.029 A 
ATOM     29  C   UNL     1      -0.056  -4.191  -0.169  0.00  0.00    +0.025 A 
ATOM     30  C   UNL     1      -0.027  -2.819  -0.015  0.00  0.00    +0.025 A 
BRANCH  25  34
ATOM     31  C   UNL     1      -0.269   1.518  -0.268  0.00  0.00    +0.109 C 
ATOM     32  C   UNL     1      -0.239   0.014  -0.358  0.00  0.00    +0.214 C 
ATOM     33  O   UNL     1       0.635  -0.539  -0.992  0.00  0.00    -0.276 OA
ATOM     34  N   UNL     1      -1.185  -0.717   0.265  0.00  0.00    -0.286 N 
ATOM     35  H   UNL     1      -1.845  -0.279   0.825  0.00  0.00    +0.155 HD
ENDBRANCH  25  34
ENDBRANCH  23  28
ENDBRANCH   1  23
TORSDOF 5
