REMARK  Name = ZINC38788930
REMARK  3 active torsions:
REMARK  status: ('A' for Active; 'I' for Inactive)
REMARK    1  A    between atoms: C_6  and  N_7
REMARK    2  A    between atoms: N_7  and  C_8
REMARK    3  A    between atoms: C_8  and  C_9
REMARK                            x       y       z     vdW  Elec       q    Type
REMARK                         _______ _______ _______ _____ _____    ______ ____
ROOT
ATOM      1  C   UNL     1      -3.627  -1.016   0.027  0.00  0.00    +0.115 C 
ATOM      2  C   UNL     1      -4.920  -0.252  -0.180  0.00  0.00    -0.003 C 
ATOM      3  C   UNL     1      -5.877  -0.371   0.779  0.00  0.00    -0.003 A 
ATOM      4  C   UNL     1      -7.153   0.336   0.654  0.00  0.00    +0.059 A 
ATOM      5  C   UNL     1      -8.088   0.196   1.630  0.00  0.00    +0.167 A 
ATOM      6  C   UNL     1      -7.851  -0.618   2.759  0.00  0.00    +0.168 A 
ATOM      7  C   UNL     1      -6.666  -1.304   2.922  0.00  0.00    +0.073 A 
ATOM      8  C   UNL     1      -5.647  -1.217   1.965  0.00  0.00    +0.044 A 
ATOM      9  N   UNL     1      -4.508  -1.889   2.143  0.00  0.00    -0.284 N 
ATOM     10  C   UNL     1      -3.507  -1.851   1.282  0.00  0.00    +0.226 C 
ATOM     11  O   UNL     1      -2.491  -2.485   1.499  0.00  0.00    -0.275 OA
ATOM     12  O   UNL     1      -8.954  -0.567   3.559  0.00  0.00    -0.453 OA
ATOM     13  C   UNL     1      -9.689   0.595   3.135  0.00  0.00    +0.466 C 
ATOM     14  O   UNL     1      -9.336   0.742   1.748  0.00  0.00    -0.453 OA
ATOM     15  H   UNL     1      -4.410  -2.431   2.942  0.00  0.00    +0.155 HD
ENDROOT
BRANCH   1  16
ATOM     16  C   UNL     1      -2.479  -0.006   0.023  0.00  0.00    +0.118 C 
BRANCH  16  17
ATOM     17  N   UNL     1      -1.200  -0.721   0.008  0.00  0.00    -0.343 N 
ATOM     18  H   UNL     1      -1.186  -1.690   0.003  0.00  0.00    +0.146 HD
BRANCH  17  24
ATOM     19  C   UNL     1      -0.017   1.384   0.010  0.00  0.00    +0.027 A 
ATOM     20  C   UNL     1       1.170   2.092   0.002  0.00  0.00    +0.051 A 
ATOM     21  C   UNL     1       2.382   1.419  -0.013  0.00  0.00    +0.162 A 
ATOM     22  C   UNL     1       2.405   0.029  -0.018  0.00  0.00    +0.164 A 
ATOM     23  C   UNL     1       1.214  -0.681  -0.012  0.00  0.00    +0.072 A 
ATOM     24  C   UNL     1       0.002  -0.004   0.002  0.00  0.00    +0.031 A 
ATOM     25  O   UNL     1       3.585  -0.648  -0.025  0.00  0.00    -0.485 OA
ATOM     26  C   UNL     1       4.750   0.091  -0.407  0.00  0.00    +0.270 C 
ATOM     27  C   UNL     1       4.735   1.431   0.340  0.00  0.00    +0.270 C 
ATOM     28  O   UNL     1       3.542   2.134  -0.024  0.00  0.00    -0.485 OA
ENDBRANCH  17  24
ENDBRANCH  16  17
ENDBRANCH   1  16
TORSDOF 3
