REMARK  Name = ZINC08782792
REMARK  6 active torsions:
REMARK  status: ('A' for Active; 'I' for Inactive)
REMARK    1  A    between atoms: C_3  and  C_6
REMARK    2  A    between atoms: C_8  and  C_31
REMARK    3  A    between atoms: C_13  and  C_15
REMARK    4  A    between atoms: C_15  and  O_17
REMARK    5  A    between atoms: O_17  and  C_18
REMARK    6  A    between atoms: C_18  and  C_19
REMARK                            x       y       z     vdW  Elec       q    Type
REMARK                         _______ _______ _______ _____ _____    ______ ____
ROOT
ATOM      1  C   UNL     1      -8.338  -0.613   3.575  0.00  0.00    +0.082 A 
ATOM      2  C   UNL     1      -8.170  -1.335   2.368  0.00  0.00    +0.061 A 
ATOM      3  C   UNL     1      -7.011  -1.223   1.686  0.00  0.00    +0.149 A 
ATOM      4  N   UNL     1      -6.020  -0.412   2.175  0.00  0.00    -0.208 N 
ATOM      5  C   UNL     1      -6.213   0.275   3.347  0.00  0.00    +0.176 A 
ATOM      6  N   UNL     1      -7.364   0.162   4.024  0.00  0.00    -0.226 NA
ATOM      7  C   UNL     1      -5.057   1.004   3.590  0.00  0.00    +0.119 A 
ATOM      8  C   UNL     1      -4.165   0.742   2.543  0.00  0.00    +0.190 A 
ATOM      9  N   UNL     1      -4.743  -0.098   1.696  0.00  0.00    -0.156 NA
ATOM     10 CL   UNL     1      -4.769   2.049   4.946  0.00  0.00    -0.077 Cl
ENDROOT
BRANCH   1  13
ATOM     11  C   UNL     1     -11.201  -0.376   6.033  0.00  0.00    +0.008 A 
ATOM     12  C   UNL     1      -9.957  -0.117   5.508  0.00  0.00    +0.017 A 
ATOM     13  C   UNL     1      -9.597  -0.725   4.332  0.00  0.00    +0.038 A 
ATOM     14  S   UNL     1     -11.056  -1.682   3.953  0.00  0.00    -0.095 S 
ATOM     15  C   UNL     1     -12.035  -1.224   5.373  0.00  0.00    +0.046 A 
ENDBRANCH   1  13
BRANCH   3  16
ATOM     16  C   UNL     1      -6.808  -1.981   0.399  0.00  0.00    +0.434 C 
ATOM     17  F   UNL     1      -6.248  -3.232   0.679  0.00  0.00    -0.164 F 
ATOM     18  F   UNL     1      -8.041  -2.155  -0.239  0.00  0.00    -0.164 F 
ATOM     19  F   UNL     1      -5.948  -1.261  -0.436  0.00  0.00    -0.164 F 
ENDBRANCH   3  16
BRANCH   8  20
ATOM     20  C   UNL     1      -2.810   1.312   2.402  0.00  0.00    +0.361 C 
ATOM     21  O   UNL     1      -2.384   2.080   3.241  0.00  0.00    -0.243 OA
BRANCH  20  22
ATOM     22  O   UNL     1      -2.047   0.980   1.343  0.00  0.00    -0.460 OA
BRANCH  22  23
ATOM     23  C   UNL     1      -0.726   1.578   1.269  0.00  0.00    +0.234 C 
BRANCH  23  24
ATOM     24  C   UNL     1      -0.013   1.086   0.008  0.00  0.00    +0.013 C 
ATOM     25  C   UNL     1      -0.761   1.591  -1.227  0.00  0.00    +0.003 C 
ATOM     26  C   UNL     1      -0.009   1.129  -2.479  0.00  0.00    -0.018 C 
ATOM     27  C   UNL     1       1.415   1.681  -2.431  0.00  0.00    -0.078 C 
ATOM     28  C   UNL     1       1.425   1.615  -0.003  0.00  0.00    -0.062 C 
ATOM     29  C   UNL     1       2.149   1.050   1.224  0.00  0.00    -0.015 C 
ATOM     30  C   UNL     1       3.605   1.517   1.229  0.00  0.00    -0.003 C 
ATOM     31  C   UNL     1       4.273   1.056  -0.071  0.00  0.00    -0.019 C 
ATOM     32  C   UNL     1       3.507   1.645  -1.255  0.00  0.00    -0.078 C 
ATOM     33  N   UNL     1       2.112   1.165  -1.240  0.00  0.00    +0.382 N 
ATOM     34  H   UNL     1       2.110   0.139  -1.267  0.00  0.00    -0.081 HD
ENDBRANCH  23  24
ENDBRANCH  22  23
ENDBRANCH  20  22
ENDBRANCH   8  20
TORSDOF 6
