REMARK  Name = ZINC20635861
REMARK  5 active torsions:
REMARK  status: ('A' for Active; 'I' for Inactive)
REMARK    1  A    between atoms: C_1  and  C_2
REMARK    2  A    between atoms: C_2  and  C_3
REMARK    3  A    between atoms: C_7  and  C_18
REMARK    4  A    between atoms: C_9  and  C_12
REMARK    5  A    between atoms: C_23  and  O_24
REMARK                            x       y       z     vdW  Elec       q    Type
REMARK                         _______ _______ _______ _____ _____    ______ ____
ROOT
ATOM      1  C   UNL     1      -0.018   1.503   0.010  0.00  0.00    +0.153 A 
ATOM      2  N   UNL     1      -1.113   2.252   0.019  0.00  0.00    -0.194 NA
ATOM      3  C   UNL     1      -0.776   3.538   0.027  0.00  0.00    +0.254 A 
ATOM      4  N   UNL     1      -1.504   4.659   0.039  0.00  0.00    -0.210 NA
ATOM      5  C   UNL     1      -0.925   5.849   0.039  0.00  0.00    +0.080 A 
ATOM      6  C   UNL     1       0.478   5.954   0.027  0.00  0.00    +0.057 A 
ATOM      7  C   UNL     1       1.229   4.810   0.015  0.00  0.00    +0.078 A 
ATOM      8  N   UNL     1       0.589   3.598   0.015  0.00  0.00    -0.196 N 
ATOM      9  N   UNL     1       1.043   2.273   0.004  0.00  0.00    -0.148 NA
ENDROOT
BRANCH   7  10
ATOM     10  C   UNL     1       2.705   4.880   0.001  0.00  0.00    +0.001 A 
ATOM     11  C   UNL     1       3.461   3.712  -0.111  0.00  0.00    +0.010 A 
ATOM     12  C   UNL     1       4.839   3.785  -0.129  0.00  0.00    +0.001 A 
ATOM     13  C   UNL     1       5.471   5.011  -0.024  0.00  0.00    +0.000 A 
ATOM     14  C   UNL     1       4.728   6.172   0.093  0.00  0.00    +0.001 A 
ATOM     15  C   UNL     1       3.350   6.114   0.106  0.00  0.00    +0.010 A 
ENDBRANCH   7  10
BRANCH   5  16
ATOM     16  C   UNL     1      -1.756   7.074   0.052  0.00  0.00    +0.042 A 
ATOM     17  C   UNL     1      -1.152   8.331   0.053  0.00  0.00    +0.013 A 
ATOM     18  C   UNL     1      -1.931   9.469   0.065  0.00  0.00    +0.001 A 
ATOM     19  C   UNL     1      -3.312   9.369   0.076  0.00  0.00    +0.004 A 
ATOM     20  C   UNL     1      -3.922   8.130   0.076  0.00  0.00    +0.046 A 
ATOM     21  C   UNL     1      -3.152   6.977   0.059  0.00  0.00    +0.126 A 
BRANCH  21  22
ATOM     22  O   UNL     1      -3.750   5.758   0.053  0.00  0.00    -0.506 OA
ATOM     23  H   UNL     1      -4.848   5.684   0.058  0.00  0.00    +0.292 HD
ENDBRANCH  21  22
ENDBRANCH   5  16
BRANCH   1  25
ATOM     24  C   UNL     1       0.023  -0.522   1.442  0.00  0.00    +0.012 C 
ATOM     25  C   UNL     1       0.002  -0.004   0.002  0.00  0.00    +0.075 C 
ENDBRANCH   1  25
TORSDOF 4
