REMARK  Name = ZINC03841818
REMARK  9 active torsions:
REMARK  status: ('A' for Active; 'I' for Inactive)
REMARK    1  A    between atoms: C_1  and  N_2
REMARK    2  A    between atoms: N_2  and  C_3
REMARK    3  A    between atoms: N_2  and  C_4
REMARK    4  A    between atoms: C_7  and  C_10
REMARK    5  A    between atoms: C_10  and  N_61
REMARK    6  A    between atoms: C_11  and  N_61
REMARK    7  A    between atoms: C_21  and  O_23
REMARK    8  A    between atoms: O_23  and  C_24
REMARK    9  A    between atoms: N_26  and  C_27
REMARK                            x       y       z     vdW  Elec       q    Type
REMARK                         _______ _______ _______ _____ _____    ______ ____
ROOT
ATOM      1  C   UNL     1      -0.097   0.259  -0.021  0.00  0.00    -0.013 C 
ATOM      2  C   UNL     1       1.393  -0.144  -0.067  0.00  0.00    +0.147 C 
ATOM      3  O   UNL     1       2.099   0.988   0.488  0.00  0.00    -0.372 OA
ATOM      4  C   UNL     1       1.440   2.148  -0.059  0.00  0.00    +0.188 C 
ATOM      5  C   UNL     1      -0.073   1.805  -0.000  0.00  0.00    +0.139 C 
ATOM      6  O   UNL     1      -0.547   2.252   1.273  0.00  0.00    -0.372 OA
ATOM      7  C   UNL     1       0.378   3.155   1.877  0.00  0.00    +0.207 C 
ATOM      8  C   UNL     1       1.574   3.326   0.925  0.00  0.00    +0.235 C 
ENDROOT
BRANCH   1   9
ATOM      9  N   UNL     1      -0.799  -0.223  -1.226  0.00  0.00    +0.387 N 
ATOM     10  H   UNL     1      -1.566   0.422  -1.452  0.00  0.00    -0.085 HD
ATOM     11  H   UNL     1      -0.138  -0.257  -2.012  0.00  0.00    -0.085 HD
BRANCH   9  12
ATOM     12  C   UNL     1      -1.349  -1.571  -0.994  0.00  0.00    -0.046 C 
BRANCH  12  16
ATOM     13  C   UNL     1      -3.362  -2.890  -4.526  0.00  0.00    +0.029 A 
ATOM     14  C   UNL     1      -2.011  -3.162  -4.352  0.00  0.00    +0.023 A 
ATOM     15  C   UNL     1      -1.364  -2.734  -3.210  0.00  0.00    +0.003 A 
ATOM     16  C   UNL     1      -2.059  -2.036  -2.239  0.00  0.00    -0.064 A 
ATOM     17  C   UNL     1      -3.405  -1.769  -2.407  0.00  0.00    +0.003 A 
ATOM     18  C   UNL     1      -4.058  -2.189  -3.549  0.00  0.00    +0.023 A 
BRANCH  13  20
ATOM     19  C   UNL     1      -3.263  -3.960  -6.760  0.00  0.00    +0.129 C 
ATOM     20  N   UNL     1      -4.020  -3.321  -5.680  0.00  0.00    -0.336 N 
ATOM     21  C   UNL     1      -5.467  -3.136  -5.811  0.00  0.00    +0.129 C 
ENDBRANCH  13  20
ENDBRANCH  12  16
ENDBRANCH   9  12
ENDBRANCH   1   9
BRANCH   8  22
ATOM     22  O   UNL     1       2.824   3.238   1.658  0.00  0.00    -0.442 OA
BRANCH  22  23
ATOM     23  C   UNL     1       3.384   4.397   2.054  0.00  0.00    +0.405 C 
ATOM     24  O   UNL     1       2.842   5.453   1.794  0.00  0.00    -0.226 OA
ATOM     25  N   UNL     1       4.545   4.385   2.738  0.00  0.00    -0.251 N 
ATOM     26  H   UNL     1       5.019   3.550   2.874  0.00  0.00    +0.158 HD
BRANCH  25  27
ATOM     27  C   UNL     1       5.065   5.575   3.251  0.00  0.00    +0.044 A 
ATOM     28  C   UNL     1       4.230   6.636   3.528  0.00  0.00    +0.024 A 
ATOM     29  C   UNL     1       4.737   7.824   4.046  0.00  0.00    +0.002 A 
ATOM     30  C   UNL     1       6.069   7.976   4.281  0.00  0.00    +0.008 A 
ATOM     31  C   UNL     1       6.955   6.921   4.006  0.00  0.00    -0.016 A 
ATOM     32  C   UNL     1       6.450   5.704   3.485  0.00  0.00    +0.003 A 
ATOM     33  C   UNL     1       7.336   4.651   3.211  0.00  0.00    +0.010 A 
ATOM     34  C   UNL     1       8.667   4.811   3.449  0.00  0.00    +0.001 A 
ATOM     35  C   UNL     1       9.165   6.007   3.962  0.00  0.00    +0.001 A 
ATOM     36  C   UNL     1       8.336   7.050   4.239  0.00  0.00    +0.008 A 
ENDBRANCH  25  27
ENDBRANCH  22  23
ENDBRANCH   8  22
TORSDOF 7
