REMARK  Name = ZINC20357255
REMARK  14 active torsions:
REMARK  status: ('A' for Active; 'I' for Inactive)
REMARK    1  A    between atoms: C_1  and  C_2
REMARK    2  A    between atoms: C_6  and  O_8
REMARK    3  A    between atoms: O_8  and  C_9
REMARK    4  A    between atoms: C_9  and  C_11
REMARK    5  A    between atoms: C_9  and  C_12
REMARK    6  A    between atoms: N_14  and  N_15
REMARK    7  A    between atoms: N_15  and  C_16
REMARK    8  A    between atoms: C_16  and  N_18
REMARK    9  A    between atoms: N_18  and  C_19
REMARK   10  A    between atoms: C_20  and  C_31
REMARK   11  A    between atoms: C_21  and  C_25
REMARK   12  A    between atoms: C_22  and  C_24
REMARK   13  A    between atoms: C_31  and  O_33
REMARK   14  A    between atoms: O_33  and  C_34
REMARK                            x       y       z     vdW  Elec       q    Type
REMARK                         _______ _______ _______ _____ _____    ______ ____
ROOT
ATOM      1  C   UNL     1      -5.013   9.069  -1.177  0.00  0.00    +0.151 C 
ATOM      2  S   UNL     1      -6.428   9.754  -1.854  0.00  0.00    -0.017 S 
ENDROOT
BRANCH   1   3
ATOM      3  N   UNL     1      -4.891   7.730  -1.083  0.00  0.00    -0.245 N 
ATOM      4  H   UNL     1      -5.701   7.078  -1.441  0.00  0.00    +0.172 HD
BRANCH   3   7
ATOM      5  C   UNL     1      -3.611   5.830  -0.435  0.00  0.00    +0.270 C 
ATOM      6  O   UNL     1      -4.503   5.111  -0.831  0.00  0.00    -0.270 OA
ATOM      7  N   UNL     1      -3.733   7.169  -0.529  0.00  0.00    -0.232 N 
ATOM      8  H   UNL     1      -2.923   7.822  -0.171  0.00  0.00    +0.173 HD
BRANCH   5   9
ATOM      9  C   UNL     1      -2.365   5.227   0.161  0.00  0.00    +0.257 C 
ATOM     10  C   UNL     1      -2.267   5.614   1.637  0.00  0.00    +0.062 C 
BRANCH   9  11
ATOM     11  O   UNL     1      -2.422   3.804   0.044  0.00  0.00    -0.478 OA
BRANCH  11  17
ATOM     12  C   UNL     1       2.441   3.894   0.454  0.00  0.00    +0.044 C 
ATOM     13  C   UNL     1       1.152   3.147   0.226  0.00  0.00    -0.047 A 
ATOM     14  C   UNL     1       1.175   1.783   0.001  0.00  0.00    +0.005 A 
ATOM     15  C   UNL     1      -0.005   1.094  -0.210  0.00  0.00    +0.024 A 
ATOM     16  C   UNL     1      -1.211   1.770  -0.201  0.00  0.00    +0.083 A 
ATOM     17  C   UNL     1      -1.237   3.138   0.030  0.00  0.00    +0.140 A 
ATOM     18  C   UNL     1      -0.051   3.826   0.241  0.00  0.00    +0.050 A 
ATOM     19 CL   UNL     1      -2.692   0.906  -0.473  0.00  0.00    -0.080 Cl
ENDBRANCH  11  17
ENDBRANCH   9  11
ENDBRANCH   5   9
ENDBRANCH   3   7
ENDBRANCH   1   3
BRANCH   1  20
ATOM     20  N   UNL     1      -4.021   9.869  -0.738  0.00  0.00    -0.290 N 
ATOM     21  H   UNL     1      -3.112   9.428  -0.303  0.00  0.00    +0.154 HD
BRANCH  20  22
ATOM     22  C   UNL     1      -4.146  11.244  -0.834  0.00  0.00    +0.086 A 
ATOM     23  C   UNL     1      -3.243  12.220  -0.435  0.00  0.00    +0.095 A 
ATOM     24  C   UNL     1      -3.631  13.600  -0.660  0.00  0.00    +0.008 A 
ATOM     25  C   UNL     1      -4.846  13.807  -1.230  0.00  0.00    -0.003 A 
ATOM     26  S   UNL     1      -5.470  12.158  -1.474  0.00  0.00    -0.077 S 
ATOM     27  C   UNL     1      -5.506  15.117  -1.573  0.00  0.00    +0.052 C 
BRANCH  24  28
ATOM     28  C   UNL     1      -2.748  14.729  -0.281  0.00  0.00    -0.016 A 
ATOM     29  C   UNL     1      -1.520  14.900  -0.917  0.00  0.00    +0.008 A 
ATOM     30  C   UNL     1      -0.703  15.955  -0.563  0.00  0.00    +0.001 A 
ATOM     31  C   UNL     1      -1.097  16.835   0.429  0.00  0.00    +0.000 A 
ATOM     32  C   UNL     1      -2.313  16.667   1.068  0.00  0.00    +0.001 A 
ATOM     33  C   UNL     1      -3.140  15.619   0.718  0.00  0.00    +0.008 A 
ENDBRANCH  24  28
BRANCH  23  34
ATOM     34  C   UNL     1      -1.961  11.875   0.179  0.00  0.00    +0.342 C 
ATOM     35  O   UNL     1      -0.979  11.705  -0.518  0.00  0.00    -0.245 OA
BRANCH  34  36
ATOM     36  O   UNL     1      -1.868  11.744   1.518  0.00  0.00    -0.464 OA
ATOM     37  C   UNL     1      -0.586  11.404   2.050  0.00  0.00    +0.280 C 
ENDBRANCH  34  36
ENDBRANCH  23  34
ENDBRANCH  20  22
ENDBRANCH   1  20
TORSDOF 10
