REMARK  Name = ZINC13131498
REMARK  4 active torsions:
REMARK  status: ('A' for Active; 'I' for Inactive)
REMARK    1  A    between atoms: C_1  and  O_2
REMARK    2  A    between atoms: O_2  and  C_3
REMARK    3  A    between atoms: C_6  and  C_9
REMARK    4  A    between atoms: C_12  and  C_21
REMARK                            x       y       z     vdW  Elec       q    Type
REMARK                         _______ _______ _______ _____ _____    ______ ____
ROOT
ATOM      1  C   UNL     1       2.505  -2.503  -4.381  0.00  0.00    +0.106 C 
ATOM      2  C   UNL     1       1.442  -2.971  -5.383  0.00  0.00    +0.059 C 
ATOM      3  C   UNL     1       2.123  -3.603  -6.603  0.00  0.00    +0.149 C 
ATOM      4  N   UNL     1       3.114  -4.574  -6.140  0.00  0.00    -0.223 N 
ATOM      5  C   UNL     1       3.632  -4.599  -4.888  0.00  0.00    +0.216 A 
ATOM      6  N   UNL     1       4.480  -5.590  -4.818  0.00  0.00    -0.180 NA
ATOM      7  C   UNL     1       4.532  -6.218  -6.002  0.00  0.00    +0.233 A 
ATOM      8  N   UNL     1       3.710  -5.625  -6.838  0.00  0.00    -0.132 NA
ATOM      9  N   UNL     1       5.330  -7.324  -6.297  0.00  0.00    -0.326 N 
ATOM     10  N   UNL     1       3.266  -3.678  -3.914  0.00  0.00    -0.307 N 
ATOM     11  H   UNL     1       5.910  -7.700  -5.617  0.00  0.00    +0.145 HD
ATOM     12  H   UNL     1       5.306  -7.717  -7.184  0.00  0.00    +0.145 HD
ATOM     13  H   UNL     1       3.494  -3.802  -2.979  0.00  0.00    +0.149 HD
ENDROOT
BRANCH   1  17
ATOM     14  C   UNL     1       0.606  -0.607  -1.056  0.00  0.00    +0.120 A 
ATOM     15  C   UNL     1       1.173   0.161  -2.062  0.00  0.00    +0.046 A 
ATOM     16  C   UNL     1       1.786  -0.455  -3.136  0.00  0.00    +0.009 A 
ATOM     17  C   UNL     1       1.835  -1.835  -3.209  0.00  0.00    -0.027 A 
ATOM     18  C   UNL     1       1.270  -2.602  -2.207  0.00  0.00    +0.009 A 
ATOM     19  C   UNL     1       0.661  -1.992  -1.128  0.00  0.00    +0.046 A 
BRANCH  14  21
ATOM     20  C   UNL     1      -0.017   1.425   0.010  0.00  0.00    +0.277 C 
ATOM     21  O   UNL     1       0.002  -0.004   0.002  0.00  0.00    -0.495 OA
ENDBRANCH  14  21
ENDBRANCH   1  17
BRANCH   3  22
ATOM     22  C   UNL     1       1.091  -4.297  -7.454  0.00  0.00    +0.014 A 
ATOM     23  C   UNL     1       0.757  -4.068  -8.747  0.00  0.00    +0.013 A 
ATOM     24  C   UNL     1      -0.232  -4.838  -9.331  0.00  0.00    +0.008 A 
ATOM     25  C   UNL     1      -0.838  -5.799  -8.592  0.00  0.00    +0.045 A 
ATOM     26  S   UNL     1      -0.003  -5.640  -7.022  0.00  0.00    -0.099 S 
ENDBRANCH   3  22
TORSDOF 3
