REMARK  Name = ZINC36698377
REMARK  10 active torsions:
REMARK  status: ('A' for Active; 'I' for Inactive)
REMARK    1  A    between atoms: C_1  and  C_2
REMARK    2  A    between atoms: C_5  and  S_8
REMARK    3  A    between atoms: S_8  and  N_11
REMARK    4  A    between atoms: N_11  and  C_12
REMARK    5  A    between atoms: C_17  and  C_18
REMARK    6  A    between atoms: C_18  and  N_20
REMARK    7  A    between atoms: N_22  and  C_32
REMARK    8  A    between atoms: C_25  and  C_31
REMARK    9  A    between atoms: C_26  and  C_30
REMARK   10  A    between atoms: C_32  and  C_33
REMARK                            x       y       z     vdW  Elec       q    Type
REMARK                         _______ _______ _______ _____ _____    ______ ____
ROOT
ATOM      1  C   UNL     1       2.493  -4.625   1.006  0.00  0.00    +0.060 A 
ATOM      2  C   UNL     1       2.034  -4.641   2.317  0.00  0.00    +0.025 A 
ATOM      3  C   UNL     1       2.872  -4.268   3.348  0.00  0.00    +0.002 A 
ATOM      4  C   UNL     1       4.175  -3.876   3.085  0.00  0.00    +0.001 A 
ATOM      5  C   UNL     1       4.647  -3.854   1.791  0.00  0.00    +0.015 A 
ATOM      6  C   UNL     1       3.813  -4.233   0.738  0.00  0.00    +0.061 A 
ENDROOT
BRANCH   1   7
ATOM      7  N   UNL     1       1.651  -4.999  -0.034  0.00  0.00    -0.216 N 
ATOM      8  H   UNL     1       2.007  -5.479  -0.798  0.00  0.00    +0.174 HD
BRANCH   7   9
ATOM      9  S   UNL     1       0.038  -4.628   0.031  0.00  0.00    +0.072 S 
ATOM     10  O   UNL     1      -0.444  -5.128   1.271  0.00  0.00    -0.150 OA
ATOM     11  O   UNL     1      -0.519  -5.017  -1.216  0.00  0.00    -0.150 OA
BRANCH   9  16
ATOM     12  C   UNL     1      -0.400   1.383   0.313  0.00  0.00    +0.044 C 
ATOM     13  C   UNL     1      -0.290  -0.118   0.242  0.00  0.00    -0.050 A 
ATOM     14  C   UNL     1      -0.275  -0.753  -0.985  0.00  0.00    +0.005 A 
ATOM     15  C   UNL     1      -0.175  -2.130  -1.050  0.00  0.00    +0.029 A 
ATOM     16  C   UNL     1      -0.089  -2.872   0.113  0.00  0.00    +0.109 A 
ATOM     17  C   UNL     1      -0.103  -2.237   1.341  0.00  0.00    +0.029 A 
ATOM     18  C   UNL     1      -0.199  -0.859   1.405  0.00  0.00    +0.005 A 
ENDBRANCH   9  16
ENDBRANCH   7   9
ENDBRANCH   1   7
BRANCH   6  19
ATOM     19  C   UNL     1       4.316  -4.217  -0.652  0.00  0.00    +0.271 C 
ATOM     20  O   UNL     1       3.582  -4.544  -1.569  0.00  0.00    -0.268 OA
BRANCH  19  21
ATOM     21  N   UNL     1       5.575  -3.843  -0.903  0.00  0.00    -0.152 NA
ATOM     22  C   UNL     1       6.027  -3.828  -2.152  0.00  0.00    +0.167 A 
ATOM     23  N   UNL     1       7.268  -3.485  -2.586  0.00  0.00    -0.317 N 
ATOM     24  C   UNL     1       7.561  -3.531  -3.936  0.00  0.00    +0.058 A 
ATOM     25  C   UNL     1       8.761  -3.223  -4.592  0.00  0.00    +0.030 A 
ATOM     26  C   UNL     1       8.859  -3.331  -5.960  0.00  0.00    -0.046 A 
ATOM     27  C   UNL     1       7.781  -3.745  -6.725  0.00  0.00    -0.046 A 
ATOM     28  C   UNL     1       6.586  -4.055  -6.101  0.00  0.00    +0.020 A 
ATOM     29  C   UNL     1       6.487  -3.947  -4.734  0.00  0.00    +0.039 A 
ATOM     30  S   UNL     1       5.195  -4.237  -3.554  0.00  0.00    -0.052 S 
ATOM     31  C   UNL     1       7.910  -3.856  -8.223  0.00  0.00    +0.044 C 
ATOM     32  C   UNL     1      10.162  -2.993  -6.637  0.00  0.00    +0.044 C 
BRANCH  23  33
ATOM     33  C   UNL     1       8.292  -3.067  -1.625  0.00  0.00    +0.151 C 
BRANCH  33  34
ATOM     34  C   UNL     1       9.065  -4.274  -1.158  0.00  0.00    -0.013 C 
ATOM     35  C   UNL     1      10.370  -4.299  -1.270  0.00  0.00    +0.005 C 
ENDBRANCH  33  34
ENDBRANCH  23  33
ENDBRANCH  19  21
ENDBRANCH   6  19
TORSDOF 7
