REMARK  Name = ZINC39606014
REMARK  13 active torsions:
REMARK  status: ('A' for Active; 'I' for Inactive)
REMARK    1  A    between atoms: C_1  and  C_2
REMARK    2  A    between atoms: C_2  and  C_3
REMARK    3  A    between atoms: C_3  and  C_5
REMARK    4  A    between atoms: C_3  and  C_6
REMARK    5  A    between atoms: C_6  and  N_7
REMARK    6  A    between atoms: C_8  and  C_10
REMARK    7  A    between atoms: C_21  and  C_23
REMARK    8  A    between atoms: C_25  and  O_33
REMARK    9  A    between atoms: C_26  and  O_31
REMARK   10  A    between atoms: C_27  and  O_29
REMARK   11  A    between atoms: O_29  and  C_30
REMARK   12  A    between atoms: O_31  and  C_32
REMARK   13  A    between atoms: O_33  and  C_34
REMARK                            x       y       z     vdW  Elec       q    Type
REMARK                         _______ _______ _______ _____ _____    ______ ____
ROOT
ATOM      1  C   UNL     1      -4.094  -4.450   0.121  0.00  0.00    +0.100 C 
ATOM      2  C   UNL     1      -5.124  -4.166   1.238  0.00  0.00    +0.121 C 
ATOM      3  N   UNL     1      -5.974  -5.380   1.280  0.00  0.00    -0.296 N 
ATOM      4  C   UNL     1      -5.025  -6.501   1.080  0.00  0.00    +0.115 C 
ATOM      5  C   UNL     1      -4.032  -5.983   0.021  0.00  0.00    -0.004 C 
ATOM      6  C   UNL     1      -2.622  -6.476   0.335  0.00  0.00    -0.010 C 
ATOM      7  C   UNL     1      -2.571  -7.998   0.173  0.00  0.00    -0.082 C 
ATOM      8  N   UNL     1      -2.942  -8.358  -1.201  0.00  0.00    +0.379 N 
ATOM      9  C   UNL     1      -4.331  -7.963  -1.464  0.00  0.00    -0.082 C 
ATOM     10  C   UNL     1      -4.457  -6.440  -1.371  0.00  0.00    -0.010 C 
ATOM     11  C   UNL     1      -7.308  -5.448   1.459  0.00  0.00    +0.247 C 
ATOM     12  O   UNL     1      -7.971  -4.429   1.481  0.00  0.00    -0.270 OA
ATOM     13  H   UNL     1      -2.330  -7.884  -1.849  0.00  0.00    -0.086 HD
ATOM     14  H   UNL     1      -2.848  -9.355  -1.323  0.00  0.00    -0.086 HD
ENDROOT
BRANCH  11  15
ATOM     15  C   UNL     1      -7.964  -6.759   1.627  0.00  0.00    +0.044 A 
ATOM     16  C   UNL     1      -7.218  -7.867   2.038  0.00  0.00    +0.062 A 
ATOM     17  C   UNL     1      -7.835  -9.094   2.196  0.00  0.00    +0.166 A 
ATOM     18  C   UNL     1      -9.198  -9.226   1.945  0.00  0.00    +0.204 A 
ATOM     19  C   UNL     1      -9.944  -8.124   1.535  0.00  0.00    +0.166 A 
ATOM     20  C   UNL     1      -9.333  -6.894   1.382  0.00  0.00    +0.062 A 
BRANCH  19  21
ATOM     21  O   UNL     1     -11.275  -8.257   1.291  0.00  0.00    -0.491 OA
ATOM     22  C   UNL     1     -11.978  -7.085   0.873  0.00  0.00    +0.277 C 
ENDBRANCH  19  21
BRANCH  18  23
ATOM     23  O   UNL     1      -9.802 -10.434   2.100  0.00  0.00    -0.488 OA
ATOM     24  C   UNL     1     -10.341 -10.729   3.390  0.00  0.00    +0.277 C 
ENDBRANCH  18  23
BRANCH  17  25
ATOM     25  O   UNL     1      -7.110 -10.173   2.595  0.00  0.00    -0.491 OA
ATOM     26  C   UNL     1      -5.716  -9.965   2.834  0.00  0.00    +0.277 C 
ENDBRANCH  17  25
ENDBRANCH  11  15
BRANCH   1  28
ATOM     27  N   UNL     1      -1.897  -3.475  -0.462  0.00  0.00    -0.315 N 
ATOM     28  C   UNL     1      -2.745  -3.893   0.498  0.00  0.00    +0.218 C 
ATOM     29  O   UNL     1      -2.423  -3.822   1.665  0.00  0.00    -0.275 OA
ATOM     30  H   UNL     1      -2.155  -3.532  -1.395  0.00  0.00    +0.149 HD
BRANCH  27  31
ATOM     31  C   UNL     1      -0.586  -2.934  -0.096  0.00  0.00    +0.107 C 
BRANCH  31  32
ATOM     32  C   UNL     1       0.174  -2.536  -1.363  0.00  0.00    +0.003 C 
ATOM     33  C   UNL     1      -0.559  -1.386  -2.057  0.00  0.00    +0.009 C 
BRANCH  32  35
ATOM     34  C   UNL     1       2.388  -1.809  -2.265  0.00  0.00    +0.004 C 
ATOM     35  C   UNL     1       1.589  -2.088  -0.990  0.00  0.00    +0.001 C 
ENDBRANCH  32  35
ENDBRANCH  31  32
ENDBRANCH  27  31
ENDBRANCH   1  28
TORSDOF 8
