REMARK  Name = ZINC35640795
REMARK  10 active torsions:
REMARK  status: ('A' for Active; 'I' for Inactive)
REMARK    1  A    between atoms: C_1  and  C_2
REMARK    2  A    between atoms: C_2  and  N_3
REMARK    3  A    between atoms: C_4  and  C_26
REMARK    4  A    between atoms: C_5  and  C_21
REMARK    5  A    between atoms: C_6  and  C_11
REMARK    6  A    between atoms: C_14  and  C_17
REMARK    7  A    between atoms: C_21  and  O_23
REMARK    8  A    between atoms: O_23  and  C_24
REMARK    9  A    between atoms: C_24  and  C_25
REMARK   10  A    between atoms: C_26  and  N_27
REMARK                            x       y       z     vdW  Elec       q    Type
REMARK                         _______ _______ _______ _____ _____    ______ ____
ROOT
ATOM      1  N   UNL     1       0.533  -0.755   1.251  0.00  0.00    -0.258 N 
ATOM      2  C   UNL     1       1.879  -0.764   1.023  0.00  0.00    +0.041 C 
ATOM      3  C   UNL     1       2.756  -0.961   2.032  0.00  0.00    +0.080 C 
ATOM      4  C   UNL     1       2.194  -1.171   3.423  0.00  0.00    +0.144 C 
ATOM      5  N   UNL     1       0.728  -1.143   3.562  0.00  0.00    -0.288 N 
ATOM      6  C   UNL     1      -0.017  -0.931   2.459  0.00  0.00    +0.307 C 
ATOM      7  O   UNL     1      -1.228  -0.902   2.564  0.00  0.00    -0.252 OA
ATOM      8  H   UNL     1       0.309  -1.272   4.427  0.00  0.00    +0.151 HD
ENDROOT
BRANCH   4   9
ATOM      9  C   UNL     1       2.765  -0.105   4.321  0.00  0.00    -0.022 A 
ATOM     10  C   UNL     1       2.222   1.167   4.317  0.00  0.00    +0.006 A 
ATOM     11  C   UNL     1       2.747   2.145   5.140  0.00  0.00    +0.013 A 
ATOM     12  C   UNL     1       3.814   1.852   5.969  0.00  0.00    +0.055 A 
ATOM     13  C   UNL     1       4.356   0.581   5.974  0.00  0.00    +0.013 A 
ATOM     14  C   UNL     1       3.829  -0.399   5.154  0.00  0.00    +0.006 A 
BRANCH  12  15
ATOM     15  C   UNL     1       4.386   2.919   6.866  0.00  0.00    +0.417 C 
ATOM     16  F   UNL     1       3.724   2.896   8.099  0.00  0.00    -0.166 F 
ATOM     17  F   UNL     1       5.750   2.680   7.064  0.00  0.00    -0.166 F 
ATOM     18  F   UNL     1       4.214   4.173   6.269  0.00  0.00    -0.166 F 
ENDBRANCH  12  15
ENDBRANCH   4   9
BRANCH   1  20
ATOM     19  C   UNL     1      -0.617   0.964  -0.055  0.00  0.00    +0.025 C 
ATOM     20  C   UNL     1      -0.360  -0.536   0.111  0.00  0.00    +0.111 C 
ENDBRANCH   1  20
BRANCH   3  21
ATOM     21  C   UNL     1       4.151  -0.972   1.797  0.00  0.00    +0.339 C 
ATOM     22  O   UNL     1       4.584  -0.701   0.693  0.00  0.00    -0.245 OA
BRANCH  21  23
ATOM     23  O   UNL     1       5.001  -1.281   2.798  0.00  0.00    -0.462 OA
BRANCH  23  24
ATOM     24  C   UNL     1       6.396  -1.272   2.490  0.00  0.00    +0.229 C 
ATOM     25  C   UNL     1       7.197  -1.645   3.740  0.00  0.00    +0.048 C 
ENDBRANCH  23  24
ENDBRANCH  21  23
ENDBRANCH   3  21
BRANCH   2  26
ATOM     26  C   UNL     1       2.396  -0.551  -0.376  0.00  0.00    +0.136 C 
BRANCH  26  27
ATOM     27  N   UNL     1       2.801  -1.841  -0.951  0.00  0.00    -0.299 NA
ATOM     28  C   UNL     1       1.678  -2.743  -1.038  0.00  0.00    +0.083 C 
ATOM     29  C   UNL     1       2.059  -4.208  -0.746  0.00  0.00    -0.004 C 
ATOM     30  C   UNL     1       3.398  -4.601  -1.400  0.00  0.00    -0.081 C 
ATOM     31  N   UNL     1       3.523  -4.063  -2.734  0.00  0.00    +0.380 N 
ATOM     32  C   UNL     1       4.268  -2.792  -2.648  0.00  0.00    -0.067 C 
ATOM     33  C   UNL     1       3.422  -1.657  -2.286  0.00  0.00    +0.066 C 
ATOM     34  H   UNL     1       4.027  -4.714  -3.318  0.00  0.00    -0.086 HD
ATOM     35  H   UNL     1       2.607  -3.896  -3.121  0.00  0.00    -0.086 HD
ENDBRANCH  26  27
ENDBRANCH   2  26
TORSDOF 8
