REMARK  Name = ZINC02717881
REMARK  8 active torsions:
REMARK  status: ('A' for Active; 'I' for Inactive)
REMARK    1  A    between atoms: C_1  and  C_2
REMARK    2  A    between atoms: C_5  and  N_8
REMARK    3  A    between atoms: C_16  and  S_18
REMARK    4  A    between atoms: S_18  and  C_19
REMARK    5  A    between atoms: C_19  and  C_20
REMARK    6  A    between atoms: N_22  and  C_23
REMARK    7  A    between atoms: C_26  and  O_29
REMARK    8  A    between atoms: O_29  and  C_30
REMARK                            x       y       z     vdW  Elec       q    Type
REMARK                         _______ _______ _______ _____ _____    ______ ____
ROOT
ATOM      1  N   UNL     1       0.041  -4.173  -0.009  0.00  0.00    -0.216 N 
ATOM      2  C   UNL     1       0.682  -4.963   0.885  0.00  0.00    +0.149 A 
ATOM      3  C   UNL     1       0.432  -6.284   0.513  0.00  0.00    +0.103 A 
ATOM      4  C   UNL     1      -0.383  -6.247  -0.635  0.00  0.00    +0.150 A 
ATOM      5  N   UNL     1      -0.613  -4.997  -0.934  0.00  0.00    -0.172 NA
ATOM      6  C   UNL     1       1.018  -7.357   1.325  0.00  0.00    +0.285 A 
ATOM      7  O   UNL     1       0.829  -8.529   1.040  0.00  0.00    -0.265 OA
ATOM      8  N   UNL     1       1.768  -7.022   2.386  0.00  0.00    -0.185 NA
ATOM      9  C   UNL     1       1.981  -5.762   2.704  0.00  0.00    +0.172 A 
ATOM     10  N   UNL     1       1.464  -4.727   1.990  0.00  0.00    -0.319 N 
ATOM     11  H   UNL     1       1.648  -3.815   2.262  0.00  0.00    +0.169 HD
ENDROOT
BRANCH   1  16
ATOM     12  C   UNL     1      -0.011   1.502   0.004  0.00  0.00    +0.044 C 
ATOM     13  C   UNL     1       0.003  -0.005   0.001  0.00  0.00    -0.050 A 
ATOM     14  C   UNL     1      -0.003  -0.692  -1.199  0.00  0.00    +0.005 A 
ATOM     15  C   UNL     1       0.010  -2.073  -1.206  0.00  0.00    +0.028 A 
ATOM     16  C   UNL     1       0.029  -2.772  -0.006  0.00  0.00    +0.068 A 
ATOM     17  C   UNL     1       0.034  -2.079   1.197  0.00  0.00    +0.028 A 
ATOM     18  C   UNL     1       0.026  -0.698   1.197  0.00  0.00    +0.005 A 
ENDBRANCH   1  16
BRANCH   9  19
ATOM     19  S   UNL     1       2.977  -5.403   4.113  0.00  0.00    -0.078 S 
BRANCH  19  20
ATOM     20  C   UNL     1       3.444  -7.037   4.748  0.00  0.00    +0.173 C 
BRANCH  20  21
ATOM     21  C   UNL     1       4.309  -6.872   5.970  0.00  0.00    +0.227 C 
ATOM     22  O   UNL     1       4.584  -5.761   6.373  0.00  0.00    -0.275 OA
ATOM     23  N   UNL     1       4.778  -7.958   6.616  0.00  0.00    -0.285 N 
ATOM     24  H   UNL     1       4.504  -8.845   6.335  0.00  0.00    +0.155 HD
BRANCH  23  25
ATOM     25  C   UNL     1       5.661  -7.806   7.693  0.00  0.00    +0.034 A 
ATOM     26  C   UNL     1       6.675  -8.732   7.896  0.00  0.00    +0.027 A 
ATOM     27  C   UNL     1       7.545  -8.582   8.958  0.00  0.00    +0.048 A 
ATOM     28  C   UNL     1       7.405  -7.506   9.822  0.00  0.00    +0.130 A 
ATOM     29  C   UNL     1       6.392  -6.580   9.620  0.00  0.00    +0.048 A 
ATOM     30  C   UNL     1       5.525  -6.726   8.555  0.00  0.00    +0.027 A 
BRANCH  28  31
ATOM     31  O   UNL     1       8.262  -7.359  10.868  0.00  0.00    -0.406 OA
BRANCH  31  32
ATOM     32  C   UNL     1       8.060  -6.228  11.717  0.00  0.00    +0.575 C 
ATOM     33  F   UNL     1       6.783  -6.293  12.284  0.00  0.00    -0.133 F 
ATOM     34  F   UNL     1       9.022  -6.230  12.733  0.00  0.00    -0.133 F 
ATOM     35  F   UNL     1       8.178  -5.053  10.967  0.00  0.00    -0.133 F 
ENDBRANCH  31  32
ENDBRANCH  28  31
ENDBRANCH  23  25
ENDBRANCH  20  21
ENDBRANCH  19  20
ENDBRANCH   9  19
TORSDOF 7
