REMARK  Name = ZINC39527010
REMARK  7 active torsions:
REMARK  status: ('A' for Active; 'I' for Inactive)
REMARK    1  A    between atoms: C_4  and  O_7
REMARK    2  A    between atoms: O_7  and  S_8
REMARK    3  A    between atoms: S_8  and  N_11
REMARK    4  A    between atoms: C_12  and  C_31
REMARK    5  A    between atoms: C_21  and  C_24
REMARK    6  A    between atoms: C_29  and  O_30
REMARK    7  A    between atoms: C_36  and  O_37
REMARK                            x       y       z     vdW  Elec       q    Type
REMARK                         _______ _______ _______ _____ _____    ______ ____
ROOT
ATOM      1  N   UNL     1       3.304  -2.146   1.867  0.00  0.00    -0.134 NA
ATOM      2  C   UNL     1       2.152  -1.946   2.758  0.00  0.00    +0.117 C 
ATOM      3  C   UNL     1       2.502  -2.495   4.145  0.00  0.00    +0.026 C 
ATOM      4  C   UNL     1       2.949  -3.953   4.015  0.00  0.00    +0.004 C 
ATOM      5  C   UNL     1       4.201  -4.028   3.137  0.00  0.00    +0.024 C 
ATOM      6  C   UNL     1       3.868  -3.495   1.736  0.00  0.00    +0.047 C 
ATOM      7  C   UNL     1       2.846  -4.412   1.063  0.00  0.00    +0.024 C 
ATOM      8  C   UNL     1       2.511  -3.868  -0.328  0.00  0.00    +0.002 C 
ATOM      9  C   UNL     1       3.785  -3.812  -1.174  0.00  0.00    +0.008 C 
ATOM     10  C   UNL     1       4.805  -2.892  -0.500  0.00  0.00    +0.024 C 
ATOM     11  C   UNL     1       5.141  -3.435   0.891  0.00  0.00    +0.032 C 
ENDROOT
BRANCH  10  12
ATOM     12  C   UNL     1       6.059  -2.837  -1.334  0.00  0.00    -0.003 A 
ATOM     13  C   UNL     1       6.768  -3.995  -1.595  0.00  0.00    +0.007 A 
ATOM     14  C   UNL     1       7.918  -3.945  -2.359  0.00  0.00    +0.001 A 
ATOM     15  C   UNL     1       8.363  -2.737  -2.865  0.00  0.00    +0.004 A 
ATOM     16  C   UNL     1       7.659  -1.577  -2.607  0.00  0.00    +0.046 A 
ATOM     17  C   UNL     1       6.501  -1.626  -1.844  0.00  0.00    +0.120 A 
BRANCH  17  18
ATOM     18  O   UNL     1       5.803  -0.487  -1.594  0.00  0.00    -0.506 OA
ATOM     19  H   UNL     1       6.080  -0.024  -0.791  0.00  0.00    +0.292 HD
ENDBRANCH  17  18
ENDBRANCH  10  12
BRANCH   2  20
ATOM     20  C   UNL     1       1.840  -0.475   2.857  0.00  0.00    +0.013 A 
ATOM     21  C   UNL     1       0.733   0.042   2.213  0.00  0.00    +0.009 A 
ATOM     22  C   UNL     1       0.446   1.391   2.303  0.00  0.00    +0.001 A 
ATOM     23  C   UNL     1       1.266   2.227   3.039  0.00  0.00    +0.004 A 
ATOM     24  C   UNL     1       2.373   1.715   3.686  0.00  0.00    +0.046 A 
ATOM     25  C   UNL     1       2.661   0.360   3.601  0.00  0.00    +0.122 A 
BRANCH  25  26
ATOM     26  O   UNL     1       3.747  -0.147   4.241  0.00  0.00    -0.506 OA
ATOM     27  H   UNL     1       4.571  -0.068   3.740  0.00  0.00    +0.292 HD
ENDBRANCH  25  26
ENDBRANCH   2  20
BRANCH   1  28
ATOM     28  S   UNL     1       3.947  -0.876   1.021  0.00  0.00    +0.195 S 
ATOM     29  O   UNL     1       5.312  -1.193   0.788  0.00  0.00    -0.119 OA
ATOM     30  O   UNL     1       3.545   0.308   1.697  0.00  0.00    -0.119 OA
BRANCH  28  31
ATOM     31  O   UNL     1       3.268  -0.851  -0.340  0.00  0.00    -0.333 OA
BRANCH  31  35
ATOM     32  C   UNL     1      -0.176   1.419  -0.458  0.00  0.00    +0.000 A 
ATOM     33  C   UNL     1       1.060   2.037  -0.506  0.00  0.00    +0.004 A 
ATOM     34  C   UNL     1       2.215   1.279  -0.467  0.00  0.00    +0.048 A 
ATOM     35  C   UNL     1       2.133  -0.103  -0.379  0.00  0.00    +0.158 A 
ATOM     36  C   UNL     1       0.892  -0.721  -0.330  0.00  0.00    +0.048 A 
ATOM     37  C   UNL     1      -0.259   0.041  -0.370  0.00  0.00    +0.004 A 
ENDBRANCH  31  35
ENDBRANCH  28  31
ENDBRANCH   1  28
TORSDOF 7
