REMARK  Name = ZINC20690187
REMARK  7 active torsions:
REMARK  status: ('A' for Active; 'I' for Inactive)
REMARK    1  A    between atoms: C_1  and  O_2
REMARK    2  A    between atoms: O_2  and  C_3
REMARK    3  A    between atoms: C_6  and  C_10
REMARK    4  A    between atoms: C_8  and  O_9
REMARK    5  A    between atoms: C_20  and  N_28
REMARK    6  A    between atoms: C_23  and  O_26
REMARK    7  A    between atoms: O_26  and  C_27
REMARK                            x       y       z     vdW  Elec       q    Type
REMARK                         _______ _______ _______ _____ _____    ______ ____
ROOT
ATOM      1  C   UNL     1      -0.028   4.093   0.860  0.00  0.00    +0.105 C 
ATOM      2  C   UNL     1      -1.224   3.717   0.010  0.00  0.00    +0.029 C 
ATOM      3  C   UNL     1      -2.560   4.408   0.307  0.00  0.00    +0.033 C 
ATOM      4  C   UNL     1      -3.561   3.331  -0.117  0.00  0.00    -0.030 C 
ATOM      5  C   UNL     1      -3.003   2.129  -0.019  0.00  0.00    -0.023 C 
ATOM      6  C   UNL     1      -1.624   2.292   0.503  0.00  0.00    +0.051 C 
ATOM      7  C   UNL     1      -0.516   1.384   0.135  0.00  0.00    +0.014 A 
ATOM      8  C   UNL     1      -0.739   0.063  -0.199  0.00  0.00    +0.132 A 
ATOM      9  C   UNL     1       0.317  -0.774  -0.499  0.00  0.00    +0.037 A 
ATOM     10  C   UNL     1       1.611  -0.285  -0.465  0.00  0.00    +0.050 A 
ATOM     11  C   UNL     1       1.844   1.037  -0.141  0.00  0.00    +0.141 A 
ATOM     12  C   UNL     1       0.781   1.898   0.159  0.00  0.00    +0.076 A 
ATOM     13  N   UNL     1       1.089   3.230   0.441  0.00  0.00    -0.334 N 
ATOM     14  H   UNL     1       2.105   3.644   0.365  0.00  0.00    +0.147 HD
ENDROOT
BRANCH   1  18
ATOM     15  C   UNL     1      -0.904   3.433   4.993  0.00  0.00    +0.161 A 
ATOM     16  C   UNL     1      -0.282   2.444   4.247  0.00  0.00    +0.050 A 
ATOM     17  C   UNL     1      -0.005   2.659   2.910  0.00  0.00    +0.009 A 
ATOM     18  C   UNL     1      -0.338   3.862   2.316  0.00  0.00    -0.023 A 
ATOM     19  C   UNL     1      -0.958   4.853   3.054  0.00  0.00    +0.054 A 
ATOM     20  C   UNL     1      -1.244   4.642   4.394  0.00  0.00    +0.159 A 
BRANCH  15  22
ATOM     21  C   UNL     1      -0.805   1.957   6.855  0.00  0.00    +0.277 C 
ATOM     22  O   UNL     1      -1.182   3.222   6.307  0.00  0.00    -0.491 OA
ENDBRANCH  15  22
BRANCH  20  23
ATOM     23  O   UNL     1      -1.853   5.616   5.122  0.00  0.00    -0.503 OA
ATOM     24  H   UNL     1      -2.121   6.571   4.647  0.00  0.00    +0.292 HD
ENDBRANCH  20  23
ENDBRANCH   1  18
BRANCH   8  25
ATOM     25  N   UNL     1      -2.123  -0.460  -0.236  0.00  0.00    +0.057 N 
ATOM     26  O   UNL     1      -2.857  -0.311   0.725  0.00  0.00    -0.126 OA
ATOM     27  O   UNL     1      -2.529  -1.039  -1.228  0.00  0.00    -0.126 OA
ENDBRANCH   8  25
BRANCH  11  28
ATOM     28  O   UNL     1       3.119   1.507  -0.111  0.00  0.00    -0.493 OA
ATOM     29  C   UNL     1       4.160   0.580  -0.424  0.00  0.00    +0.277 C 
ENDBRANCH  11  28
TORSDOF 5
