REMARK  Name = ZINC42009147
REMARK  5 active torsions:
REMARK  status: ('A' for Active; 'I' for Inactive)
REMARK    1  A    between atoms: C_1  and  C_2
REMARK    2  A    between atoms: C_4  and  N_21
REMARK    3  A    between atoms: C_7  and  S_8
REMARK    4  A    between atoms: S_8  and  C_9
REMARK    5  A    between atoms: C_9  and  C_18
REMARK                            x       y       z     vdW  Elec       q    Type
REMARK                         _______ _______ _______ _____ _____    ______ ____
ROOT
ATOM      1  C   UNL     1       0.130  -1.046   4.076  0.00  0.00    +0.147 C 
ATOM      2  C   UNL     1       0.129  -0.331   5.444  0.00  0.00    +0.039 C 
ATOM      3  C   UNL     1       1.636  -0.155   5.728  0.00  0.00    +0.038 C 
ATOM      4  C   UNL     1       2.315  -1.272   4.965  0.00  0.00    -0.042 A 
ATOM      5  C   UNL     1       1.450  -1.784   4.016  0.00  0.00    -0.017 A 
ATOM      6  C   UNL     1       1.862  -2.822   3.197  0.00  0.00    +0.006 A 
ATOM      7  C   UNL     1       3.133  -3.346   3.325  0.00  0.00    +0.000 A 
ATOM      8  C   UNL     1       3.998  -2.835   4.274  0.00  0.00    +0.000 A 
ATOM      9  C   UNL     1       3.590  -1.799   5.092  0.00  0.00    +0.004 A 
ENDROOT
BRANCH   1  10
ATOM     10  C   UNL     1      -1.018  -2.019   3.991  0.00  0.00    +0.376 C 
ATOM     11  O   UNL     1      -1.850  -1.903   3.108  0.00  0.00    -0.244 OA
ATOM     12  O   UNL     1      -1.113  -2.921   4.805  0.00  0.00    -0.244 OA
ENDBRANCH   1  10
BRANCH   1  13
ATOM     13  S   UNL     1       0.026   0.168   2.732  0.00  0.00    -0.102 S 
BRANCH  13  20
ATOM     14  C   UNL     1      -0.942   2.552   1.130  0.00  0.00    +0.045 C 
ATOM     15  C   UNL     1      -1.833   2.118   2.264  0.00  0.00    -0.035 A 
ATOM     16  C   UNL     1      -3.012   2.793   2.514  0.00  0.00    +0.027 A 
ATOM     17  C   UNL     1      -3.833   2.394   3.559  0.00  0.00    +0.025 A 
ATOM     18  C   UNL     1      -3.470   1.314   4.354  0.00  0.00    +0.024 A 
ATOM     19  C   UNL     1      -2.292   0.638   4.105  0.00  0.00    +0.017 A 
ATOM     20  C   UNL     1      -1.473   1.034   3.055  0.00  0.00    +0.012 A 
BRANCH  17  21
ATOM     21  N   UNL     1      -5.027   3.079   3.813  0.00  0.00    -0.358 N 
ATOM     22  H   UNL     1      -5.281   3.833   3.258  0.00  0.00    +0.142 HD
ATOM     23  H   UNL     1      -5.601   2.800   4.543  0.00  0.00    +0.142 HD
ENDBRANCH  17  21
ENDBRANCH  13  20
ENDBRANCH   1  13
TORSDOF 4
