REMARK  Name = ZINC39630849
REMARK  13 active torsions:
REMARK  status: ('A' for Active; 'I' for Inactive)
REMARK    1  A    between atoms: C_1  and  C_2
REMARK    2  A    between atoms: C_2  and  C_3
REMARK    3  A    between atoms: C_3  and  C_5
REMARK    4  A    between atoms: C_3  and  C_11
REMARK    5  A    between atoms: C_15  and  C_24
REMARK    6  A    between atoms: N_26  and  C_27
REMARK    7  A    between atoms: C_27  and  C_28
REMARK    8  A    between atoms: C_28  and  C_29
REMARK    9  A    between atoms: C_28  and  C_30
REMARK   10  A    between atoms: C_28  and  C_31
REMARK   11  A    between atoms: C_31  and  N_32
REMARK   12  A    between atoms: N_32  and  C_33
REMARK   13  A    between atoms: N_32  and  C_34
REMARK                            x       y       z     vdW  Elec       q    Type
REMARK                         _______ _______ _______ _____ _____    ______ ____
ROOT
ATOM      1  C   UNL     1      -0.132  -0.248   0.065  0.00  0.00    +0.223 C 
ATOM      2  O   UNL     1      -0.485  -1.240   0.666  0.00  0.00    -0.275 OA
ATOM      3  N   UNL     1      -0.424   0.974   0.550  0.00  0.00    -0.300 N 
ATOM      4  C   UNL     1      -0.000   2.290   0.016  0.00  0.00    +0.121 C 
ATOM      5  C   UNL     1      -1.239   3.197   0.184  0.00  0.00    +0.100 C 
ATOM      6  C   UNL     1      -2.050   2.549   1.319  0.00  0.00    -0.004 C 
ATOM      7  C   UNL     1      -1.249   1.307   1.737  0.00  0.00    +0.115 C 
ATOM      8  C   UNL     1      -3.428   2.134   0.812  0.00  0.00    -0.010 C 
ATOM      9  C   UNL     1      -4.236   1.543   1.972  0.00  0.00    -0.082 C 
ATOM     10  N   UNL     1      -4.365   2.542   3.039  0.00  0.00    +0.379 N 
ATOM     11  C   UNL     1      -3.041   2.867   3.584  0.00  0.00    -0.082 C 
ATOM     12  C   UNL     1      -2.183   3.514   2.493  0.00  0.00    -0.010 C 
ATOM     13  H   UNL     1      -4.788   3.379   2.666  0.00  0.00    -0.086 HD
ATOM     14  H   UNL     1      -4.948   2.173   3.775  0.00  0.00    -0.086 HD
ENDROOT
BRANCH   5  15
ATOM     15  C   UNL     1      -0.819   4.593   0.568  0.00  0.00    +0.218 C 
ATOM     16  O   UNL     1       0.237   4.774   1.135  0.00  0.00    -0.275 OA
ATOM     17  N   UNL     1      -1.617   5.640   0.281  0.00  0.00    -0.315 N 
ATOM     18  H   UNL     1      -2.462   5.496  -0.173  0.00  0.00    +0.149 HD
BRANCH  17  19
ATOM     19  C   UNL     1      -1.209   6.997   0.654  0.00  0.00    +0.108 C 
BRANCH  19  20
ATOM     20  C   UNL     1      -2.286   7.992   0.217  0.00  0.00    -0.034 C 
ATOM     21  C   UNL     1      -2.467   7.913  -1.300  0.00  0.00    +0.010 C 
ATOM     22  C   UNL     1      -3.607   7.649   0.907  0.00  0.00    +0.010 C 
BRANCH  20  23
ATOM     23  C   UNL     1      -1.859   9.409   0.607  0.00  0.00    -0.072 C 
BRANCH  23  24
ATOM     24  N   UNL     1      -2.905  10.361   0.211  0.00  0.00    +0.376 N 
ATOM     25  C   UNL     1      -3.913  10.453   1.275  0.00  0.00    -0.097 C 
ATOM     26  C   UNL     1      -2.304  11.684  -0.010  0.00  0.00    -0.097 C 
ATOM     27  H   UNL     1      -3.343  10.044  -0.641  0.00  0.00    -0.083 HD
ENDBRANCH  23  24
ENDBRANCH  20  23
ENDBRANCH  19  20
ENDBRANCH  17  19
ENDBRANCH   5  15
BRANCH   1  28
ATOM     28  C   UNL     1       0.634  -0.383  -1.226  0.00  0.00    +0.105 C 
BRANCH  28  29
ATOM     29  C   UNL     1       2.102  -0.541  -0.925  0.00  0.00    -0.036 A 
ATOM     30  C   UNL     1       2.541  -1.611  -0.169  0.00  0.00    +0.004 A 
ATOM     31  C   UNL     1       3.888  -1.757   0.108  0.00  0.00    +0.000 A 
ATOM     32  C   UNL     1       4.796  -0.831  -0.373  0.00  0.00    +0.000 A 
ATOM     33  C   UNL     1       4.357   0.239  -1.130  0.00  0.00    +0.000 A 
ATOM     34  C   UNL     1       3.011   0.382  -1.410  0.00  0.00    +0.004 A 
ENDBRANCH  28  29
BRANCH  28  36
ATOM     35  C   UNL     1      -1.318  -1.391  -2.415  0.00  0.00    +0.005 C 
ATOM     36  C   UNL     1       0.135  -1.611  -1.990  0.00  0.00    +0.014 C 
ENDBRANCH  28  36
ENDBRANCH   1  28
TORSDOF 8
