REMARK  Name = ZINC00506353
REMARK  2 active torsions:
REMARK  status: ('A' for Active; 'I' for Inactive)
REMARK    1  A    between atoms: C_3  and  C_7
REMARK    2  A    between atoms: C_7  and  N_8
REMARK                            x       y       z     vdW  Elec       q    Type
REMARK                         _______ _______ _______ _____ _____    ______ ____
ROOT
ATOM      1  N   UNL     1      -3.424   2.444   0.046  0.00  0.00    -0.293 N 
ATOM      2  C   UNL     1      -2.997   3.732   0.048  0.00  0.00    +0.203 A 
ATOM      3  N   UNL     1      -1.731   4.039   0.038  0.00  0.00    -0.235 NA
ATOM      4  C   UNL     1      -0.783   3.084   0.025  0.00  0.00    +0.103 A 
ATOM      5  C   UNL     1       0.685   3.111   0.011  0.00  0.00    +0.029 A 
ATOM      6  C   UNL     1       1.628   4.141   0.008  0.00  0.00    +0.050 A 
ATOM      7  C   UNL     1       2.972   3.838  -0.006  0.00  0.00    +0.124 A 
ATOM      8  C   UNL     1       3.391   2.512  -0.016  0.00  0.00    +0.040 A 
ATOM      9  C   UNL     1       2.472   1.487  -0.013  0.00  0.00    +0.029 A 
ATOM     10  C   UNL     1       1.109   1.772   0.001  0.00  0.00    +0.049 A 
ATOM     11  N   UNL     1      -0.011   0.966   0.007  0.00  0.00    -0.349 N 
ATOM     12  H   UNL     1       0.002  -0.004   0.002  0.00  0.00    +0.166 HD
ATOM     13  C   UNL     1      -1.154   1.742   0.016  0.00  0.00    +0.131 A 
ATOM     14  C   UNL     1      -2.533   1.428   0.033  0.00  0.00    +0.278 A 
ATOM     15  O   UNL     1      -2.910   0.268   0.031  0.00  0.00    -0.265 OA
ATOM     16  F   UNL     1       3.886   4.832  -0.009  0.00  0.00    -0.205 F 
ENDROOT
BRANCH   1  17
ATOM     17  C   UNL     1      -4.859   2.152   0.058  0.00  0.00    +0.163 C 
BRANCH  17  20
ATOM     18  C   UNL     1      -5.837   0.805  -3.328  0.00  0.00    +0.020 A 
ATOM     19  C   UNL     1      -5.362   0.844  -2.026  0.00  0.00    +0.008 A 
ATOM     20  C   UNL     1      -5.364   2.059  -1.359  0.00  0.00    -0.010 A 
ATOM     21  C   UNL     1      -5.841   3.183  -2.007  0.00  0.00    +0.116 A 
ATOM     22  N   UNL     1      -6.280   3.110  -3.248  0.00  0.00    -0.263 NA
ATOM     23  C   UNL     1      -6.293   1.971  -3.913  0.00  0.00    +0.111 A 
ENDBRANCH  17  20
ENDBRANCH   1  17
TORSDOF 2
