REMARK  Name = ZINC43093055
REMARK  12 active torsions:
REMARK  status: ('A' for Active; 'I' for Inactive)
REMARK    1  A    between atoms: C_1  and  C_2
REMARK    2  A    between atoms: C_2  and  C_3
REMARK    3  A    between atoms: C_3  and  C_5
REMARK    4  A    between atoms: C_3  and  N_23
REMARK    5  A    between atoms: C_5  and  C_7
REMARK    6  A    between atoms: C_5  and  N_14
REMARK    7  A    between atoms: N_14  and  C_15
REMARK    8  A    between atoms: N_14  and  C_17
REMARK    9  A    between atoms: C_15  and  C_16
REMARK   10  A    between atoms: C_17  and  C_18
REMARK   11  A    between atoms: N_20  and  C_21
REMARK   12  A    between atoms: C_21  and  C_22
REMARK                            x       y       z     vdW  Elec       q    Type
REMARK                         _______ _______ _______ _____ _____    ______ ____
ROOT
ATOM      1  C   UNL     1      -1.363  -1.815  -0.078  0.00  0.00    -0.051 C 
ENDROOT
BRANCH   1   2
ATOM      2  C   UNL     1      -2.586  -2.560  -0.547  0.00  0.00    -0.048 A 
ATOM      3  C   UNL     1      -3.468  -3.091   0.375  0.00  0.00    +0.003 A 
ATOM      4  C   UNL     1      -4.590  -3.773  -0.056  0.00  0.00    +0.000 A 
ATOM      5  C   UNL     1      -4.830  -3.926  -1.409  0.00  0.00    +0.001 A 
ATOM      6  C   UNL     1      -3.948  -3.396  -2.332  0.00  0.00    +0.015 A 
ATOM      7  C   UNL     1      -2.828  -2.708  -1.901  0.00  0.00    +0.019 A 
ATOM      8 BR   UNL     1      -1.624  -1.977  -3.163  0.00  0.00    -0.050 Br
ENDBRANCH   1   2
BRANCH   1   9
ATOM      9  N   UNL     1      -0.455  -2.746   0.607  0.00  0.00    +0.389 N 
ATOM     10  H   UNL     1       0.431  -2.293   0.769  0.00  0.00    -0.080 HD
BRANCH   9  11
ATOM     11  C   UNL     1      -0.251  -3.936  -0.229  0.00  0.00    -0.081 C 
ATOM     12  C   UNL     1       0.560  -3.555  -1.469  0.00  0.00    -0.017 C 
ENDBRANCH   9  11
BRANCH   9  13
ATOM     13  C   UNL     1      -1.043  -3.146   1.893  0.00  0.00    +0.019 C 
BRANCH  13  14
ATOM     14  C   UNL     1       0.042  -3.660   2.803  0.00  0.00    +0.196 C 
ATOM     15  O   UNL     1       1.192  -3.691   2.419  0.00  0.00    -0.278 OA
ATOM     16  N   UNL     1      -0.265  -4.087   4.044  0.00  0.00    -0.317 N 
ATOM     17  H   UNL     1      -1.185  -4.062   4.351  0.00  0.00    +0.149 HD
BRANCH  16  18
ATOM     18  C   UNL     1       0.790  -4.587   4.929  0.00  0.00    +0.101 C 
ATOM     19  C   UNL     1       0.177  -5.004   6.268  0.00  0.00    +0.024 C 
ENDBRANCH  16  18
ENDBRANCH  13  14
ENDBRANCH   9  13
ENDBRANCH   1   9
BRANCH   1  20
ATOM     20  C   UNL     1      -1.781  -0.706   0.890  0.00  0.00    -0.085 C 
BRANCH  20  21
ATOM     21  N   UNL     1      -2.533   0.323   0.159  0.00  0.00    +0.379 N 
ATOM     22  H   UNL     1      -1.952   0.712  -0.567  0.00  0.00    -0.090 HD
ATOM     23  H   UNL     1      -3.356  -0.091  -0.254  0.00  0.00    -0.090 HD
ATOM     24  H   UNL     1      -2.809   1.054   0.797  0.00  0.00    -0.090 HD
ENDBRANCH  20  21
BRANCH  20  26
ATOM     25  C   UNL     1      -0.955   0.948   2.570  0.00  0.00    +0.002 C 
ATOM     26  C   UNL     1      -0.534  -0.078   1.516  0.00  0.00    -0.021 C 
ENDBRANCH  20  26
ENDBRANCH   1  20
TORSDOF 9
