REMARK  Name = ZINC66591890
REMARK  10 active torsions:
REMARK  status: ('A' for Active; 'I' for Inactive)
REMARK    1  A    between atoms: C_1  and  C_2
REMARK    2  A    between atoms: C_5  and  C_12
REMARK    3  A    between atoms: C_8  and  C_10
REMARK    4  A    between atoms: C_8  and  C_11
REMARK    5  A    between atoms: C_12  and  C_13
REMARK    6  A    between atoms: N_15  and  C_16
REMARK    7  A    between atoms: C_19  and  O_26
REMARK    8  A    between atoms: C_20  and  S_22
REMARK    9  A    between atoms: S_22  and  N_25
REMARK   10  A    between atoms: O_26  and  C_27
REMARK                            x       y       z     vdW  Elec       q    Type
REMARK                         _______ _______ _______ _____ _____    ______ ____
ROOT
ATOM      1  C   UNL     1       2.221  -0.042  -3.738  0.00  0.00    +0.217 C 
ATOM      2  O   UNL     1       1.468   0.886  -3.531  0.00  0.00    -0.275 OA
ATOM      3  N   UNL     1       2.606  -0.331  -4.997  0.00  0.00    -0.285 N 
ATOM      4  H   UNL     1       3.260  -1.029  -5.156  0.00  0.00    +0.155 HD
ENDROOT
BRANCH   3   5
ATOM      5  C   UNL     1       2.062   0.379  -6.075  0.00  0.00    +0.035 A 
ATOM      6  C   UNL     1       1.762   1.728  -5.939  0.00  0.00    +0.027 A 
ATOM      7  C   UNL     1       1.226   2.427  -7.002  0.00  0.00    +0.049 A 
ATOM      8  C   UNL     1       0.988   1.782  -8.207  0.00  0.00    +0.146 A 
ATOM      9  C   UNL     1       1.288   0.434  -8.345  0.00  0.00    +0.148 A 
ATOM     10  C   UNL     1       1.829  -0.264  -7.283  0.00  0.00    +0.055 A 
BRANCH   9  11
ATOM     11  S   UNL     1       0.985  -0.384  -9.875  0.00  0.00    +0.059 S 
ATOM     12  O   UNL     1       1.547   0.434 -10.892  0.00  0.00    -0.153 OA
ATOM     13  O   UNL     1       1.365  -1.741  -9.692  0.00  0.00    -0.153 OA
BRANCH  11  14
ATOM     14  N   UNL     1      -0.654  -0.380 -10.116  0.00  0.00    -0.203 NA
ATOM     15  H   UNL     1      -1.239   0.030  -9.460  0.00  0.00    +0.144 HD
ATOM     16  H   UNL     1      -1.028  -0.788 -10.912  0.00  0.00    +0.144 HD
ENDBRANCH  11  14
ENDBRANCH   9  11
BRANCH   8  17
ATOM     17  O   UNL     1       0.461   2.470  -9.254  0.00  0.00    -0.493 OA
ATOM     18  C   UNL     1       0.176   3.855  -9.043  0.00  0.00    +0.277 C 
ENDBRANCH   8  17
ENDBRANCH   3   5
BRANCH   1  19
ATOM     19  C   UNL     1       2.725  -0.873  -2.586  0.00  0.00    +0.099 C 
BRANCH  19  23
ATOM     20  C   UNL     1      -0.027   1.513   0.010  0.00  0.00    +0.007 C 
ATOM     21  C   UNL     1       0.004  -0.015   0.004  0.00  0.00    -0.013 C 
ATOM     22  C   UNL     1       0.625  -0.533  -1.286  0.00  0.00    +0.007 C 
ATOM     23  C   UNL     1       2.140  -0.338  -1.274  0.00  0.00    -0.002 C 
ATOM     24  C   UNL     1       2.730  -1.123  -0.105  0.00  0.00    +0.010 C 
ATOM     25  C   UNL     1       2.185  -0.609   1.223  0.00  0.00    -0.034 C 
ATOM     26  C   UNL     1       0.667  -0.567   1.249  0.00  0.00    +0.009 C 
ATOM     27  C   UNL     1       2.655  -1.578   2.330  0.00  0.00    +0.011 C 
ATOM     28  C   UNL     1       2.778   0.767   1.536  0.00  0.00    +0.011 C 
ENDBRANCH  19  23
ENDBRANCH   1  19
TORSDOF 6
