REMARK  Name = ZINC36633788
REMARK  6 active torsions:
REMARK  status: ('A' for Active; 'I' for Inactive)
REMARK    1  A    between atoms: C_4  and  C_7
REMARK    2  A    between atoms: C_10  and  C_13
REMARK    3  A    between atoms: C_18  and  O_19
REMARK    4  A    between atoms: N_26  and  N_27
REMARK    5  A    between atoms: N_27  and  C_28
REMARK    6  A    between atoms: C_33  and  C_34
REMARK                            x       y       z     vdW  Elec       q    Type
REMARK                         _______ _______ _______ _____ _____    ______ ____
ROOT
ATOM      1  C   UNL     1       3.693  -0.682  -0.038  0.00  0.00    +0.069 C 
ATOM      2  N   UNL     1       4.854  -0.123  -0.042  0.00  0.00    -0.182 NA
ATOM      3  N   UNL     1       5.918  -1.022  -0.059  0.00  0.00    -0.199 N 
ATOM      4  C   UNL     1       5.383  -2.393  -0.068  0.00  0.00    +0.139 C 
ATOM      5  C   UNL     1       3.856  -2.185  -0.048  0.00  0.00    +0.087 C 
ATOM      6  C   UNL     1       7.250  -0.685  -0.066  0.00  0.00    +0.169 C 
ATOM      7  N   UNL     1       8.182  -1.592  -0.088  0.00  0.00    -0.151 NA
ATOM      8  C   UNL     1       9.484  -1.278  -0.097  0.00  0.00    +0.303 C 
ATOM      9  O   UNL     1      10.447  -2.027  -0.117  0.00  0.00    -0.260 OA
ATOM     10  S   UNL     1       9.465   0.508  -0.071  0.00  0.00    -0.005 S 
ATOM     11  C   UNL     1       7.689   0.723  -0.056  0.00  0.00    +0.163 C 
ATOM     12  N   UNL     1       6.977   1.823  -0.039  0.00  0.00    -0.172 NA
ENDROOT
BRANCH   1  16
ATOM     13  C   UNL     1      -0.017   1.379   0.010  0.00  0.00    +0.000 A 
ATOM     14  C   UNL     1       1.168   2.094   0.002  0.00  0.00    +0.001 A 
ATOM     15  C   UNL     1       2.377   1.431  -0.013  0.00  0.00    +0.010 A 
ATOM     16  C   UNL     1       2.404   0.034  -0.021  0.00  0.00    -0.002 A 
ATOM     17  C   UNL     1       1.204  -0.681  -0.013  0.00  0.00    +0.010 A 
ATOM     18  C   UNL     1       0.002  -0.004   0.002  0.00  0.00    +0.001 A 
ENDBRANCH   1  16
BRANCH   4  19
ATOM     19  C   UNL     1       5.811  -3.121  -1.317  0.00  0.00    +0.017 A 
ATOM     20  C   UNL     1       6.262  -2.409  -2.411  0.00  0.00    +0.009 A 
ATOM     21  C   UNL     1       6.655  -3.076  -3.557  0.00  0.00    +0.001 A 
ATOM     22  C   UNL     1       6.597  -4.457  -3.610  0.00  0.00    +0.004 A 
ATOM     23  C   UNL     1       6.147  -5.173  -2.518  0.00  0.00    +0.046 A 
ATOM     24  C   UNL     1       5.758  -4.506  -1.365  0.00  0.00    +0.122 A 
BRANCH  24  25
ATOM     25  O   UNL     1       5.320  -5.209  -0.287  0.00  0.00    -0.506 OA
ATOM     26  H   UNL     1       4.366  -5.369  -0.283  0.00  0.00    +0.292 HD
ENDBRANCH  24  25
ENDBRANCH   4  19
BRANCH  12  27
ATOM     27  N   UNL     1       7.615   3.071  -0.032  0.00  0.00    -0.236 N 
ATOM     28  H   UNL     1       8.584   3.120  -0.040  0.00  0.00    +0.174 HD
BRANCH  27  29
ATOM     29  C   UNL     1       6.857   4.242  -0.015  0.00  0.00    +0.060 A 
ATOM     30  C   UNL     1       5.469   4.173   0.002  0.00  0.00    +0.025 A 
ATOM     31  C   UNL     1       4.723   5.334   0.020  0.00  0.00    +0.002 A 
ATOM     32  C   UNL     1       5.354   6.565   0.021  0.00  0.00    +0.001 A 
ATOM     33  C   UNL     1       6.735   6.637   0.005  0.00  0.00    +0.014 A 
ATOM     34  C   UNL     1       7.489   5.480  -0.007  0.00  0.00    +0.077 A 
BRANCH  34  35
ATOM     35  C   UNL     1       8.994   5.559  -0.019  0.00  0.00    +0.419 C 
ATOM     36  F   UNL     1       9.390   6.901  -0.009  0.00  0.00    -0.166 F 
ATOM     37  F   UNL     1       9.503   4.914   1.113  0.00  0.00    -0.166 F 
ATOM     38  F   UNL     1       9.485   4.937  -1.171  0.00  0.00    -0.166 F 
ENDBRANCH  34  35
ENDBRANCH  27  29
ENDBRANCH  12  27
TORSDOF 6
