REMARK  Name = ZINC09542760
REMARK  10 active torsions:
REMARK  status: ('A' for Active; 'I' for Inactive)
REMARK    1  A    between atoms: C_1  and  C_2
REMARK    2  A    between atoms: C_2  and  O_3
REMARK    3  A    between atoms: O_3  and  C_4
REMARK    4  A    between atoms: C_8  and  C_11
REMARK    5  A    between atoms: C_9  and  O_10
REMARK    6  A    between atoms: C_14  and  C_27
REMARK    7  A    between atoms: C_16  and  C_18
REMARK    8  A    between atoms: C_21  and  O_25
REMARK    9  A    between atoms: O_25  and  C_26
REMARK   10  A    between atoms: C_30  and  C_33
REMARK                            x       y       z     vdW  Elec       q    Type
REMARK                         _______ _______ _______ _____ _____    ______ ____
ROOT
ATOM      1  C   UNL     1      -4.946   0.857  -0.361  0.00  0.00    -0.028 C 
ATOM      2  C   UNL     1      -3.790   1.783   0.030  0.00  0.00    +0.044 C 
ATOM      3  C   UNL     1      -2.502   1.009   0.019  0.00  0.00    +0.040 C 
ATOM      4  N   UNL     1      -2.455  -0.270   0.007  0.00  0.00    -0.299 NA
ATOM      5  C   UNL     1      -3.630  -1.132   0.002  0.00  0.00    +0.081 C 
ATOM      6  N   UNL     1      -4.826  -0.388   0.424  0.00  0.00    +0.401 N 
ATOM      7  H   UNL     1      -5.660  -0.968   0.271  0.00  0.00    -0.081 HD
ATOM      8  H   UNL     1      -4.749  -0.155   1.421  0.00  0.00    -0.081 HD
ENDROOT
BRANCH   5   9
ATOM      9  C   UNL     1      -3.842  -1.667  -1.391  0.00  0.00    -0.039 A 
ATOM     10  C   UNL     1      -2.761  -1.839  -2.236  0.00  0.00    +0.007 A 
ATOM     11  C   UNL     1      -2.952  -2.329  -3.513  0.00  0.00    +0.047 A 
ATOM     12  C   UNL     1      -4.229  -2.649  -3.949  0.00  0.00    +0.134 A 
ATOM     13  C   UNL     1      -5.313  -2.475  -3.099  0.00  0.00    +0.060 A 
ATOM     14  C   UNL     1      -5.116  -1.989  -1.820  0.00  0.00    +0.022 A 
ATOM     15 BR   UNL     1      -7.057  -2.910  -3.688  0.00  0.00    -0.047 Br
BRANCH  12  16
ATOM     16  O   UNL     1      -4.420  -3.131  -5.205  0.00  0.00    -0.494 OA
ATOM     17  C   UNL     1      -3.259  -3.284  -6.024  0.00  0.00    +0.277 C 
ENDBRANCH  12  16
ENDBRANCH   5   9
BRANCH   3  18
ATOM     18  C   UNL     1      -1.230   1.759   0.017  0.00  0.00    -0.004 A 
ATOM     19  C   UNL     1      -0.013   1.076   0.008  0.00  0.00    +0.010 A 
ATOM     20  C   UNL     1       1.172   1.783   0.000  0.00  0.00    +0.004 A 
ATOM     21  C   UNL     1       1.155   3.167   0.008  0.00  0.00    -0.050 A 
ATOM     22  C   UNL     1      -0.048   3.850   0.022  0.00  0.00    +0.004 A 
ATOM     23  C   UNL     1      -1.240   3.155   0.030  0.00  0.00    +0.010 A 
ATOM     24  C   UNL     1       2.452   3.933  -0.001  0.00  0.00    +0.044 C 
ENDBRANCH   3  18
BRANCH   1  29
ATOM     25  C   UNL     1      -8.042   3.011  -0.678  0.00  0.00    +0.162 A 
ATOM     26  C   UNL     1      -8.678   2.751   0.525  0.00  0.00    +0.049 A 
ATOM     27  C   UNL     1      -8.107   1.881   1.435  0.00  0.00    +0.004 A 
ATOM     28  C   UNL     1      -6.903   1.266   1.145  0.00  0.00    +0.006 A 
ATOM     29  C   UNL     1      -6.261   1.525  -0.051  0.00  0.00    -0.016 A 
ATOM     30  C   UNL     1      -6.828   2.396  -0.967  0.00  0.00    +0.160 A 
BRANCH  30  31
ATOM     31  O   UNL     1      -6.200   2.649  -2.147  0.00  0.00    -0.503 OA
ATOM     32  H   UNL     1      -6.449   2.047  -2.862  0.00  0.00    +0.292 HD
ENDBRANCH  30  31
BRANCH  25  33
ATOM     33  O   UNL     1      -8.603   3.866  -1.575  0.00  0.00    -0.489 OA
BRANCH  33  35
ATOM     34  C   UNL     1     -10.322   5.385  -2.335  0.00  0.00    +0.048 C 
ATOM     35  C   UNL     1      -9.851   4.461  -1.210  0.00  0.00    +0.226 C 
ENDBRANCH  33  35
ENDBRANCH  25  33
ENDBRANCH   1  29
TORSDOF 7
