REMARK  Name = ZINC01095918
REMARK  9 active torsions:
REMARK  status: ('A' for Active; 'I' for Inactive)
REMARK    1  A    between atoms: C_1  and  C_2
REMARK    2  A    between atoms: C_2  and  C_3
REMARK    3  A    between atoms: C_2  and  C_4
REMARK    4  A    between atoms: C_4  and  N_5
REMARK    5  A    between atoms: C_15  and  S_16
REMARK    6  A    between atoms: S_16  and  C_17
REMARK    7  A    between atoms: C_17  and  C_18
REMARK    8  A    between atoms: N_20  and  C_21
REMARK    9  A    between atoms: C_25  and  N_27
REMARK                            x       y       z     vdW  Elec       q    Type
REMARK                         _______ _______ _______ _____ _____    ______ ____
ROOT
ATOM      1  N   UNL     1      -0.540   0.819  -4.006  0.00  0.00    -0.287 N 
ATOM      2  C   UNL     1       0.217   0.342  -5.021  0.00  0.00    +0.262 A 
ATOM      3  O   UNL     1      -0.151   0.430  -6.178  0.00  0.00    -0.267 OA
ATOM      4  C   UNL     1       1.495  -0.293  -4.674  0.00  0.00    +0.065 A 
ATOM      5  C   UNL     1       2.344  -0.821  -5.646  0.00  0.00    +0.015 A 
ATOM      6  C   UNL     1       3.523  -1.400  -5.268  0.00  0.00    +0.001 A 
ATOM      7  C   UNL     1       3.884  -1.468  -3.929  0.00  0.00    +0.002 A 
ATOM      8  C   UNL     1       3.071  -0.959  -2.955  0.00  0.00    +0.028 A 
ATOM      9  C   UNL     1       1.858  -0.360  -3.310  0.00  0.00    +0.079 A 
ATOM     10  N   UNL     1       1.027   0.155  -2.382  0.00  0.00    -0.223 NA
ATOM     11  C   UNL     1      -0.109   0.717  -2.714  0.00  0.00    +0.173 A 
ENDROOT
BRANCH   1  12
ATOM     12  C   UNL     1      -1.827   1.457  -4.295  0.00  0.00    +0.130 C 
BRANCH  12  14
ATOM     13  C   UNL     1      -0.765   3.174  -5.767  0.00  0.00    +0.009 C 
ATOM     14  C   UNL     1      -1.616   2.956  -4.513  0.00  0.00    +0.003 C 
ATOM     15  C   UNL     1      -2.972   3.642  -4.692  0.00  0.00    +0.009 C 
ENDBRANCH  12  14
ENDBRANCH   1  12
BRANCH  11  16
ATOM     16  S   UNL     1      -1.133   1.363  -1.433  0.00  0.00    -0.078 S 
BRANCH  16  17
ATOM     17  C   UNL     1      -0.118   0.963   0.011  0.00  0.00    +0.173 C 
BRANCH  17  18
ATOM     18  C   UNL     1      -0.815   1.437   1.261  0.00  0.00    +0.227 C 
ATOM     19  O   UNL     1      -1.891   1.990   1.182  0.00  0.00    -0.275 OA
ATOM     20  N   UNL     1      -0.242   1.246   2.466  0.00  0.00    -0.285 N 
ATOM     21  H   UNL     1       0.581   0.737   2.536  0.00  0.00    +0.155 HD
BRANCH  20  22
ATOM     22  C   UNL     1      -0.833   1.782   3.615  0.00  0.00    +0.036 A 
ATOM     23  C   UNL     1      -1.514   2.991   3.548  0.00  0.00    +0.023 A 
ATOM     24  C   UNL     1      -2.101   3.514   4.683  0.00  0.00    +0.004 A 
ATOM     25  C   UNL     1      -2.003   2.842   5.887  0.00  0.00    +0.033 A 
ATOM     26  C   UNL     1      -1.322   1.641   5.958  0.00  0.00    +0.128 A 
ATOM     27  C   UNL     1      -0.736   1.109   4.826  0.00  0.00    +0.056 A 
BRANCH  26  28
ATOM     28  N   UNL     1      -1.218   0.925   7.250  0.00  0.00    +0.056 N 
ATOM     29  O   UNL     1      -0.618  -0.133   7.313  0.00  0.00    -0.126 OA
ATOM     30  O   UNL     1      -1.734   1.393   8.249  0.00  0.00    -0.126 OA
ENDBRANCH  26  28
ENDBRANCH  20  22
ENDBRANCH  17  18
ENDBRANCH  16  17
ENDBRANCH  11  16
TORSDOF 7
