REMARK  Name = ZINC04645644
REMARK  11 active torsions:
REMARK  status: ('A' for Active; 'I' for Inactive)
REMARK    1  A    between atoms: C_1  and  C_2
REMARK    2  A    between atoms: C_6  and  N_9
REMARK    3  A    between atoms: C_7  and  C_8
REMARK    4  A    between atoms: C_10  and  C_12
REMARK    5  A    between atoms: C_12  and  S_13
REMARK    6  A    between atoms: S_13  and  C_14
REMARK    7  A    between atoms: C_15  and  C_36
REMARK    8  A    between atoms: C_16  and  C_31
REMARK    9  A    between atoms: C_18  and  C_22
REMARK   10  A    between atoms: C_19  and  C_21
REMARK   11  A    between atoms: N_24  and  C_25
REMARK                            x       y       z     vdW  Elec       q    Type
REMARK                         _______ _______ _______ _____ _____    ______ ____
ROOT
ATOM      1  C   UNL     1      -0.243  -7.674   4.923  0.00  0.00    +0.080 C 
ATOM      2  C   UNL     1      -0.926  -8.844   4.810  0.00  0.00    +0.072 C 
ATOM      3  C   UNL     1      -1.187  -9.713   6.008  0.00  0.00    +0.134 C 
ATOM      4  C   UNL     1      -0.965  -8.948   7.281  0.00  0.00    +0.047 C 
ATOM      5  C   UNL     1      -0.289  -7.788   7.299  0.00  0.00    +0.015 C 
ATOM      6  N   UNL     1       0.225  -7.253   6.148  0.00  0.00    -0.312 N 
ATOM      7  C   UNL     1      -0.089  -7.067   8.607  0.00  0.00    +0.061 C 
ATOM      8  H   UNL     1       0.917  -6.575   6.195  0.00  0.00    +0.152 HD
ENDROOT
BRANCH   3   9
ATOM      9  C   UNL     1      -2.613 -10.200   5.965  0.00  0.00    +0.118 A 
ATOM     10  C   UNL     1      -3.007 -11.485   6.008  0.00  0.00    +0.045 A 
ATOM     11  C   UNL     1      -4.419 -11.483   5.943  0.00  0.00    +0.041 A 
ATOM     12  C   UNL     1      -4.804 -10.197   5.864  0.00  0.00    +0.195 A 
ATOM     13  O   UNL     1      -3.706  -9.424   5.884  0.00  0.00    -0.467 OA
ENDBRANCH   3   9
BRANCH   4  14
ATOM     14  C   UNL     1      -1.483  -9.464   8.494  0.00  0.00    +0.247 C 
ATOM     15  O   UNL     1      -0.903 -10.368   9.067  0.00  0.00    -0.270 OA
ATOM     16  N   UNL     1      -2.617  -8.954   9.013  0.00  0.00    -0.282 N 
ATOM     17  H   UNL     1      -3.133  -8.306   8.508  0.00  0.00    +0.155 HD
BRANCH  16  18
ATOM     18  C   UNL     1      -3.049  -9.358  10.280  0.00  0.00    +0.034 A 
ATOM     19  C   UNL     1      -2.122  -9.690  11.259  0.00  0.00    +0.023 A 
ATOM     20  C   UNL     1      -2.552 -10.089  12.509  0.00  0.00    +0.002 A 
ATOM     21  C   UNL     1      -3.905 -10.160  12.786  0.00  0.00    +0.000 A 
ATOM     22  C   UNL     1      -4.831  -9.830  11.814  0.00  0.00    +0.002 A 
ATOM     23  C   UNL     1      -4.407  -9.424  10.564  0.00  0.00    +0.023 A 
ENDBRANCH  16  18
ENDBRANCH   4  14
BRANCH   2  24
ATOM     24  C   UNL     1      -1.405  -9.257   3.525  0.00  0.00    +0.098 C 
ATOM     25  N   UNL     1      -1.785  -9.584   2.506  0.00  0.00    -0.191 NA
ENDBRANCH   2  24
BRANCH   1  26
ATOM     26  S   UNL     1       0.051  -6.691   3.490  0.00  0.00    -0.100 S 
BRANCH  26  27
ATOM     27  C   UNL     1       0.981  -5.266   4.119  0.00  0.00    +0.171 C 
BRANCH  27  29
ATOM     28  N   UNL     1       1.992  -3.199   3.211  0.00  0.00    -0.285 N 
ATOM     29  C   UNL     1       1.301  -4.333   2.980  0.00  0.00    +0.227 C 
ATOM     30  O   UNL     1       0.938  -4.603   1.855  0.00  0.00    -0.275 OA
ATOM     31  H   UNL     1       2.359  -3.026   4.092  0.00  0.00    +0.155 HD
BRANCH  28  37
ATOM     32  C   UNL     1       4.460   0.628   1.358  0.00  0.00    +0.044 C 
ATOM     33  C   UNL     1       3.367  -0.405   1.257  0.00  0.00    -0.046 A 
ATOM     34  C   UNL     1       2.547  -0.435   0.144  0.00  0.00    +0.004 A 
ATOM     35  C   UNL     1       1.543  -1.381   0.047  0.00  0.00    +0.002 A 
ATOM     36  C   UNL     1       1.356  -2.299   1.062  0.00  0.00    +0.023 A 
ATOM     37  C   UNL     1       2.178  -2.271   2.181  0.00  0.00    +0.037 A 
ATOM     38  C   UNL     1       3.189  -1.323   2.273  0.00  0.00    -0.026 A 
ATOM     39  C   UNL     1       4.087  -1.292   3.483  0.00  0.00    +0.046 C 
ENDBRANCH  28  37
ENDBRANCH  27  29
ENDBRANCH  26  27
ENDBRANCH   1  26
TORSDOF 8
