REMARK  Name = ZINC09540988
REMARK  7 active torsions:
REMARK  status: ('A' for Active; 'I' for Inactive)
REMARK    1  A    between atoms: C_6  and  C_7
REMARK    2  A    between atoms: C_9  and  C_13
REMARK    3  A    between atoms: C_16  and  S_19
REMARK    4  A    between atoms: N_17  and  N_18
REMARK    5  A    between atoms: S_19  and  C_20
REMARK    6  A    between atoms: C_20  and  C_21
REMARK    7  A    between atoms: N_23  and  C_24
REMARK                            x       y       z     vdW  Elec       q    Type
REMARK                         _______ _______ _______ _____ _____    ______ ____
ROOT
ATOM      1  C   UNL     1      -3.354  -3.784  -0.001  0.00  0.00    +0.202 A 
ATOM      2  N   UNL     1      -2.696  -4.919  -0.007  0.00  0.00    -0.125 NA
ATOM      3  N   UNL     1      -3.520  -5.904   0.002  0.00  0.00    -0.120 NA
ATOM      4  C   UNL     1      -4.756  -5.459   0.015  0.00  0.00    +0.209 A 
ATOM      5  N   UNL     1      -4.694  -4.094   0.019  0.00  0.00    -0.222 N 
ENDROOT
BRANCH   1   8
ATOM      6  C   UNL     1      -1.267  -0.765  -0.028  0.00  0.00    +0.066 A 
ATOM      7  C   UNL     1      -1.393  -2.123  -0.028  0.00  0.00    +0.061 A 
ATOM      8  C   UNL     1      -2.767  -2.426  -0.007  0.00  0.00    +0.132 A 
ATOM      9  N   UNL     1      -3.440  -1.293   0.005  0.00  0.00    -0.170 NA
ATOM     10  N   UNL     1      -2.523  -0.234  -0.003  0.00  0.00    -0.276 N 
ATOM     11  H   UNL     1      -2.743   0.711   0.006  0.00  0.00    +0.189 HD
BRANCH   6  17
ATOM     12  C   UNL     1      -0.016   1.390  -0.038  0.00  0.00    +0.011 A 
ATOM     13  C   UNL     1       1.171   2.093  -0.054  0.00  0.00    +0.020 A 
ATOM     14  C   UNL     1       2.379   1.417  -0.078  0.00  0.00    +0.041 A 
ATOM     15  C   UNL     1       2.404   0.033  -0.086  0.00  0.00    +0.020 A 
ATOM     16  C   UNL     1       1.223  -0.681  -0.070  0.00  0.00    +0.011 A 
ATOM     17  C   UNL     1       0.003  -0.005  -0.046  0.00  0.00    -0.000 A 
ATOM     18 CL   UNL     1       3.869   2.309  -0.099  0.00  0.00    -0.084 Cl
ENDBRANCH   6  17
ENDBRANCH   1   8
BRANCH   5  19
ATOM     19  N   UNL     1      -5.744  -3.220   0.038  0.00  0.00    -0.295 N 
ATOM     20  H   UNL     1      -6.036  -2.987  -0.899  0.00  0.00    +0.163 HD
ATOM     21  H   UNL     1      -6.513  -3.591   0.575  0.00  0.00    +0.163 HD
ENDBRANCH   5  19
BRANCH   4  22
ATOM     22  S   UNL     1      -6.220  -6.439   0.029  0.00  0.00    -0.075 S 
BRANCH  22  23
ATOM     23  C   UNL     1      -5.606  -8.146   0.024  0.00  0.00    +0.173 C 
BRANCH  23  24
ATOM     24  C   UNL     1      -6.773  -9.100   0.036  0.00  0.00    +0.227 C 
ATOM     25  O   UNL     1      -7.907  -8.670   0.047  0.00  0.00    -0.275 OA
ATOM     26  N   UNL     1      -6.556 -10.430   0.034  0.00  0.00    -0.285 N 
ATOM     27  H   UNL     1      -5.652 -10.774  -0.043  0.00  0.00    +0.155 HD
BRANCH  26  28
ATOM     28  C   UNL     1      -7.634 -11.315   0.143  0.00  0.00    +0.035 A 
ATOM     29  C   UNL     1      -7.490 -12.505   0.844  0.00  0.00    +0.025 A 
ATOM     30  C   UNL     1      -8.555 -13.377   0.951  0.00  0.00    +0.023 A 
ATOM     31  C   UNL     1      -9.767 -13.066   0.360  0.00  0.00    +0.059 A 
ATOM     32  C   UNL     1      -9.915 -11.881  -0.341  0.00  0.00    +0.061 A 
ATOM     33  C   UNL     1      -8.852 -11.002  -0.446  0.00  0.00    +0.044 A 
ATOM     34 CL   UNL     1     -11.436 -11.495  -1.083  0.00  0.00    -0.082 Cl
ATOM     35 CL   UNL     1     -11.104 -14.165   0.496  0.00  0.00    -0.082 Cl
ENDBRANCH  26  28
ENDBRANCH  23  24
ENDBRANCH  22  23
ENDBRANCH   4  22
TORSDOF 7
