REMARK  Name = ZINC12296214
REMARK  12 active torsions:
REMARK  status: ('A' for Active; 'I' for Inactive)
REMARK    1  A    between atoms: C_1  and  C_2
REMARK    2  A    between atoms: C_2  and  C_4
REMARK    3  A    between atoms: C_4  and  O_43
REMARK    4  A    between atoms: C_9  and  C_42
REMARK    5  A    between atoms: N_21  and  O_22
REMARK    6  A    between atoms: O_22  and  C_23
REMARK    7  A    between atoms: C_23  and  C_24
REMARK    8  A    between atoms: C_28  and  O_37
REMARK    9  A    between atoms: C_31  and  C_33
REMARK   10  A    between atoms: C_33  and  O_35
REMARK   11  A    between atoms: O_35  and  C_36
REMARK   12  A    between atoms: C_40  and  C_41
REMARK                            x       y       z     vdW  Elec       q    Type
REMARK                         _______ _______ _______ _____ _____    ______ ____
ROOT
ATOM      1  C   UNL     1      -2.653   1.014   2.474  0.00  0.00    +0.129 C 
ATOM      2  C   UNL     1      -4.054   0.404   2.230  0.00  0.00    +0.043 C 
ATOM      3  C   UNL     1      -4.154   0.116   0.708  0.00  0.00    +0.008 C 
ATOM      4  C   UNL     1      -2.704   0.245   0.216  0.00  0.00    +0.002 C 
ATOM      5  C   UNL     1      -2.171   1.413   1.069  0.00  0.00    +0.007 C 
ATOM      6  C   UNL     1      -0.671   1.525   0.916  0.00  0.00    +0.010 C 
ATOM      7  C   UNL     1      -0.244   0.806  -0.377  0.00  0.00    +0.005 C 
ATOM      8  C   UNL     1      -1.208   1.170  -1.501  0.00  0.00    +0.002 C 
ATOM      9  C   UNL     1      -2.571   0.552  -1.271  0.00  0.00    -0.003 C 
ATOM     10  C   UNL     1      -2.782  -0.757  -2.024  0.00  0.00    +0.008 C 
ATOM     11  C   UNL     1      -2.498  -0.595  -3.512  0.00  0.00    +0.031 C 
ATOM     12  C   UNL     1      -1.064  -0.123  -3.660  0.00  0.00    -0.062 C 
ATOM     13  C   UNL     1      -0.267  -0.810  -4.472  0.00  0.00    +0.026 C 
ATOM     14  C   UNL     1       1.106  -0.357  -4.743  0.00  0.00    +0.080 C 
ATOM     15  N   UNL     1       1.940  -1.104  -5.402  0.00  0.00    -0.089 NA
ATOM     16  C   UNL     1       1.518   1.006  -4.229  0.00  0.00    +0.059 C 
ATOM     17  C   UNL     1       0.900   1.209  -2.847  0.00  0.00    +0.017 C 
ATOM     18  C   UNL     1      -0.613   1.065  -2.878  0.00  0.00    -0.007 C 
ATOM     19  C   UNL     1      -1.134   2.290  -3.641  0.00  0.00    +0.016 C 
ATOM     20  C   UNL     1      -2.846   2.736   0.695  0.00  0.00    +0.015 C 
ENDROOT
BRANCH   1  22
ATOM     21  C   UNL     1      -2.422   2.131   4.818  0.00  0.00    +0.089 C 
ATOM     22  C   UNL     1      -2.756   2.230   3.352  0.00  0.00    +0.162 C 
ATOM     23  O   UNL     1      -3.106   3.286   2.883  0.00  0.00    -0.295 OA
ENDBRANCH   1  22
BRANCH   1  24
ATOM     24  O   UNL     1      -1.782   0.044   3.047  0.00  0.00    -0.381 OA
ATOM     25  H   UNL     1      -2.042  -0.242   3.934  0.00  0.00    +0.211 HD
ENDBRANCH   1  24
BRANCH  15  26
ATOM     26  O   UNL     1       3.256  -0.646  -5.651  0.00  0.00    -0.384 OA
BRANCH  26  27
ATOM     27  C   UNL     1       4.063  -1.569  -6.385  0.00  0.00    +0.358 C 
BRANCH  27  28
ATOM     28  C   UNL     1       5.436  -0.982  -6.592  0.00  0.00    +0.257 C 
ATOM     29  O   UNL     1       5.697   0.118  -6.153  0.00  0.00    -0.272 OA
ATOM     30  N   UNL     1       6.373  -1.680  -7.263  0.00  0.00    -0.283 N 
ATOM     31  C   UNL     1       6.193  -3.025  -7.841  0.00  0.00    +0.140 C 
ATOM     32  C   UNL     1       7.620  -3.615  -7.928  0.00  0.00    +0.134 C 
ATOM     33  C   UNL     1       8.456  -2.364  -8.304  0.00  0.00    +0.066 C 
ATOM     34  C   UNL     1       7.746  -1.230  -7.536  0.00  0.00    +0.187 C 
BRANCH  34  35
ATOM     35  C   UNL     1       7.717   0.020  -8.377  0.00  0.00    +0.328 C 
ATOM     36  O   UNL     1       6.720   0.310  -8.995  0.00  0.00    -0.249 OA
BRANCH  35  37
ATOM     37  O   UNL     1       8.800   0.812  -8.440  0.00  0.00    -0.467 OA
ATOM     38  C   UNL     1       8.701   1.999  -9.270  0.00  0.00    +0.280 C 
ENDBRANCH  35  37
ENDBRANCH  34  35
BRANCH  32  39
ATOM     39  O   UNL     1       7.703  -4.612  -8.948  0.00  0.00    -0.390 OA
ATOM     40  H   UNL     1       7.197  -5.414  -8.757  0.00  0.00    +0.210 HD
ENDBRANCH  32  39
ENDBRANCH  27  28
ENDBRANCH  26  27
ENDBRANCH  15  26
TORSDOF 8
