REMARK  Name = ZINC55029554
REMARK  6 active torsions:
REMARK  status: ('A' for Active; 'I' for Inactive)
REMARK    1  A    between atoms: C_6  and  C_7
REMARK    2  A    between atoms: C_7  and  C_9
REMARK    3  A    between atoms: C_7  and  O_26
REMARK    4  A    between atoms: C_9  and  N_10
REMARK    5  A    between atoms: C_13  and  N_16
REMARK    6  A    between atoms: N_19  and  C_20
REMARK                            x       y       z     vdW  Elec       q    Type
REMARK                         _______ _______ _______ _____ _____    ______ ____
ROOT
ATOM      1  N   UNL     1      -2.936  -1.889  -1.423  0.00  0.00    +0.382 N 
ATOM      2  C   UNL     1      -3.967  -0.900  -1.087  0.00  0.00    -0.077 C 
ATOM      3  C   UNL     1      -5.334  -1.586  -1.020  0.00  0.00    +0.004 C 
ATOM      4  C   UNL     1      -5.651  -2.213  -2.380  0.00  0.00    +0.071 C 
ATOM      5  C   UNL     1      -4.531  -3.188  -2.755  0.00  0.00    +0.004 C 
ATOM      6  C   UNL     1      -3.194  -2.443  -2.758  0.00  0.00    -0.077 C 
ATOM      7  H   UNL     1      -2.952  -2.634  -0.742  0.00  0.00    -0.082 HD
ENDROOT
BRANCH   4   8
ATOM      8  N   UNL     1      -6.923  -2.936  -2.302  0.00  0.00    -0.297 N 
ATOM      9  C   UNL     1      -7.655  -3.134  -3.416  0.00  0.00    +0.300 C 
ATOM     10  O   UNL     1      -7.261  -2.713  -4.486  0.00  0.00    -0.253 OA
ATOM     11  N   UNL     1      -8.826  -3.799  -3.344  0.00  0.00    -0.297 N 
ATOM     12  H   UNL     1      -7.238  -3.272  -1.448  0.00  0.00    +0.151 HD
ATOM     13  H   UNL     1      -9.141  -4.135  -2.490  0.00  0.00    +0.151 HD
BRANCH  11  14
ATOM     14  C   UNL     1      -9.622  -4.014  -4.554  0.00  0.00    +0.074 C 
ATOM     15  C   UNL     1     -10.502  -2.789  -4.811  0.00  0.00    +0.022 C 
ATOM     16  C   UNL     1     -11.333  -3.014  -6.075  0.00  0.00    +0.002 C 
ATOM     17  C   UNL     1     -12.218  -4.248  -5.891  0.00  0.00    +0.000 C 
ATOM     18  C   UNL     1     -11.338  -5.473  -5.635  0.00  0.00    +0.002 C 
ATOM     19  C   UNL     1     -10.507  -5.248  -4.370  0.00  0.00    +0.022 C 
ENDBRANCH  11  14
ENDBRANCH   4   8
BRANCH   1  20
ATOM     20  C   UNL     1      -1.617  -1.243  -1.410  0.00  0.00    -0.042 C 
BRANCH  20  21
ATOM     21  C   UNL     1      -1.293  -0.774   0.010  0.00  0.00    +0.128 C 
BRANCH  21  27
ATOM     22  C   UNL     1      -0.017   1.378   0.010  0.00  0.00    +0.009 A 
ATOM     23  C   UNL     1       1.170   2.087   0.002  0.00  0.00    +0.041 A 
ATOM     24  C   UNL     1       2.379   1.413  -0.013  0.00  0.00    +0.158 A 
ATOM     25  C   UNL     1       2.397   0.026  -0.021  0.00  0.00    +0.159 A 
ATOM     26  C   UNL     1       1.208  -0.680  -0.013  0.00  0.00    +0.047 A 
ATOM     27  C   UNL     1       0.002  -0.004   0.002  0.00  0.00    -0.018 A 
ATOM     28  F   UNL     1       3.576  -0.634  -0.036  0.00  0.00    -0.202 F 
ATOM     29  F   UNL     1       3.539   2.105  -0.021  0.00  0.00    -0.202 F 
ENDBRANCH  21  27
BRANCH  21  30
ATOM     30  O   UNL     1      -1.167  -1.910   0.869  0.00  0.00    -0.389 OA
ATOM     31  H   UNL     1      -0.470  -2.526   0.606  0.00  0.00    +0.210 HD
ENDBRANCH  21  30
ENDBRANCH  20  21
ENDBRANCH   1  20
TORSDOF 6
