REMARK  Name = ZINC39914737
REMARK  11 active torsions:
REMARK  status: ('A' for Active; 'I' for Inactive)
REMARK    1  A    between atoms: C_1  and  C_2
REMARK    2  A    between atoms: C_5  and  C_8
REMARK    3  A    between atoms: C_8  and  N_9
REMARK    4  A    between atoms: C_10  and  C_29
REMARK    5  A    between atoms: C_13  and  C_20
REMARK    6  A    between atoms: C_23  and  C_27
REMARK    7  A    between atoms: C_25  and  O_26
REMARK    8  A    between atoms: C_32  and  C_35
REMARK    9  A    between atoms: C_35  and  C_36
REMARK   10  A    between atoms: C_35  and  C_37
REMARK   11  A    between atoms: C_35  and  C_38
REMARK                            x       y       z     vdW  Elec       q    Type
REMARK                         _______ _______ _______ _____ _____    ______ ____
ROOT
ATOM      1  N   UNL     1       1.253  -4.498  -0.249  0.00  0.00    -0.281 N 
ATOM      2  C   UNL     1       2.347  -4.698  -1.208  0.00  0.00    +0.142 C 
ATOM      3  C   UNL     1       3.541  -5.119  -0.396  0.00  0.00    +0.035 A 
ATOM      4  C   UNL     1       4.888  -5.495  -0.388  0.00  0.00    +0.102 A 
ATOM      5  N   UNL     1       5.226  -5.726   0.866  0.00  0.00    -0.173 NA
ATOM      6  N   UNL     1       4.226  -5.532   1.649  0.00  0.00    -0.272 N 
ATOM      7  H   UNL     1       4.244  -5.642   2.613  0.00  0.00    +0.189 HD
ATOM      8  C   UNL     1       3.134  -5.149   0.924  0.00  0.00    +0.126 A 
ATOM      9  C   UNL     1       1.721  -4.756   0.985  0.00  0.00    +0.266 C 
ATOM     10  O   UNL     1       1.066  -4.679   2.007  0.00  0.00    -0.268 OA
ENDROOT
BRANCH   4  11
ATOM     11  C   UNL     1       5.774  -5.614  -1.573  0.00  0.00    +0.045 A 
ATOM     12  C   UNL     1       5.334  -6.284  -2.711  0.00  0.00    +0.034 A 
ATOM     13  C   UNL     1       6.162  -6.391  -3.811  0.00  0.00    +0.045 A 
ATOM     14  C   UNL     1       7.430  -5.835  -3.786  0.00  0.00    -0.029 A 
ATOM     15  C   UNL     1       7.876  -5.168  -2.660  0.00  0.00    +0.050 A 
ATOM     16  C   UNL     1       7.052  -5.048  -1.552  0.00  0.00    +0.126 A 
ATOM     17  C   UNL     1       8.328  -5.957  -4.990  0.00  0.00    +0.045 C 
ATOM     18 CL   UNL     1       5.613  -7.227  -5.230  0.00  0.00    -0.083 Cl
BRANCH  16  19
ATOM     19  O   UNL     1       7.488  -4.388  -0.447  0.00  0.00    -0.506 OA
ATOM     20  H   UNL     1       7.943  -4.952   0.194  0.00  0.00    +0.292 HD
ENDBRANCH  16  19
ENDBRANCH   4  11
BRANCH   2  21
ATOM     21  C   UNL     1       2.640  -3.412  -1.936  0.00  0.00    -0.022 A 
ATOM     22  C   UNL     1       2.831  -2.243  -1.224  0.00  0.00    +0.006 A 
ATOM     23  C   UNL     1       3.100  -1.063  -1.892  0.00  0.00    +0.004 A 
ATOM     24  C   UNL     1       3.179  -1.052  -3.272  0.00  0.00    -0.042 A 
ATOM     25  C   UNL     1       2.989  -2.221  -3.984  0.00  0.00    +0.004 A 
ATOM     26  C   UNL     1       2.724  -3.402  -3.316  0.00  0.00    +0.006 A 
BRANCH  24  27
ATOM     27  C   UNL     1       3.472   0.234  -4.000  0.00  0.00    -0.013 C 
ATOM     28  C   UNL     1       4.828   0.779  -3.549  0.00  0.00    +0.015 C 
ATOM     29  C   UNL     1       3.504  -0.028  -5.507  0.00  0.00    +0.015 C 
ATOM     30  C   UNL     1       2.380   1.259  -3.684  0.00  0.00    +0.015 C 
ENDBRANCH  24  27
ENDBRANCH   2  21
BRANCH   1  31
ATOM     31  C   UNL     1      -0.113  -4.082  -0.579  0.00  0.00    +0.144 C 
BRANCH  31  36
ATOM     32  C   UNL     1      -0.450   1.686  -0.472  0.00  0.00    +0.044 C 
ATOM     33  C   UNL     1      -0.362   0.182  -0.500  0.00  0.00    -0.050 A 
ATOM     34  C   UNL     1      -0.029  -0.469  -1.673  0.00  0.00    +0.003 A 
ATOM     35  C   UNL     1       0.052  -1.849  -1.698  0.00  0.00    +0.005 A 
ATOM     36  C   UNL     1      -0.200  -2.577  -0.551  0.00  0.00    -0.030 A 
ATOM     37  C   UNL     1      -0.532  -1.926   0.622  0.00  0.00    +0.005 A 
ATOM     38  C   UNL     1      -0.609  -0.546   0.649  0.00  0.00    +0.003 A 
ENDBRANCH  31  36
ENDBRANCH   1  31
TORSDOF 6
