REMARK  Name = ZINC01062404
REMARK  3 active torsions:
REMARK  status: ('A' for Active; 'I' for Inactive)
REMARK    1  A    between atoms: C_6  and  S_7
REMARK    2  A    between atoms: S_7  and  N_10
REMARK    3  A    between atoms: N_10  and  C_11
REMARK                            x       y       z     vdW  Elec       q    Type
REMARK                         _______ _______ _______ _____ _____    ______ ____
ROOT
ATOM      1  N   UNL     1       0.024  -0.502   1.581  0.00  0.00    -0.216 N 
ATOM      2  H   UNL     1       0.795  -0.976   1.930  0.00  0.00    +0.174 HD
ENDROOT
BRANCH   1   3
ATOM      3  C   UNL     1      -1.070  -0.239   2.413  0.00  0.00    +0.050 A 
ATOM      4  C   UNL     1      -2.362  -0.462   1.950  0.00  0.00    +0.026 A 
ATOM      5  C   UNL     1      -3.446  -0.204   2.766  0.00  0.00    +0.029 A 
ATOM      6  C   UNL     1      -3.246   0.278   4.051  0.00  0.00    +0.067 A 
ATOM      7  C   UNL     1      -1.950   0.502   4.518  0.00  0.00    +0.069 A 
ATOM      8  C   UNL     1      -0.863   0.238   3.699  0.00  0.00    +0.052 A 
ATOM      9  N   UNL     1      -2.068   0.979   5.822  0.00  0.00    -0.306 N 
ATOM     10  H   UNL     1      -1.333   1.224   6.405  0.00  0.00    +0.170 HD
ATOM     11  C   UNL     1      -3.376   1.042   6.134  0.00  0.00    +0.325 A 
ATOM     12  O   UNL     1      -3.824   1.418   7.201  0.00  0.00    -0.247 OA
ATOM     13  N   UNL     1      -4.113   0.626   5.087  0.00  0.00    -0.306 N 
ATOM     14  H   UNL     1      -5.081   0.577   5.058  0.00  0.00    +0.170 HD
ENDBRANCH   1   3
BRANCH   1  15
ATOM     15  S   UNL     1       0.002  -0.004   0.002  0.00  0.00    +0.072 S 
ATOM     16  O   UNL     1      -1.243  -0.424  -0.539  0.00  0.00    -0.150 OA
ATOM     17  O   UNL     1       1.248  -0.390  -0.563  0.00  0.00    -0.150 OA
BRANCH  15  23
ATOM     18  C   UNL     1      -1.228   2.432   0.021  0.00  0.00    +0.030 A 
ATOM     19  C   UNL     1      -1.248   3.814   0.034  0.00  0.00    +0.017 A 
ATOM     20  C   UNL     1      -0.059   4.522   0.026  0.00  0.00    +0.018 A 
ATOM     21  C   UNL     1       1.148   3.847   0.011  0.00  0.00    +0.017 A 
ATOM     22  C   UNL     1       1.166   2.465   0.004  0.00  0.00    +0.030 A 
ATOM     23  C   UNL     1      -0.022   1.758   0.012  0.00  0.00    +0.109 A 
ATOM     24 BR   UNL     1      -0.085   6.413   0.036  0.00  0.00    -0.050 Br
ENDBRANCH  15  23
ENDBRANCH   1  15
TORSDOF 3
