REMARK  Name = ZINC29993912
REMARK  4 active torsions:
REMARK  status: ('A' for Active; 'I' for Inactive)
REMARK    1  A    between atoms: C_1  and  C_2
REMARK    2  A    between atoms: C_9  and  N_14
REMARK    3  A    between atoms: C_15  and  C_17
REMARK    4  A    between atoms: C_21  and  N_26
REMARK                            x       y       z     vdW  Elec       q    Type
REMARK                         _______ _______ _______ _____ _____    ______ ____
ROOT
ATOM      1  N   UNL     1      -2.425   4.179   0.049  0.00  0.00    -0.281 N 
ATOM      2  C   UNL     1      -2.424   5.522   0.157  0.00  0.00    +0.255 C 
ATOM      3  O   UNL     1      -1.371   6.132   0.150  0.00  0.00    -0.269 OA
ATOM      4  H   UNL     1      -3.377   3.635  -0.032  0.00  0.00    +0.155 HD
ENDROOT
BRANCH   1  12
ATOM      5  C   UNL     1       4.734   1.269   0.442  0.00  0.00    +0.062 C 
ATOM      6  C   UNL     1       3.550   2.185   0.128  0.00  0.00    +0.256 C 
ATOM      7  C   UNL     1       3.384   3.191   1.239  0.00  0.00    +0.258 C 
ATOM      8  O   UNL     1       4.346   3.545   1.887  0.00  0.00    -0.271 OA
ATOM      9  N   UNL     1       2.160   3.695   1.509  0.00  0.00    -0.279 N 
ATOM     10  C   UNL     1       1.059   3.243   0.768  0.00  0.00    +0.077 A 
ATOM     11  C   UNL     1      -0.138   3.938   0.785  0.00  0.00    +0.050 A 
ATOM     12  C   UNL     1      -1.214   3.476   0.039  0.00  0.00    +0.036 A 
ATOM     13  C   UNL     1      -1.092   2.314  -0.712  0.00  0.00    +0.027 A 
ATOM     14  C   UNL     1       0.102   1.617  -0.725  0.00  0.00    +0.049 A 
ATOM     15  C   UNL     1       1.179   2.077   0.013  0.00  0.00    +0.143 A 
ATOM     16  O   UNL     1       2.360   1.401   0.008  0.00  0.00    -0.478 OA
ATOM     17  H   UNL     1       2.039   4.449   2.301  0.00  0.00    +0.155 HD
ENDBRANCH   1  12
BRANCH   2  18
ATOM     18  C   UNL     1      -3.694   6.251   0.284  0.00  0.00    +0.075 A 
ATOM     19  C   UNL     1      -3.894   7.590   0.409  0.00  0.00    +0.029 A 
ATOM     20  C   UNL     1      -5.201   8.097   0.515  0.00  0.00    -0.008 A 
ATOM     21  C   UNL     1      -5.611   9.449   0.647  0.00  0.00    +0.041 A 
ATOM     22  C   UNL     1      -6.926   9.770   0.744  0.00  0.00    +0.127 A 
ATOM     23  C   UNL     1      -7.918   8.796   0.719  0.00  0.00    +0.034 A 
ATOM     24  C   UNL     1      -7.564   7.469   0.592  0.00  0.00    +0.018 A 
ATOM     25  C   UNL     1      -6.232   7.128   0.492  0.00  0.00    +0.020 A 
ATOM     26  S   UNL     1      -5.353   5.595   0.321  0.00  0.00    -0.084 S 
BRANCH  22  27
ATOM     27  N   UNL     1      -7.314  11.192   0.881  0.00  0.00    +0.056 N 
ATOM     28  O   UNL     1      -6.458  12.058   0.904  0.00  0.00    -0.126 OA
ATOM     29  O   UNL     1      -8.491  11.497   0.969  0.00  0.00    -0.126 OA
ENDBRANCH  22  27
ENDBRANCH   2  18
TORSDOF 3
