REMARK  Name = ZINC33312898
REMARK  7 active torsions:
REMARK  status: ('A' for Active; 'I' for Inactive)
REMARK    1  A    between atoms: C_1  and  C_2
REMARK    2  A    between atoms: C_8  and  C_10
REMARK    3  A    between atoms: N_20  and  C_21
REMARK    4  A    between atoms: C_21  and  C_22
REMARK    5  A    between atoms: N_24  and  C_25
REMARK    6  A    between atoms: C_25  and  C_27
REMARK    7  A    between atoms: C_25  and  C_28
REMARK                            x       y       z     vdW  Elec       q    Type
REMARK                         _______ _______ _______ _____ _____    ______ ____
ROOT
ATOM      1  C   UNL     1      -0.550  -2.195  -0.880  0.00  0.00    +0.051 C 
ATOM      2  C   UNL     1       0.907  -2.566  -0.965  0.00  0.00    -0.049 A 
ATOM      3  C   UNL     1       1.821  -1.821  -0.233  0.00  0.00    +0.003 A 
ATOM      4  C   UNL     1       3.166  -2.128  -0.277  0.00  0.00    +0.000 A 
ATOM      5  C   UNL     1       3.606  -3.183  -1.055  0.00  0.00    +0.000 A 
ATOM      6  C   UNL     1       2.699  -3.923  -1.785  0.00  0.00    +0.004 A 
ATOM      7  C   UNL     1       1.347  -3.615  -1.742  0.00  0.00    -0.047 A 
ATOM      8  C   UNL     1       0.394  -4.445  -2.563  0.00  0.00    +0.017 C 
ATOM      9  C   UNL     1      -1.039  -4.231  -2.074  0.00  0.00    -0.072 C 
ATOM     10  N   UNL     1      -1.294  -2.784  -1.998  0.00  0.00    +0.396 N 
ATOM     11  H   UNL     1      -0.944  -2.317  -2.930  0.00  0.00    -0.080 HD
ENDROOT
BRANCH   1  19
ATOM     12  C   UNL     1       1.272   1.959   3.412  0.00  0.00    +0.007 C 
ATOM     13  C   UNL     1       0.181   1.406   2.493  0.00  0.00    -0.011 C 
ATOM     14  C   UNL     1       0.336   2.011   1.096  0.00  0.00    +0.022 C 
ATOM     15  C   UNL     1      -0.779   1.481   0.189  0.00  0.00    +0.108 C 
ATOM     16  N   UNL     1      -0.754   0.012   0.217  0.00  0.00    -0.303 N 
ATOM     17  C   UNL     1      -0.806  -0.670   1.516  0.00  0.00    +0.108 C 
ATOM     18  C   UNL     1       0.309  -0.117   2.409  0.00  0.00    +0.022 C 
ATOM     19  C   UNL     1      -0.686  -0.695  -0.928  0.00  0.00    +0.206 C 
ATOM     20  O   UNL     1      -0.733  -0.124  -1.998  0.00  0.00    -0.277 OA
ENDBRANCH   1  19
BRANCH  10  21
ATOM     21  C   UNL     1      -2.732  -2.511  -1.875  0.00  0.00    +0.020 C 
BRANCH  21  22
ATOM     22  C   UNL     1      -3.430  -2.911  -3.150  0.00  0.00    +0.197 C 
ATOM     23  O   UNL     1      -2.793  -3.378  -4.069  0.00  0.00    -0.278 OA
ATOM     24  N   UNL     1      -4.763  -2.750  -3.267  0.00  0.00    -0.310 N 
ATOM     25  H   UNL     1      -5.342  -2.325  -2.433  0.00  0.00    +0.149 HD
BRANCH  24  26
ATOM     26  C   UNL     1      -5.442  -3.139  -4.506  0.00  0.00    +0.100 C 
ATOM     27  C   UNL     1      -5.775  -4.631  -4.458  0.00  0.00    +0.033 C 
BRANCH  26  28
ATOM     28  C   UNL     1      -6.714  -2.345  -4.652  0.00  0.00    -0.027 A 
ATOM     29  C   UNL     1      -7.508  -2.103  -3.547  0.00  0.00    +0.008 A 
ATOM     30  C   UNL     1      -8.673  -1.370  -3.679  0.00  0.00    +0.038 A 
ATOM     31  C   UNL     1      -9.050  -0.889  -4.921  0.00  0.00    +0.123 A 
ATOM     32  C   UNL     1      -8.257  -1.137  -6.029  0.00  0.00    +0.038 A 
ATOM     33  C   UNL     1      -7.090  -1.864  -5.893  0.00  0.00    +0.008 A 
ATOM     34  F   UNL     1     -10.191  -0.178  -5.053  0.00  0.00    -0.205 F 
ENDBRANCH  26  28
ENDBRANCH  24  26
ENDBRANCH  21  22
ENDBRANCH  10  21
TORSDOF 5
