REMARK  Name = ZINC12936603
REMARK  15 active torsions:
REMARK  status: ('A' for Active; 'I' for Inactive)
REMARK    1  A    between atoms: C_1  and  C_2
REMARK    2  A    between atoms: C_2  and  O_3
REMARK    3  A    between atoms: O_3  and  C_4
REMARK    4  A    between atoms: C_9  and  N_63
REMARK    5  A    between atoms: C_12  and  C_13
REMARK    6  A    between atoms: C_12  and  N_63
REMARK    7  A    between atoms: C_13  and  C_15
REMARK    8  A    between atoms: C_13  and  O_28
REMARK    9  A    between atoms: C_15  and  O_16
REMARK   10  A    between atoms: O_16  and  C_17
REMARK   11  A    between atoms: C_20  and  C_24
REMARK   12  A    between atoms: C_22  and  C_23
REMARK   13  A    between atoms: C_24  and  C_25
REMARK   14  A    between atoms: C_24  and  C_26
REMARK   15  A    between atoms: C_24  and  C_27
REMARK                            x       y       z     vdW  Elec       q    Type
REMARK                         _______ _______ _______ _____ _____    ______ ____
ROOT
ATOM      1  C   UNL     1      -3.706  -0.968   0.014  0.00  0.00    +0.135 C 
ENDROOT
BRANCH   1   2
ATOM      2  O   UNL     1      -4.374  -0.625  -1.202  0.00  0.00    -0.390 OA
ATOM      3  H   UNL     1      -3.929  -0.945  -1.999  0.00  0.00    +0.210 HD
ENDBRANCH   1   2
BRANCH   1   4
ATOM      4  C   UNL     1      -3.609  -2.490   0.131  0.00  0.00    -0.047 C 
BRANCH   4   5
ATOM      5  N   UNL     1      -4.969  -3.062   0.134  0.00  0.00    +0.383 N 
ATOM      6  H   UNL     1      -5.494  -2.684   0.931  0.00  0.00    -0.085 HD
ATOM      7  H   UNL     1      -5.444  -2.809  -0.741  0.00  0.00    -0.085 HD
BRANCH   5  13
ATOM      8  C   UNL     1      -6.588  -8.120  -0.836  0.00  0.00    +0.403 C 
ATOM      9  O   UNL     1      -7.566  -8.514  -0.233  0.00  0.00    -0.226 OA
ATOM     10  N   UNL     1      -5.813  -7.154  -0.304  0.00  0.00    -0.268 N 
ATOM     11  C   UNL     1      -6.138  -6.569   1.003  0.00  0.00    +0.109 C 
ATOM     12  C   UNL     1      -6.212  -5.045   0.857  0.00  0.00    +0.003 C 
ATOM     13  C   UNL     1      -4.906  -4.532   0.245  0.00  0.00    -0.069 C 
ATOM     14  C   UNL     1      -4.717  -5.142  -1.145  0.00  0.00    +0.003 C 
ATOM     15  C   UNL     1      -4.627  -6.667  -1.022  0.00  0.00    +0.109 C 
BRANCH   8  16
ATOM     16  O   UNL     1      -6.278  -8.648  -2.035  0.00  0.00    -0.451 OA
BRANCH  16  18
ATOM     17  C   UNL     1      -6.649 -10.158  -3.909  0.00  0.00    +0.048 C 
ATOM     18  C   UNL     1      -7.158  -9.684  -2.547  0.00  0.00    +0.230 C 
ENDBRANCH  16  18
ENDBRANCH   8  16
ENDBRANCH   5  13
ENDBRANCH   4   5
ENDBRANCH   1   4
BRANCH   1  19
ATOM     19  C   UNL     1      -2.300  -0.366   0.011  0.00  0.00    +0.258 C 
BRANCH  19  20
ATOM     20  O   UNL     1      -2.392   1.060   0.019  0.00  0.00    -0.489 OA
BRANCH  20  21
ATOM     21  C   UNL     1      -1.223   1.754   0.017  0.00  0.00    +0.124 A 
ATOM     22  C   UNL     1      -0.013   1.076   0.008  0.00  0.00    +0.046 A 
ATOM     23  C   UNL     1       1.174   1.783   0.000  0.00  0.00    +0.008 A 
ATOM     24  C   UNL     1       1.156   3.166   0.008  0.00  0.00    -0.042 A 
ATOM     25  C   UNL     1      -0.049   3.844   0.023  0.00  0.00    +0.011 A 
ATOM     26  C   UNL     1      -1.239   3.141   0.030  0.00  0.00    -0.009 A 
ATOM     27  C   UNL     1      -2.552   3.880   0.046  0.00  0.00    +0.047 C 
BRANCH  24  28
ATOM     28  C   UNL     1       2.451   3.935  -0.001  0.00  0.00    -0.013 C 
ATOM     29  C   UNL     1       3.626   2.955  -0.018  0.00  0.00    +0.015 C 
ATOM     30  C   UNL     1       2.509   4.822  -1.246  0.00  0.00    +0.015 C 
ATOM     31  C   UNL     1       2.534   4.809   1.252  0.00  0.00    +0.015 C 
ENDBRANCH  24  28
ENDBRANCH  20  21
ENDBRANCH  19  20
ENDBRANCH   1  19
TORSDOF 10
