REMARK  Name = ZINC09281487
REMARK  13 active torsions:
REMARK  status: ('A' for Active; 'I' for Inactive)
REMARK    1  A    between atoms: C_1  and  C_2
REMARK    2  A    between atoms: C_6  and  N_8
REMARK    3  A    between atoms: C_13  and  C_27
REMARK    4  A    between atoms: N_15  and  C_21
REMARK    5  A    between atoms: C_29  and  C_38
REMARK    6  A    between atoms: C_30  and  O_37
REMARK    7  A    between atoms: C_31  and  C_33
REMARK    8  A    between atoms: C_33  and  C_34
REMARK    9  A    between atoms: C_33  and  C_35
REMARK   10  A    between atoms: C_33  and  C_36
REMARK   11  A    between atoms: C_38  and  C_39
REMARK   12  A    between atoms: C_38  and  C_40
REMARK   13  A    between atoms: C_38  and  C_41
REMARK                            x       y       z     vdW  Elec       q    Type
REMARK                         _______ _______ _______ _____ _____    ______ ____
ROOT
ATOM      1  N   UNL     1       0.050  -2.798   2.395  0.00  0.00    -0.208 N 
ATOM      2  C   UNL     1       0.074  -4.168   2.472  0.00  0.00    +0.235 C 
ATOM      3  O   UNL     1       0.302  -4.955   1.579  0.00  0.00    -0.274 OA
ATOM      4  C   UNL     1      -0.232  -4.467   3.850  0.00  0.00    +0.145 C 
ATOM      5  C   UNL     1      -0.066  -5.551   4.832  0.00  0.00    +0.157 C 
ATOM      6  N   UNL     1      -0.144  -4.815   6.135  0.00  0.00    -0.244 N 
ATOM      7  O   UNL     1      -0.261  -3.406   5.834  0.00  0.00    -0.257 OA
ATOM      8  C   UNL     1       0.468  -3.264   4.602  0.00  0.00    +0.249 C 
ATOM      9  C   UNL     1       0.049  -2.201   3.623  0.00  0.00    +0.259 C 
ATOM     10  O   UNL     1      -0.234  -1.049   3.874  0.00  0.00    -0.272 OA
ENDROOT
BRANCH   1  16
ATOM     11  C   UNL     1      -0.018   1.503   0.010  0.00  0.00    +0.044 C 
ATOM     12  C   UNL     1       0.002  -0.004   0.002  0.00  0.00    -0.049 A 
ATOM     13  C   UNL     1       0.006  -0.688  -1.200  0.00  0.00    +0.003 A 
ATOM     14  C   UNL     1       0.024  -2.071  -1.211  0.00  0.00    +0.002 A 
ATOM     15  C   UNL     1       0.039  -2.773  -0.022  0.00  0.00    +0.024 A 
ATOM     16  C   UNL     1       0.035  -2.089   1.186  0.00  0.00    +0.044 A 
ATOM     17  C   UNL     1       0.023  -0.700   1.194  0.00  0.00    +0.027 A 
ENDBRANCH   1  16
BRANCH   6  18
ATOM     18  C   UNL     1      -0.110  -5.387   7.409  0.00  0.00    +0.065 A 
ATOM     19  C   UNL     1       0.012  -6.763   7.551  0.00  0.00    +0.028 A 
ATOM     20  C   UNL     1       0.046  -7.325   8.812  0.00  0.00    +0.002 A 
ATOM     21  C   UNL     1      -0.042  -6.519   9.933  0.00  0.00    +0.000 A 
ATOM     22  C   UNL     1      -0.163  -5.149   9.795  0.00  0.00    +0.002 A 
ATOM     23  C   UNL     1      -0.192  -4.580   8.537  0.00  0.00    +0.028 A 
ENDBRANCH   6  18
BRANCH   5  24
ATOM     24  C   UNL     1       1.274  -6.220   4.669  0.00  0.00    -0.021 A 
ATOM     25  C   UNL     1       2.407  -5.637   5.205  0.00  0.00    +0.013 A 
ATOM     26  C   UNL     1       3.637  -6.249   5.057  0.00  0.00    +0.000 A 
ATOM     27  C   UNL     1       3.734  -7.450   4.369  0.00  0.00    +0.124 A 
ATOM     28  C   UNL     1       2.596  -8.034   3.833  0.00  0.00    +0.000 A 
ATOM     29  C   UNL     1       1.368  -7.420   3.988  0.00  0.00    +0.013 A 
BRANCH  28  30
ATOM     30  C   UNL     1       2.698  -9.338   3.085  0.00  0.00    -0.009 C 
ATOM     31  C   UNL     1       1.309  -9.759   2.601  0.00  0.00    +0.015 C 
ATOM     32  C   UNL     1       3.627  -9.165   1.882  0.00  0.00    +0.015 C 
ATOM     33  C   UNL     1       3.262 -10.415   4.014  0.00  0.00    +0.015 C 
ENDBRANCH  28  30
BRANCH  26  34
ATOM     34  C   UNL     1       4.872  -5.612   5.641  0.00  0.00    -0.009 C 
ATOM     35  C   UNL     1       4.490  -4.306   6.340  0.00  0.00    +0.015 C 
ATOM     36  C   UNL     1       5.508  -6.566   6.653  0.00  0.00    +0.015 C 
ATOM     37  C   UNL     1       5.872  -5.317   4.521  0.00  0.00    +0.015 C 
ENDBRANCH  26  34
BRANCH  27  38
ATOM     38  O   UNL     1       4.943  -8.054   4.221  0.00  0.00    -0.506 OA
ATOM     39  H   UNL     1       5.164  -8.670   4.933  0.00  0.00    +0.292 HD
ENDBRANCH  27  38
ENDBRANCH   5  24
TORSDOF 6
