REMARK  Name = ZINC39590946
REMARK  6 active torsions:
REMARK  status: ('A' for Active; 'I' for Inactive)
REMARK    1  A    between atoms: C_4  and  C_7
REMARK    2  A    between atoms: C_9  and  C_13
REMARK    3  A    between atoms: C_17  and  S_21
REMARK    4  A    between atoms: N_19  and  N_20
REMARK    5  A    between atoms: S_21  and  C_22
REMARK    6  A    between atoms: C_22  and  C_23
REMARK                            x       y       z     vdW  Elec       q    Type
REMARK                         _______ _______ _______ _____ _____    ______ ____
ROOT
ATOM      1  C   UNL     1       5.778  -3.010   1.189  0.00  0.00    +0.185 C 
ATOM      2  N   UNL     1       5.514  -2.217   2.417  0.00  0.00    -0.234 NA
ATOM      3  N   UNL     1       6.466  -2.737   3.402  0.00  0.00    -0.228 NA
ATOM      4  C   UNL     1       7.580  -3.340   2.643  0.00  0.00    +0.214 C 
ATOM      5  N   UNL     1       7.256  -3.171   1.206  0.00  0.00    -0.197 NA
ATOM      6  H   UNL     1       4.564  -2.342   2.732  0.00  0.00    +0.143 HD
ATOM      7  H   UNL     1       6.798  -2.002   4.008  0.00  0.00    +0.143 HD
ENDROOT
BRANCH   1  10
ATOM      8  C   UNL     1       3.696  -0.688  -0.031  0.00  0.00    +0.091 C 
ATOM      9  C   UNL     1       3.828  -2.028  -0.044  0.00  0.00    +0.034 C 
ATOM     10  C   UNL     1       5.331  -2.245  -0.058  0.00  0.00    +0.187 C 
ATOM     11  N   UNL     1       5.868  -0.874  -0.051  0.00  0.00    -0.176 NA
ATOM     12  N   UNL     1       4.916  -0.090  -0.042  0.00  0.00    -0.154 NA
BRANCH   8  16
ATOM     13  C   UNL     1      -0.019   1.383   0.017  0.00  0.00    +0.000 A 
ATOM     14  C   UNL     1       1.167   2.095   0.008  0.00  0.00    +0.001 A 
ATOM     15  C   UNL     1       2.376   1.428  -0.007  0.00  0.00    +0.010 A 
ATOM     16  C   UNL     1       2.400   0.035  -0.014  0.00  0.00    +0.002 A 
ATOM     17  C   UNL     1       1.202  -0.678  -0.005  0.00  0.00    +0.010 A 
ATOM     18  C   UNL     1      -0.001  -0.001   0.011  0.00  0.00    +0.001 A 
ENDBRANCH   8  16
ENDBRANCH   1  10
BRANCH   5  19
ATOM     19  N   UNL     1       7.663  -4.335   0.435  0.00  0.00    -0.264 NA
ATOM     20  H   UNL     1       8.666  -4.444   0.447  0.00  0.00    +0.137 HD
ATOM     21  H   UNL     1       7.205  -5.169   0.771  0.00  0.00    +0.137 HD
ENDBRANCH   5  19
BRANCH   4  22
ATOM     22  S   UNL     1       9.134  -2.490   3.039  0.00  0.00    -0.115 S 
BRANCH  22  23
ATOM     23  C   UNL     1       8.816  -0.763   2.586  0.00  0.00    +0.168 C 
BRANCH  23  24
ATOM     24  C   UNL     1      10.044   0.064   2.868  0.00  0.00    +0.228 C 
ATOM     25  O   UNL     1      11.035  -0.460   3.329  0.00  0.00    -0.275 OA
ATOM     26  N   UNL     1      10.040   1.387   2.607  0.00  0.00    -0.270 N 
ATOM     27  C   UNL     1      11.135   2.171   2.966  0.00  0.00    +0.125 A 
ATOM     28  C   UNL     1      11.082   3.549   2.791  0.00  0.00    +0.044 A 
ATOM     29  C   UNL     1      12.177   4.316   3.151  0.00  0.00    +0.005 A 
ATOM     30  C   UNL     1      13.291   3.674   3.675  0.00  0.00    +0.020 A 
ATOM     31  C   UNL     1      13.274   2.301   3.821  0.00  0.00    +0.113 A 
ATOM     32  N   UNL     1      12.214   1.597   3.474  0.00  0.00    -0.240 NA
ATOM     33  H   UNL     1       9.275   1.793   2.171  0.00  0.00    +0.156 HD
ENDBRANCH  23  24
ENDBRANCH  22  23
ENDBRANCH   4  22
TORSDOF 6
