REMARK  Name = ZINC62702465
REMARK  7 active torsions:
REMARK  status: ('A' for Active; 'I' for Inactive)
REMARK    1  A    between atoms: C_1  and  C_2
REMARK    2  A    between atoms: C_2  and  C_4
REMARK    3  A    between atoms: C_2  and  O_10
REMARK    4  A    between atoms: O_10  and  C_11
REMARK    5  A    between atoms: C_14  and  C_18
REMARK    6  A    between atoms: C_18  and  N_19
REMARK    7  A    between atoms: N_19  and  C_20
REMARK                            x       y       z     vdW  Elec       q    Type
REMARK                         _______ _______ _______ _____ _____    ______ ____
ROOT
ATOM      1  C   UNL     1      -0.107  -0.775  -2.244  0.00  0.00    +0.136 A 
ATOM      2  C   UNL     1      -1.473  -0.535  -2.203  0.00  0.00    +0.047 A 
ATOM      3  C   UNL     1      -2.261  -0.851  -3.293  0.00  0.00    +0.005 A 
ATOM      4  C   UNL     1      -1.691  -1.405  -4.424  0.00  0.00    -0.063 A 
ATOM      5  C   UNL     1      -0.330  -1.645  -4.468  0.00  0.00    +0.020 A 
ATOM      6  C   UNL     1       0.465  -1.326  -3.383  0.00  0.00    +0.060 A 
ATOM      7 BR   UNL     1       2.327  -1.647  -3.446  0.00  0.00    -0.047 Br
ENDROOT
BRANCH   1   8
ATOM      8  O   UNL     1       0.671  -0.465  -1.174  0.00  0.00    -0.479 OA
BRANCH   8  10
ATOM      9  C   UNL     1      -0.246   1.499  -0.104  0.00  0.00    +0.062 C 
ATOM     10  C   UNL     1       0.002  -0.007   0.003  0.00  0.00    +0.256 C 
BRANCH  10  11
ATOM     11  C   UNL     1       0.860  -0.290   1.210  0.00  0.00    +0.261 C 
ATOM     12  O   UNL     1       1.974  -0.746   1.069  0.00  0.00    -0.271 OA
ATOM     13  N   UNL     1       0.388  -0.035   2.446  0.00  0.00    -0.237 N 
ATOM     14  C   UNL     1       1.154  -0.287   3.526  0.00  0.00    +0.303 C 
ATOM     15  O   UNL     1       2.271  -0.745   3.384  0.00  0.00    -0.253 OA
ATOM     16  N   UNL     1       0.682  -0.032   4.762  0.00  0.00    -0.313 N 
ATOM     17  H   UNL     1      -0.504   0.331   2.560  0.00  0.00    +0.159 HD
ATOM     18  H   UNL     1      -0.209   0.333   4.875  0.00  0.00    +0.146 HD
ATOM     19  H   UNL     1       1.234  -0.214   5.539  0.00  0.00    +0.146 HD
ENDBRANCH  10  11
ENDBRANCH   8  10
ENDBRANCH   1   8
BRANCH   4  20
ATOM     20  C   UNL     1      -2.554  -1.749  -5.610  0.00  0.00    -0.046 C 
BRANCH  20  21
ATOM     21  N   UNL     1      -2.628  -0.593  -6.513  0.00  0.00    +0.384 N 
ATOM     22  H   UNL     1      -3.029   0.193  -6.022  0.00  0.00    -0.085 HD
ATOM     23  H   UNL     1      -1.701  -0.353  -6.830  0.00  0.00    -0.085 HD
BRANCH  21  24
ATOM     24  C   UNL     1      -3.470  -0.928  -7.670  0.00  0.00    -0.072 C 
ATOM     25  C   UNL     1      -2.804  -0.940  -9.048  0.00  0.00    -0.017 C 
ATOM     26  C   UNL     1      -3.768   0.188  -8.673  0.00  0.00    -0.017 C 
ENDBRANCH  21  24
ENDBRANCH  20  21
ENDBRANCH   4  20
TORSDOF 6
