REMARK  Name = ZINC12597626
REMARK  9 active torsions:
REMARK  status: ('A' for Active; 'I' for Inactive)
REMARK    1  A    between atoms: C_1  and  C_2
REMARK    2  A    between atoms: C_5  and  N_8
REMARK    3  A    between atoms: C_11  and  C_14
REMARK    4  A    between atoms: C_14  and  S_15
REMARK    5  A    between atoms: S_15  and  C_16
REMARK    6  A    between atoms: C_19  and  C_22
REMARK    7  A    between atoms: N_20  and  N_21
REMARK    8  A    between atoms: C_22  and  O_23
REMARK    9  A    between atoms: O_23  and  C_24
REMARK                            x       y       z     vdW  Elec       q    Type
REMARK                         _______ _______ _______ _____ _____    ______ ____
ROOT
ATOM      1  C   UNL     1      -1.818   1.308  -0.364  0.00  0.00    +0.209 A 
ATOM      2  N   UNL     1      -1.881   1.823  -1.570  0.00  0.00    -0.121 NA
ATOM      3  N   UNL     1      -0.732   1.746  -2.139  0.00  0.00    -0.128 NA
ATOM      4  C   UNL     1       0.128   1.186  -1.335  0.00  0.00    +0.189 A 
ATOM      5  N   UNL     1      -0.534   0.882  -0.178  0.00  0.00    -0.225 N 
ENDROOT
BRANCH   5   6
ATOM      6  N   UNL     1      -0.017   0.282   0.935  0.00  0.00    -0.295 N 
ATOM      7  H   UNL     1      -0.109  -0.721   0.881  0.00  0.00    +0.163 HD
ATOM      8  H   UNL     1       0.946   0.549   1.075  0.00  0.00    +0.163 HD
ENDBRANCH   5   6
BRANCH   1   9
ATOM      9  S   UNL     1      -3.139   1.187   0.795  0.00  0.00    -0.078 S 
BRANCH   9  10
ATOM     10  C   UNL     1      -4.471   1.947  -0.167  0.00  0.00    +0.133 C 
BRANCH  10  14
ATOM     11  N   UNL     1      -7.601   3.965   3.019  0.00  0.00    -0.294 N 
ATOM     12  C   UNL     1      -7.138   2.988   2.150  0.00  0.00    +0.163 A 
ATOM     13  N   UNL     1      -6.030   2.973   1.433  0.00  0.00    -0.229 NA
ATOM     14  C   UNL     1      -5.739   1.954   0.648  0.00  0.00    +0.061 A 
ATOM     15  C   UNL     1      -6.607   0.916   0.587  0.00  0.00    +0.072 A 
ATOM     16  S   UNL     1      -7.868   1.471   1.726  0.00  0.00    -0.060 S 
ATOM     17  H   UNL     1      -7.130   4.809   3.095  0.00  0.00    +0.154 HD
BRANCH  11  22
ATOM     18  C   UNL     1     -12.247   3.020   6.132  0.00  0.00    +0.044 C 
ATOM     19  C   UNL     1     -11.013   3.271   5.305  0.00  0.00    -0.050 A 
ATOM     20  C   UNL     1     -10.160   2.225   5.003  0.00  0.00    +0.005 A 
ATOM     21  C   UNL     1      -9.028   2.452   4.245  0.00  0.00    +0.023 A 
ATOM     22  C   UNL     1      -8.746   3.732   3.786  0.00  0.00    +0.033 A 
ATOM     23  C   UNL     1      -9.602   4.782   4.096  0.00  0.00    +0.023 A 
ATOM     24  C   UNL     1     -10.735   4.547   4.849  0.00  0.00    +0.005 A 
ENDBRANCH  11  22
ENDBRANCH  10  14
ENDBRANCH   9  10
ENDBRANCH   1   9
BRANCH   4  25
ATOM     25  C   UNL     1       1.583   0.920  -1.629  0.00  0.00    +0.306 C 
BRANCH  25  26
ATOM     26  O   UNL     1       1.720  -0.372  -2.223  0.00  0.00    -0.481 OA
BRANCH  26  27
ATOM     27  C   UNL     1       2.978  -0.769  -2.551  0.00  0.00    +0.156 A 
ATOM     28  C   UNL     1       4.056   0.070  -2.312  0.00  0.00    +0.048 A 
ATOM     29  C   UNL     1       5.335  -0.338  -2.643  0.00  0.00    +0.004 A 
ATOM     30  C   UNL     1       5.540  -1.577  -3.221  0.00  0.00    +0.003 A 
ATOM     31  C   UNL     1       4.467  -2.414  -3.466  0.00  0.00    +0.042 A 
ATOM     32  C   UNL     1       3.186  -2.014  -3.133  0.00  0.00    +0.165 A 
ATOM     33  F   UNL     1       2.137  -2.831  -3.372  0.00  0.00    -0.202 F 
ENDBRANCH  26  27
ENDBRANCH  25  26
ENDBRANCH   4  25
TORSDOF 8
