REMARK  Name = ZINC08550626
REMARK  5 active torsions:
REMARK  status: ('A' for Active; 'I' for Inactive)
REMARK    1  A    between atoms: C_1  and  C_2
REMARK    2  A    between atoms: C_5  and  C_8
REMARK    3  A    between atoms: C_12  and  C_14
REMARK    4  A    between atoms: C_14  and  O_15
REMARK    5  A    between atoms: O_15  and  C_16
REMARK                            x       y       z     vdW  Elec       q    Type
REMARK                         _______ _______ _______ _____ _____    ______ ____
ROOT
ATOM      1  C   UNL     1       0.059  -4.252  -0.021  0.00  0.00    +0.156 A 
ATOM      2  N   UNL     1       0.070  -5.055   1.067  0.00  0.00    -0.258 N 
ATOM      3  H   UNL     1       0.066  -4.777   1.996  0.00  0.00    +0.191 HD
ATOM      4  N   UNL     1       0.087  -6.373   0.583  0.00  0.00    -0.154 NA
ATOM      5  C   UNL     1       0.086  -6.301  -0.723  0.00  0.00    +0.189 A 
ATOM      6  N   UNL     1       0.064  -5.023  -1.090  0.00  0.00    -0.208 NA
ENDROOT
BRANCH   1  11
ATOM      7  C   UNL     1      -0.018   1.503   0.010  0.00  0.00    +0.044 C 
ATOM      8  C   UNL     1       0.002  -0.004   0.002  0.00  0.00    -0.050 A 
ATOM      9  C   UNL     1       0.006  -0.686  -1.202  0.00  0.00    +0.004 A 
ATOM     10  C   UNL     1       0.024  -2.066  -1.216  0.00  0.00    +0.012 A 
ATOM     11  C   UNL     1       0.040  -2.773  -0.013  0.00  0.00    +0.019 A 
ATOM     12  C   UNL     1       0.036  -2.079   1.197  0.00  0.00    +0.012 A 
ATOM     13  C   UNL     1       0.023  -0.699   1.198  0.00  0.00    +0.004 A 
ENDBRANCH   1  11
BRANCH   5  14
ATOM     14  C   UNL     1       0.101  -7.479  -1.663  0.00  0.00    +0.306 C 
BRANCH  14  15
ATOM     15  O   UNL     1      -1.242  -7.868  -1.960  0.00  0.00    -0.484 OA
BRANCH  15  16
ATOM     16  C   UNL     1      -1.406  -8.923  -2.800  0.00  0.00    +0.129 A 
ATOM     17  C   UNL     1      -0.317  -9.567  -3.317  0.00  0.00    +0.046 A 
ATOM     18  C   UNL     1      -0.469 -10.650  -4.178  0.00  0.00    +0.004 A 
ATOM     19  C   UNL     1      -1.705 -11.099  -4.531  0.00  0.00    +0.009 A 
ATOM     20  C   UNL     1      -2.850 -10.464  -4.020  0.00  0.00    -0.014 A 
ATOM     21  C   UNL     1      -2.701  -9.365  -3.139  0.00  0.00    +0.024 A 
ATOM     22  C   UNL     1      -3.845  -8.733  -2.625  0.00  0.00    +0.012 A 
ATOM     23  C   UNL     1      -5.080  -9.187  -2.975  0.00  0.00    +0.001 A 
ATOM     24  C   UNL     1      -5.227 -10.272  -3.838  0.00  0.00    +0.001 A 
ATOM     25  C   UNL     1      -4.141 -10.902  -4.364  0.00  0.00    +0.008 A 
ENDBRANCH  15  16
ENDBRANCH  14  15
ENDBRANCH   5  14
TORSDOF 4
