REMARK  Name = ZINC23336799
REMARK  15 active torsions:
REMARK  status: ('A' for Active; 'I' for Inactive)
REMARK    1  A    between atoms: C_1  and  C_2
REMARK    2  A    between atoms: C_5  and  C_9
REMARK    3  A    between atoms: C_6  and  C_8
REMARK    4  A    between atoms: C_12  and  C_23
REMARK    5  A    between atoms: N_13  and  C_14
REMARK    6  A    between atoms: C_17  and  C_20
REMARK    7  A    between atoms: C_20  and  C_21
REMARK    8  A    between atoms: C_23  and  C_24
REMARK    9  A    between atoms: C_24  and  C_25
REMARK   10  A    between atoms: N_27  and  C_28
REMARK   11  A    between atoms: C_28  and  C_30
REMARK   12  A    between atoms: C_28  and  C_31
REMARK   13  A    between atoms: C_31  and  N_32
REMARK   14  A    between atoms: N_32  and  C_33
REMARK   15  A    between atoms: N_32  and  C_34
REMARK                            x       y       z     vdW  Elec       q    Type
REMARK                         _______ _______ _______ _____ _____    ______ ____
ROOT
ATOM      1  C   UNL     1       0.816  -0.459   0.736  0.00  0.00    +0.054 A 
ATOM      2  C   UNL     1       0.431  -1.683   0.277  0.00  0.00    +0.028 A 
ATOM      3  C   UNL     1      -0.069  -1.505  -1.024  0.00  0.00    +0.024 A 
ATOM      4  C   UNL     1       0.018  -0.190  -1.322  0.00  0.00    +0.025 A 
ATOM      5  N   UNL     1       0.564   0.461  -0.253  0.00  0.00    -0.313 N 
ENDROOT
BRANCH   1  10
ATOM      6  C   UNL     1       3.091   0.658   5.902  0.00  0.00    +0.044 C 
ATOM      7  C   UNL     1       2.495   0.366   4.549  0.00  0.00    -0.050 A 
ATOM      8  C   UNL     1       1.354   1.033   4.140  0.00  0.00    +0.004 A 
ATOM      9  C   UNL     1       0.804   0.770   2.903  0.00  0.00    +0.010 A 
ATOM     10  C   UNL     1       1.400  -0.172   2.063  0.00  0.00    +0.002 A 
ATOM     11  C   UNL     1       2.548  -0.845   2.484  0.00  0.00    -0.041 A 
ATOM     12  C   UNL     1       3.091  -0.570   3.722  0.00  0.00    +0.007 A 
ATOM     13  C   UNL     1       3.195  -1.868   1.586  0.00  0.00    +0.044 C 
ENDBRANCH   1  10
BRANCH   5  14
ATOM     14  C   UNL     1       0.819   1.836  -0.175  0.00  0.00    +0.047 A 
ATOM     15  C   UNL     1      -0.236   2.739  -0.150  0.00  0.00    +0.026 A 
ATOM     16  C   UNL     1       0.019   4.094  -0.067  0.00  0.00    +0.006 A 
ATOM     17  C   UNL     1       1.322   4.553  -0.022  0.00  0.00    -0.033 A 
ATOM     18  C   UNL     1       2.375   3.656  -0.053  0.00  0.00    +0.006 A 
ATOM     19  C   UNL     1       2.127   2.300  -0.130  0.00  0.00    +0.026 A 
BRANCH  17  20
ATOM     20  C   UNL     1       1.597   6.032   0.061  0.00  0.00    +0.153 C 
BRANCH  20  21
ATOM     21  C   UNL     1       1.708   6.588  -1.297  0.00  0.00    +0.067 C 
ATOM     22  N   UNL     1       1.794   7.017  -2.345  0.00  0.00    -0.196 NA
ENDBRANCH  20  21
ENDBRANCH  17  20
ENDBRANCH   5  14
BRANCH   4  23
ATOM     23  C   UNL     1      -0.412   0.450  -2.617  0.00  0.00    +0.063 C 
BRANCH  23  24
ATOM     24  C   UNL     1      -1.907   0.767  -2.557  0.00  0.00    +0.102 C 
BRANCH  24  25
ATOM     25  C   UNL     1      -2.337   1.407  -3.852  0.00  0.00    +0.214 C 
ATOM     26  O   UNL     1      -1.527   1.591  -4.735  0.00  0.00    -0.276 OA
ATOM     27  N   UNL     1      -3.622   1.775  -4.028  0.00  0.00    -0.314 N 
ATOM     28  H   UNL     1      -4.357   1.608  -3.226  0.00  0.00    +0.149 HD
BRANCH  27  29
ATOM     29  C   UNL     1      -4.040   2.397  -5.287  0.00  0.00    +0.053 C 
ATOM     30  C   UNL     1      -4.365   1.308  -6.311  0.00  0.00    +0.026 C 
BRANCH  29  31
ATOM     31  C   UNL     1      -5.283   3.255  -5.043  0.00  0.00    -0.057 C 
BRANCH  31  32
ATOM     32  N   UNL     1      -5.008   4.224  -3.974  0.00  0.00    +0.377 N 
ATOM     33  C   UNL     1      -3.989   5.196  -4.394  0.00  0.00    -0.097 C 
ATOM     34  C   UNL     1      -6.239   4.903  -3.549  0.00  0.00    -0.097 C 
ATOM     35  H   UNL     1      -4.611   3.671  -3.110  0.00  0.00    -0.083 HD
ENDBRANCH  31  32
ENDBRANCH  29  31
ENDBRANCH  27  29
ENDBRANCH  24  25
ENDBRANCH  23  24
ENDBRANCH   4  23
TORSDOF 10
