REMARK  Name = ZINC20154459
REMARK  3 active torsions:
REMARK  status: ('A' for Active; 'I' for Inactive)
REMARK    1  A    between atoms: C_3  and  C_9
REMARK    2  A    between atoms: C_12  and  C_14
REMARK    3  A    between atoms: N_15  and  O_16
REMARK                            x       y       z     vdW  Elec       q    Type
REMARK                         _______ _______ _______ _____ _____    ______ ____
ROOT
ATOM      1  C   UNL     1       3.655   2.162  -0.022  0.00  0.00    +0.137 A 
ATOM      2  C   UNL     1       4.714   1.949   0.811  0.00  0.00    +0.050 A 
ATOM      3  C   UNL     1       5.703   2.877   0.463  0.00  0.00    +0.051 A 
ATOM      4  C   UNL     1       5.205   3.620  -0.571  0.00  0.00    +0.150 A 
ATOM      5  O   UNL     1       3.966   3.171  -0.857  0.00  0.00    -0.454 OA
ENDROOT
BRANCH   1   8
ATOM      6  C   UNL     1      -0.017   1.380   0.010  0.00  0.00    +0.015 A 
ATOM      7  C   UNL     1       1.166   2.090   0.002  0.00  0.00    +0.014 A 
ATOM      8  C   UNL     1       2.385   1.409  -0.013  0.00  0.00    +0.036 A 
ATOM      9  C   UNL     1       2.398   0.011  -0.021  0.00  0.00    +0.053 A 
ATOM     10  C   UNL     1       1.206  -0.686  -0.013  0.00  0.00    +0.035 A 
ATOM     11  C   UNL     1       0.002  -0.004   0.002  0.00  0.00    +0.015 A 
ATOM     12  I   UNL     1      -1.801  -1.071   0.013  0.00  0.00    -0.044 I 
ATOM     13 CL   UNL     1       3.907  -0.846  -0.040  0.00  0.00    -0.083 Cl
ENDBRANCH   1   8
BRANCH   4  14
ATOM     14  C   UNL     1       5.901   4.713  -1.256  0.00  0.00    +0.199 C 
ATOM     15  N   UNL     1       5.318   5.345  -2.228  0.00  0.00    -0.092 NA
BRANCH  15  16
ATOM     16  O   UNL     1       5.990   6.401  -2.890  0.00  0.00    -0.409 OA
ATOM     17  H   UNL     1       5.476   6.811  -3.599  0.00  0.00    +0.328 HD
ENDBRANCH  15  16
ENDBRANCH   4  14
TORSDOF 3
