REMARK  Name = ZINC35293140
REMARK  11 active torsions:
REMARK  status: ('A' for Active; 'I' for Inactive)
REMARK    1  A    between atoms: C_1  and  N_2
REMARK    2  A    between atoms: N_2  and  C_3
REMARK    3  A    between atoms: N_2  and  C_4
REMARK    4  A    between atoms: C_4  and  C_5
REMARK    5  A    between atoms: C_5  and  N_6
REMARK    6  A    between atoms: N_6  and  C_7
REMARK    7  A    between atoms: C_7  and  C_8
REMARK    8  A    between atoms: C_14  and  C_16
REMARK    9  A    between atoms: C_18  and  C_28
REMARK   10  A    between atoms: N_20  and  C_21
REMARK   11  A    between atoms: C_31  and  N_34
REMARK                            x       y       z     vdW  Elec       q    Type
REMARK                         _______ _______ _______ _____ _____    ______ ____
ROOT
ATOM      1  C   UNL     1      -3.279  -3.940   1.594  0.00  0.00    +0.130 A 
ATOM      2  C   UNL     1      -2.311  -3.163   2.204  0.00  0.00    +0.063 A 
ATOM      3  C   UNL     1      -2.500  -3.349   3.585  0.00  0.00    +0.094 A 
ATOM      4  N   UNL     1      -3.511  -4.179   3.741  0.00  0.00    -0.166 NA
ATOM      5  N   UNL     1      -3.988  -4.536   2.603  0.00  0.00    -0.227 N 
ENDROOT
BRANCH   5   6
ATOM      6  C   UNL     1      -5.069  -5.406   2.420  0.00  0.00    +0.066 A 
ATOM      7  C   UNL     1      -6.105  -5.059   1.563  0.00  0.00    +0.029 A 
ATOM      8  C   UNL     1      -7.170  -5.919   1.385  0.00  0.00    +0.022 A 
ATOM      9  C   UNL     1      -7.206  -7.127   2.060  0.00  0.00    +0.041 A 
ATOM     10  C   UNL     1      -6.174  -7.476   2.914  0.00  0.00    +0.022 A 
ATOM     11  C   UNL     1      -5.104  -6.622   3.091  0.00  0.00    +0.029 A 
ATOM     12 CL   UNL     1      -8.547  -8.207   1.834  0.00  0.00    -0.084 Cl
ENDBRANCH   5   6
BRANCH   3  13
ATOM     13  C   UNL     1      -1.704  -2.725   4.671  0.00  0.00    +0.002 A 
ATOM     14  C   UNL     1      -0.585  -1.955   4.363  0.00  0.00    +0.012 A 
ATOM     15  C   UNL     1       0.152  -1.376   5.377  0.00  0.00    +0.033 A 
ATOM     16  C   UNL     1      -0.220  -1.559   6.696  0.00  0.00    +0.126 A 
ATOM     17  C   UNL     1      -1.330  -2.324   7.008  0.00  0.00    +0.033 A 
ATOM     18  C   UNL     1      -2.077  -2.902   6.002  0.00  0.00    +0.012 A 
BRANCH  16  19
ATOM     19  N   UNL     1       0.574  -0.936   7.779  0.00  0.00    +0.056 N 
ATOM     20  O   UNL     1       1.545  -0.268   7.509  0.00  0.00    -0.126 OA
ATOM     21  O   UNL     1       0.251  -1.095   8.934  0.00  0.00    -0.126 OA
ENDBRANCH  16  19
ENDBRANCH   3  13
BRANCH   1  23
ATOM     22  N   UNL     1      -2.592  -3.632  -0.729  0.00  0.00    -0.294 N 
ATOM     23  C   UNL     1      -3.506  -4.091   0.149  0.00  0.00    +0.265 C 
ATOM     24  O   UNL     1      -4.519  -4.630  -0.255  0.00  0.00    -0.268 OA
BRANCH  22  25
ATOM     25  C   UNL     1      -1.300  -3.134  -0.248  0.00  0.00    +0.090 C 
BRANCH  25  26
ATOM     26  C   UNL     1      -1.344  -1.607  -0.158  0.00  0.00    -0.060 C 
BRANCH  26  28
ATOM     27  C   UNL     1      -0.004   0.371   0.054  0.00  0.00    -0.097 C 
ATOM     28  N   UNL     1       0.002  -1.096   0.136  0.00  0.00    +0.377 N 
ATOM     29  C   UNL     1       0.398  -1.509   1.489  0.00  0.00    -0.097 C 
ATOM     30  H   UNL     1       0.657  -1.468  -0.535  0.00  0.00    -0.083 HD
ENDBRANCH  26  28
ENDBRANCH  25  26
ENDBRANCH  22  25
BRANCH  22  31
ATOM     31  C   UNL     1      -2.889  -3.631  -2.163  0.00  0.00    +0.143 C 
BRANCH  31  32
ATOM     32  C   UNL     1      -2.445  -4.937  -2.769  0.00  0.00    -0.030 A 
ATOM     33  C   UNL     1      -1.161  -5.067  -3.265  0.00  0.00    +0.005 A 
ATOM     34  C   UNL     1      -0.754  -6.265  -3.822  0.00  0.00    +0.000 A 
ATOM     35  C   UNL     1      -1.630  -7.333  -3.881  0.00  0.00    +0.000 A 
ATOM     36  C   UNL     1      -2.913  -7.203  -3.384  0.00  0.00    +0.000 A 
ATOM     37  C   UNL     1      -3.319  -6.006  -2.824  0.00  0.00    +0.005 A 
ENDBRANCH  31  32
ENDBRANCH  22  31
ENDBRANCH   1  23
TORSDOF 9
