REMARK  Name = ZINC24659222
REMARK  8 active torsions:
REMARK  status: ('A' for Active; 'I' for Inactive)
REMARK    1  A    between atoms: C_1  and  C_2
REMARK    2  A    between atoms: C_6  and  C_8
REMARK    3  A    between atoms: N_14  and  C_15
REMARK    4  A    between atoms: C_15  and  C_16
REMARK    5  A    between atoms: C_16  and  C_17
REMARK    6  A    between atoms: N_19  and  C_20
REMARK    7  A    between atoms: C_20  and  C_22
REMARK    8  A    between atoms: C_20  and  C_32
REMARK                            x       y       z     vdW  Elec       q    Type
REMARK                         _______ _______ _______ _____ _____    ______ ____
ROOT
ATOM      1  C   UNL     1      -0.290   0.341   0.240  0.00  0.00    +0.215 C 
ATOM      2  O   UNL     1      -0.477  -0.829  -0.020  0.00  0.00    -0.276 OA
ATOM      3  N   UNL     1       0.958   0.785   0.487  0.00  0.00    -0.304 N 
ATOM      4  H   UNL     1       1.127   1.846   0.723  0.00  0.00    +0.150 HD
ENDROOT
BRANCH   1   5
ATOM      5  C   UNL     1      -1.454   1.298   0.283  0.00  0.00    +0.117 C 
BRANCH   5   6
ATOM      6  C   UNL     1      -2.746   0.545  -0.037  0.00  0.00    +0.135 C 
BRANCH   6  13
ATOM      7  C   UNL     1      -4.421   2.136  -1.080  0.00  0.00    +0.163 A 
ATOM      8  N   UNL     1      -5.410   2.875  -0.661  0.00  0.00    -0.153 NA
ATOM      9  N   UNL     1      -5.524   2.703   0.725  0.00  0.00    -0.254 N 
ATOM     10  H   UNL     1      -6.300   3.245   1.284  0.00  0.00    +0.191 HD
ATOM     11  C   UNL     1      -4.568   1.830   1.105  0.00  0.00    +0.176 A 
ATOM     12  S   UNL     1      -4.282   1.276   2.700  0.00  0.00    -0.011 S 
ATOM     13  N   UNL     1      -3.877   1.476   0.004  0.00  0.00    -0.303 N 
BRANCH   7  19
ATOM     14  C   UNL     1      -5.298   2.632  -5.968  0.00  0.00    +0.044 C 
ATOM     15  C   UNL     1      -4.378   2.259  -4.835  0.00  0.00    -0.050 A 
ATOM     16  C   UNL     1      -3.097   1.810  -5.104  0.00  0.00    +0.003 A 
ATOM     17  C   UNL     1      -2.246   1.466  -4.070  0.00  0.00    +0.001 A 
ATOM     18  C   UNL     1      -2.668   1.575  -2.760  0.00  0.00    +0.011 A 
ATOM     19  C   UNL     1      -3.960   2.022  -2.482  0.00  0.00    +0.019 A 
ATOM     20  C   UNL     1      -4.814   2.367  -3.530  0.00  0.00    +0.015 A 
ENDBRANCH   7  19
ENDBRANCH   6  13
ENDBRANCH   5   6
ENDBRANCH   1   5
BRANCH   3  21
ATOM     21  C   UNL     1       2.089  -0.144   0.440  0.00  0.00    +0.140 C 
BRANCH  21  22
ATOM     22  C   UNL     1       3.353   0.618   0.135  0.00  0.00    -0.022 A 
ATOM     23  C   UNL     1       3.571   1.857   0.709  0.00  0.00    +0.006 A 
ATOM     24  C   UNL     1       4.732   2.546   0.428  0.00  0.00    +0.004 A 
ATOM     25  C   UNL     1       5.679   2.012  -0.437  0.00  0.00    -0.044 A 
ATOM     26  C   UNL     1       5.461   0.780  -1.010  0.00  0.00    -0.044 A 
ATOM     27  C   UNL     1       4.293   0.084  -0.721  0.00  0.00    +0.009 A 
ATOM     28  C   UNL     1       6.447   0.136  -1.948  0.00  0.00    +0.035 C 
ATOM     29  C   UNL     1       7.429   1.172  -2.490  0.00  0.00    +0.005 C 
ATOM     30  C   UNL     1       8.016   1.948  -1.305  0.00  0.00    +0.005 C 
ATOM     31  C   UNL     1       6.917   2.826  -0.711  0.00  0.00    +0.035 C 
ENDBRANCH  21  22
BRANCH  21  32
ATOM     32  C   UNL     1       2.228  -0.835   1.772  0.00  0.00    +0.014 A 
ATOM     33  C   UNL     1       2.522  -2.132   2.035  0.00  0.00    +0.013 A 
ATOM     34  C   UNL     1       2.601  -2.548   3.350  0.00  0.00    +0.008 A 
ATOM     35  C   UNL     1       2.372  -1.649   4.339  0.00  0.00    +0.045 A 
ATOM     36  S   UNL     1       2.039  -0.159   3.414  0.00  0.00    -0.099 S 
ENDBRANCH  21  32
ENDBRANCH   3  21
TORSDOF 7
