REMARK  Name = ZINC13720072
REMARK  6 active torsions:
REMARK  status: ('A' for Active; 'I' for Inactive)
REMARK    1  A    between atoms: C_1  and  C_2
REMARK    2  A    between atoms: C_2  and  C_3
REMARK    3  A    between atoms: C_2  and  C_4
REMARK    4  A    between atoms: C_4  and  C_5
REMARK    5  A    between atoms: C_7  and  C_11
REMARK    6  A    between atoms: C_17  and  C_19
REMARK                            x       y       z     vdW  Elec       q    Type
REMARK                         _______ _______ _______ _____ _____    ______ ____
ROOT
ATOM      1  C   UNL     1      -1.750  -0.785   5.656  0.00  0.00    +0.203 A 
ATOM      2  N   UNL     1      -2.015  -2.046   5.920  0.00  0.00    -0.125 NA
ATOM      3  N   UNL     1      -2.561  -2.144   7.082  0.00  0.00    -0.120 NA
ATOM      4  C   UNL     1      -2.671  -0.962   7.615  0.00  0.00    +0.219 A 
ATOM      5  N   UNL     1      -2.159  -0.029   6.747  0.00  0.00    -0.184 N 
ATOM      6  N   UNL     1      -2.194   1.294   7.167  0.00  0.00    -0.155 NA
ATOM      7  C   UNL     1      -2.688   1.621   8.333  0.00  0.00    +0.133 A 
ATOM      8  S   UNL     1      -3.189   0.037   8.988  0.00  0.00    -0.026 S 
ENDROOT
BRANCH   7   9
ATOM      9  C   UNL     1      -2.809   2.962   8.948  0.00  0.00    +0.023 A 
ATOM     10  C   UNL     1      -3.368   3.102  10.219  0.00  0.00    +0.012 A 
ATOM     11  C   UNL     1      -3.478   4.354  10.787  0.00  0.00    +0.001 A 
ATOM     12  C   UNL     1      -3.036   5.471  10.100  0.00  0.00    +0.001 A 
ATOM     13  C   UNL     1      -2.482   5.340   8.839  0.00  0.00    +0.016 A 
ATOM     14  C   UNL     1      -2.360   4.091   8.262  0.00  0.00    +0.028 A 
ATOM     15 BR   UNL     1      -1.594   3.913   6.542  0.00  0.00    -0.050 Br
ENDBRANCH   7   9
BRANCH   1  18
ATOM     16  C   UNL     1      -0.030  -0.130   2.478  0.00  0.00    +0.064 A 
ATOM     17  C   UNL     1      -0.460  -1.009   3.471  0.00  0.00    +0.056 A 
ATOM     18  C   UNL     1      -1.126  -0.269   4.426  0.00  0.00    +0.105 A 
ATOM     19  N   UNL     1      -1.098   1.033   4.016  0.00  0.00    -0.274 N 
ATOM     20  H   UNL     1      -1.487   1.789   4.483  0.00  0.00    +0.189 HD
ATOM     21  N   UNL     1      -0.403   1.083   2.801  0.00  0.00    -0.178 NA
BRANCH  16  22
ATOM     22  C   UNL     1       0.742  -0.511   1.242  0.00  0.00    +0.060 C 
BRANCH  22  24
ATOM     23  C   UNL     1      -0.019   1.526   0.010  0.00  0.00    +0.007 C 
ATOM     24  C   UNL     1       0.002  -0.004   0.002  0.00  0.00    -0.011 C 
ATOM     25  C   UNL     1       0.718  -0.497  -1.257  0.00  0.00    +0.007 C 
ENDBRANCH  22  24
ENDBRANCH  16  22
ENDBRANCH   1  18
TORSDOF 4
