REMARK  Name = ZINC42007602
REMARK  7 active torsions:
REMARK  status: ('A' for Active; 'I' for Inactive)
REMARK    1  A    between atoms: C_1  and  C_2
REMARK    2  A    between atoms: C_5  and  S_9
REMARK    3  A    between atoms: C_6  and  N_8
REMARK    4  A    between atoms: S_9  and  C_10
REMARK    5  A    between atoms: C_10  and  C_11
REMARK    6  A    between atoms: C_10  and  C_12
REMARK    7  A    between atoms: C_10  and  C_19
REMARK                            x       y       z     vdW  Elec       q    Type
REMARK                         _______ _______ _______ _____ _____    ______ ____
ROOT
ATOM      1  C   UNL     1      -0.095  -4.962  -1.793  0.00  0.00    +0.144 C 
ATOM      2  C   UNL     1      -1.344  -4.294  -2.370  0.00  0.00    +0.040 C 
ENDROOT
BRANCH   1   3
ATOM      3  C   UNL     1      -0.220  -6.458  -1.925  0.00  0.00    -0.019 A 
ATOM      4  C   UNL     1      -1.347  -7.010  -2.506  0.00  0.00    +0.005 A 
ATOM      5  C   UNL     1      -1.462  -8.382  -2.627  0.00  0.00    +0.002 A 
ATOM      6  C   UNL     1      -0.450  -9.204  -2.166  0.00  0.00    +0.020 A 
ATOM      7  C   UNL     1       0.677  -8.653  -1.584  0.00  0.00    +0.041 A 
ATOM      8  C   UNL     1       0.795  -7.279  -1.469  0.00  0.00    +0.025 A 
ATOM      9 CL   UNL     1       1.948  -9.684  -1.006  0.00  0.00    -0.084 Cl
ENDBRANCH   1   3
BRANCH   1  10
ATOM     10  C   UNL     1       1.121  -4.491  -2.549  0.00  0.00    +0.376 C 
ATOM     11  O   UNL     1       2.018  -3.912  -1.960  0.00  0.00    -0.244 OA
ATOM     12  O   UNL     1       1.208  -4.690  -3.748  0.00  0.00    -0.244 OA
ENDBRANCH   1  10
BRANCH   1  13
ATOM     13  S   UNL     1       0.073  -4.521  -0.042  0.00  0.00    -0.101 S 
BRANCH  13  18
ATOM     14  C   UNL     1       0.431   1.509  -0.089  0.00  0.00    +0.044 C 
ATOM     15  C   UNL     1       0.342   0.004  -0.073  0.00  0.00    -0.049 A 
ATOM     16  C   UNL     1       0.343  -0.698  -1.264  0.00  0.00    +0.004 A 
ATOM     17  C   UNL     1       0.261  -2.078  -1.258  0.00  0.00    +0.017 A 
ATOM     18  C   UNL     1       0.178  -2.762  -0.054  0.00  0.00    +0.030 A 
ATOM     19  C   UNL     1       0.178  -2.053   1.148  0.00  0.00    +0.038 A 
ATOM     20  C   UNL     1       0.266  -0.669   1.132  0.00  0.00    +0.027 A 
BRANCH  19  21
ATOM     21  N   UNL     1       0.094  -2.737   2.367  0.00  0.00    -0.357 N 
ATOM     22  H   UNL     1       0.036  -3.705   2.377  0.00  0.00    +0.142 HD
ATOM     23  H   UNL     1       0.094  -2.243   3.201  0.00  0.00    +0.142 HD
ENDBRANCH  19  21
ENDBRANCH  13  18
ENDBRANCH   1  13
TORSDOF 5
