REMARK  Name = ZINC31808495
REMARK  9 active torsions:
REMARK  status: ('A' for Active; 'I' for Inactive)
REMARK    1  A    between atoms: C_1  and  O_2
REMARK    2  A    between atoms: O_2  and  C_3
REMARK    3  A    between atoms: C_3  and  C_5
REMARK    4  A    between atoms: C_5  and  C_6
REMARK    5  A    between atoms: C_6  and  C_8
REMARK    6  A    between atoms: C_6  and  N_12
REMARK    7  A    between atoms: C_8  and  O_10
REMARK    8  A    between atoms: O_10  and  C_11
REMARK    9  A    between atoms: C_24  and  C_26
REMARK                            x       y       z     vdW  Elec       q    Type
REMARK                         _______ _______ _______ _____ _____    ______ ____
ROOT
ATOM      1  N   UNL     1      -5.715  -2.267   0.127  0.00  0.00    -0.286 N 
ATOM      2  C   UNL     1      -4.831  -2.053   1.122  0.00  0.00    +0.304 C 
ATOM      3  O   UNL     1      -3.655  -2.314   0.957  0.00  0.00    -0.253 OA
ATOM      4  N   UNL     1      -5.251  -1.549   2.299  0.00  0.00    -0.273 N 
ATOM      5  C   UNL     1      -4.289  -1.198   3.354  0.00  0.00    +0.116 C 
ATOM      6  C   UNL     1      -4.525  -2.103   4.570  0.00  0.00    +0.074 C 
ATOM      7  C   UNL     1      -6.005  -2.177   4.840  0.00  0.00    +0.040 A 
ATOM      8  C   UNL     1      -6.968  -1.844   3.955  0.00  0.00    +0.062 A 
ATOM      9  N   UNL     1      -8.153  -2.040   4.537  0.00  0.00    -0.348 N 
ATOM     10  C   UNL     1      -7.965  -2.480   5.754  0.00  0.00    +0.171 A 
ATOM     11  N   UNL     1      -6.635  -2.577   5.980  0.00  0.00    -0.349 N 
ATOM     12  H   UNL     1      -6.209  -2.876   6.799  0.00  0.00    +0.166 HD
ATOM     13  C   UNL     1      -6.686  -1.332   2.558  0.00  0.00    +0.157 C 
ATOM     14  H   UNL     1      -6.662  -2.128   0.281  0.00  0.00    +0.151 HD
ATOM     15  H   UNL     1      -9.017  -1.881   4.123  0.00  0.00    +0.167 HD
ENDROOT
BRANCH  13  16
ATOM     16  C   UNL     1      -7.005   0.139   2.473  0.00  0.00    -0.003 A 
ATOM     17  C   UNL     1      -6.411   1.027   3.350  0.00  0.00    +0.009 A 
ATOM     18  C   UNL     1      -6.703   2.375   3.272  0.00  0.00    +0.020 A 
ATOM     19  C   UNL     1      -7.590   2.838   2.316  0.00  0.00    +0.042 A 
ATOM     20  C   UNL     1      -8.184   1.950   1.438  0.00  0.00    +0.040 A 
ATOM     21  C   UNL     1      -7.888   0.600   1.513  0.00  0.00    +0.048 A 
ATOM     22 CL   UNL     1      -8.629  -0.514   0.407  0.00  0.00    -0.083 Cl
ATOM     23 CL   UNL     1      -7.957   4.532   2.219  0.00  0.00    -0.083 Cl
ENDBRANCH  13  16
BRANCH   1  24
ATOM     24  C   UNL     1      -5.244  -2.710  -1.188  0.00  0.00    +0.194 C 
BRANCH  24  25
ATOM     25  C   UNL     1      -4.834  -1.512  -2.005  0.00  0.00    +0.328 C 
ATOM     26  O   UNL     1      -4.925  -0.402  -1.537  0.00  0.00    -0.249 OA
BRANCH  25  27
ATOM     27  O   UNL     1      -4.367  -1.678  -3.252  0.00  0.00    -0.467 OA
ATOM     28  C   UNL     1      -3.997  -0.498  -3.969  0.00  0.00    +0.280 C 
ENDBRANCH  25  27
ENDBRANCH  24  25
BRANCH  24  29
ATOM     29  C   UNL     1      -6.369  -3.457  -1.907  0.00  0.00    +0.154 C 
BRANCH  29  30
ATOM     30  C   UNL     1      -6.695  -4.721  -1.154  0.00  0.00    +0.309 C 
ATOM     31  O   UNL     1      -6.090  -4.996  -0.145  0.00  0.00    -0.251 OA
BRANCH  30  33
ATOM     32  C   UNL     1      -7.914  -6.721  -0.840  0.00  0.00    +0.280 C 
ATOM     33  O   UNL     1      -7.658  -5.540  -1.603  0.00  0.00    -0.468 OA
ENDBRANCH  30  33
ENDBRANCH  29  30
ENDBRANCH  24  29
ENDBRANCH   1  24
TORSDOF 7
