REMARK  Name = ZINC22920217
REMARK  7 active torsions:
REMARK  status: ('A' for Active; 'I' for Inactive)
REMARK    1  A    between atoms: N_9  and  C_34
REMARK    2  A    between atoms: C_10  and  C_12
REMARK    3  A    between atoms: C_12  and  N_13
REMARK    4  A    between atoms: N_16  and  C_19
REMARK    5  A    between atoms: C_19  and  C_20
REMARK    6  A    between atoms: C_19  and  C_27
REMARK    7  A    between atoms: C_34  and  C_35
REMARK                            x       y       z     vdW  Elec       q    Type
REMARK                         _______ _______ _______ _____ _____    ______ ____
ROOT
ATOM      1  N   UNL     1       4.195   1.380  -0.059  0.00  0.00    +0.386 N 
ATOM      2  C   UNL     1       3.434   2.001   1.034  0.00  0.00    -0.063 C 
ATOM      3  C   UNL     1       2.024   1.407   1.071  0.00  0.00    +0.067 C 
ATOM      4  N   UNL     1       1.365   1.636  -0.222  0.00  0.00    -0.295 NA
ATOM      5  C   UNL     1       2.126   1.015  -1.315  0.00  0.00    +0.067 C 
ATOM      6  C   UNL     1       3.536   1.609  -1.353  0.00  0.00    -0.063 C 
ATOM      7  H   UNL     1       4.224   0.295   0.120  0.00  0.00    -0.081 HD
ENDROOT
BRANCH   1   8
ATOM      8  C   UNL     1       5.580   1.870  -0.081  0.00  0.00    -0.003 C 
BRANCH   8  18
ATOM      9  C   UNL     1       7.529  -0.820   5.379  0.00  0.00    +0.001 A 
ATOM     10  C   UNL     1       6.238  -1.231   5.071  0.00  0.00    +0.002 A 
ATOM     11  C   UNL     1       5.606  -0.779   3.935  0.00  0.00    +0.028 A 
ATOM     12  C   UNL     1       6.269   0.104   3.080  0.00  0.00    +0.078 A 
ATOM     13  C   UNL     1       7.581   0.520   3.396  0.00  0.00    +0.065 A 
ATOM     14  C   UNL     1       8.203   0.051   4.551  0.00  0.00    +0.015 A 
ATOM     15  C   UNL     1       8.251   1.450   2.474  0.00  0.00    +0.262 A 
ATOM     16  O   UNL     1       9.382   1.847   2.688  0.00  0.00    -0.267 OA
ATOM     17  N   UNL     1       7.563   1.843   1.377  0.00  0.00    -0.289 N 
ATOM     18  C   UNL     1       6.300   1.395   1.155  0.00  0.00    +0.097 A 
ATOM     19  N   UNL     1       5.684   0.574   1.950  0.00  0.00    -0.235 NA
BRANCH  17  20
ATOM     20  C   UNL     1       8.185   2.765   0.423  0.00  0.00    +0.221 C 
BRANCH  20  21
ATOM     21  C   UNL     1       7.878   4.185   0.823  0.00  0.00    +0.230 C 
ATOM     22  O   UNL     1       7.207   4.405   1.809  0.00  0.00    -0.274 OA
ATOM     23  N   UNL     1       8.350   5.210   0.086  0.00  0.00    -0.328 N 
ATOM     24  H   UNL     1       8.127   6.246   0.379  0.00  0.00    +0.145 HD
ATOM     25  H   UNL     1       8.959   5.010  -0.808  0.00  0.00    +0.145 HD
ENDBRANCH  20  21
ENDBRANCH  17  20
ENDBRANCH   8  18
ENDBRANCH   1   8
BRANCH   4  26
ATOM     26  C   UNL     1      -0.020   1.146  -0.200  0.00  0.00    +0.117 C 
BRANCH  26  27
ATOM     27  C   UNL     1      -0.663   1.397  -1.540  0.00  0.00    -0.026 A 
ATOM     28  C   UNL     1      -0.423   2.582  -2.210  0.00  0.00    +0.008 A 
ATOM     29  C   UNL     1      -1.008   2.812  -3.441  0.00  0.00    +0.038 A 
ATOM     30  C   UNL     1      -1.843   1.858  -3.998  0.00  0.00    +0.123 A 
ATOM     31  C   UNL     1      -2.086   0.674  -3.324  0.00  0.00    +0.038 A 
ATOM     32  C   UNL     1      -1.496   0.444  -2.096  0.00  0.00    +0.008 A 
ATOM     33  F   UNL     1      -2.418   2.083  -5.200  0.00  0.00    -0.205 F 
ENDBRANCH  26  27
BRANCH  26  34
ATOM     34  C   UNL     1      -0.793   1.871   0.871  0.00  0.00    -0.026 A 
ATOM     35  C   UNL     1      -0.591   3.224   1.072  0.00  0.00    +0.008 A 
ATOM     36  C   UNL     1      -1.303   3.891   2.051  0.00  0.00    +0.038 A 
ATOM     37  C   UNL     1      -2.210   3.202   2.838  0.00  0.00    +0.123 A 
ATOM     38  C   UNL     1      -2.408   1.846   2.639  0.00  0.00    +0.038 A 
ATOM     39  C   UNL     1      -1.699   1.182   1.656  0.00  0.00    +0.008 A 
ATOM     40  F   UNL     1      -2.903   3.852   3.799  0.00  0.00    -0.205 F 
ENDBRANCH  26  34
ENDBRANCH   4  26
TORSDOF 7
