REMARK  Name = ZINC39452619
REMARK  6 active torsions:
REMARK  status: ('A' for Active; 'I' for Inactive)
REMARK    1  A    between atoms: C_1  and  O_2
REMARK    2  A    between atoms: O_2  and  N_3
REMARK    3  A    between atoms: C_12  and  C_18
REMARK    4  A    between atoms: C_23  and  O_24
REMARK    5  A    between atoms: C_26  and  C_31
REMARK    6  A    between atoms: C_36  and  O_37
REMARK                            x       y       z     vdW  Elec       q    Type
REMARK                         _______ _______ _______ _____ _____    ______ ____
ROOT
ATOM      1  N   UNL     1       0.493  -0.497  -1.047  0.00  0.00    -0.139 N 
ATOM      2  C   UNL     1      -0.212  -0.791  -2.210  0.00  0.00    +0.149 A 
ATOM      3  C   UNL     1       0.424  -1.336  -3.308  0.00  0.00    +0.085 A 
ATOM      4  C   UNL     1       1.871  -1.605  -3.258  0.00  0.00    +0.100 A 
ATOM      5  C   UNL     1       2.565  -1.294  -2.058  0.00  0.00    +0.070 A 
ATOM      6  C   UNL     1       1.815  -0.714  -0.934  0.00  0.00    +0.293 A 
ATOM      7  O   UNL     1       2.391  -0.435   0.101  0.00  0.00    -0.264 OA
ATOM      8  C   UNL     1       3.929  -1.535  -1.970  0.00  0.00    +0.026 A 
ATOM      9  C   UNL     1       4.570  -2.085  -3.088  0.00  0.00    +0.009 A 
ATOM     10  C   UNL     1       5.959  -2.361  -3.070  0.00  0.00    -0.005 A 
ATOM     11  C   UNL     1       6.557  -2.903  -4.194  0.00  0.00    +0.009 A 
ATOM     12  C   UNL     1       5.806  -3.175  -5.332  0.00  0.00    +0.003 A 
ATOM     13  C   UNL     1       4.469  -2.920  -5.376  0.00  0.00    +0.028 A 
ATOM     14  C   UNL     1       3.816  -2.370  -4.256  0.00  0.00    +0.072 A 
ATOM     15  N   UNL     1       2.505  -2.120  -4.294  0.00  0.00    -0.245 NA
ATOM     16  N   UNL     1      -0.299  -1.632  -4.447  0.00  0.00    -0.333 N 
ATOM     17  C   UNL     1      -1.733  -1.926  -4.306  0.00  0.00    +0.112 C 
ATOM     18  C   UNL     1      -2.384  -0.780  -3.523  0.00  0.00    +0.108 C 
ATOM     19  C   UNL     1      -1.600  -0.530  -2.260  0.00  0.00    +0.187 C 
ATOM     20  O   UNL     1      -2.167  -0.101  -1.276  0.00  0.00    -0.290 OA
ATOM     21  H   UNL     1       0.128  -1.645  -5.318  0.00  0.00    +0.147 HD
ENDROOT
BRANCH  10  22
ATOM     22  C   UNL     1       6.763  -2.071  -1.861  0.00  0.00    +0.024 A 
ATOM     23  C   UNL     1       7.762  -1.098  -1.900  0.00  0.00    +0.012 A 
ATOM     24  C   UNL     1       8.507  -0.832  -0.770  0.00  0.00    +0.001 A 
ATOM     25  C   UNL     1       8.269  -1.527   0.403  0.00  0.00    +0.004 A 
ATOM     26  C   UNL     1       7.283  -2.494   0.453  0.00  0.00    +0.046 A 
ATOM     27  C   UNL     1       6.521  -2.768  -0.672  0.00  0.00    +0.125 A 
BRANCH  27  28
ATOM     28  O   UNL     1       5.548  -3.714  -0.622  0.00  0.00    -0.506 OA
ATOM     29  H   UNL     1       5.852  -4.604  -0.850  0.00  0.00    +0.292 HD
ENDBRANCH  27  28
ENDBRANCH  10  22
BRANCH  17  30
ATOM     30  C   UNL     1      -1.915  -3.221  -3.557  0.00  0.00    +0.014 A 
ATOM     31  C   UNL     1      -0.872  -3.744  -2.816  0.00  0.00    +0.009 A 
ATOM     32  C   UNL     1      -1.037  -4.932  -2.129  0.00  0.00    +0.001 A 
ATOM     33  C   UNL     1      -2.246  -5.600  -2.181  0.00  0.00    +0.004 A 
ATOM     34  C   UNL     1      -3.292  -5.082  -2.919  0.00  0.00    +0.046 A 
ATOM     35  C   UNL     1      -3.131  -3.887  -3.605  0.00  0.00    +0.122 A 
BRANCH  35  36
ATOM     36  O   UNL     1      -4.160  -3.372  -4.328  0.00  0.00    -0.506 OA
ATOM     37  H   UNL     1      -4.184  -3.672  -5.247  0.00  0.00    +0.292 HD
ENDBRANCH  35  36
ENDBRANCH  17  30
BRANCH   1  39
ATOM     38  C   UNL     1      -0.257   1.483   0.053  0.00  0.00    +0.311 C 
ATOM     39  O   UNL     1      -0.206   0.055   0.054  0.00  0.00    -0.411 OA
ENDBRANCH   1  39
TORSDOF 5
