REMARK  Name = ZINC00804193
REMARK  5 active torsions:
REMARK  status: ('A' for Active; 'I' for Inactive)
REMARK    1  A    between atoms: C_1  and  C_2
REMARK    2  A    between atoms: C_4  and  C_23
REMARK    3  A    between atoms: C_8  and  N_22
REMARK    4  A    between atoms: C_9  and  C_11
REMARK    5  A    between atoms: C_11  and  C_13
REMARK                            x       y       z     vdW  Elec       q    Type
REMARK                         _______ _______ _______ _____ _____    ______ ____
ROOT
ATOM      1  C   UNL     1       1.789  -4.032   1.404  0.00  0.00    +0.044 C 
ATOM      2  C   UNL     1       0.533  -3.207   1.289  0.00  0.00    -0.037 A 
ATOM      3  C   UNL     1      -0.703  -3.809   1.323  0.00  0.00    +0.036 A 
ATOM      4  C   UNL     1      -1.857  -3.047   1.217  0.00  0.00    +0.145 A 
ATOM      5  N   UNL     1      -1.783  -1.737   1.083  0.00  0.00    -0.235 NA
ATOM      6  C   UNL     1      -0.625  -1.115   1.045  0.00  0.00    +0.112 A 
ATOM      7  C   UNL     1       0.608  -1.799   1.145  0.00  0.00    +0.032 A 
ATOM      8  C   UNL     1       1.791  -0.955   1.085  0.00  0.00    +0.052 A 
ATOM      9  C   UNL     1       1.615   0.407   0.940  0.00  0.00    +0.083 A 
ATOM     10  S   UNL     1      -0.157   0.591   0.887  0.00  0.00    -0.064 S 
ENDROOT
BRANCH   4  11
ATOM     11  C   UNL     1      -3.204  -3.721   1.255  0.00  0.00    +0.434 C 
ATOM     12  F   UNL     1      -3.652  -3.793   2.579  0.00  0.00    -0.164 F 
ATOM     13  F   UNL     1      -4.117  -2.982   0.494  0.00  0.00    -0.164 F 
ATOM     14  F   UNL     1      -3.095  -5.012   0.729  0.00  0.00    -0.164 F 
ENDBRANCH   4  11
BRANCH   8  15
ATOM     15  N   UNL     1       3.061  -1.502   1.171  0.00  0.00    -0.356 N 
ATOM     16  H   UNL     1       3.800  -1.089   0.699  0.00  0.00    +0.142 HD
ATOM     17  H   UNL     1       3.211  -2.299   1.704  0.00  0.00    +0.142 HD
ENDBRANCH   8  15
BRANCH   9  18
ATOM     18  C   UNL     1       2.604   1.416   0.859  0.00  0.00    +0.202 C 
ATOM     19  O   UNL     1       3.776   1.137   1.044  0.00  0.00    -0.286 OA
BRANCH  18  20
ATOM     20  C   UNL     1       2.216   2.808   0.549  0.00  0.00    +0.027 A 
ATOM     21  C   UNL     1       3.052   3.865   0.917  0.00  0.00    +0.015 A 
ATOM     22  C   UNL     1       2.689   5.163   0.627  0.00  0.00    +0.050 A 
ATOM     23  C   UNL     1       1.494   5.424  -0.030  0.00  0.00    +0.166 A 
ATOM     24  C   UNL     1       0.655   4.372  -0.399  0.00  0.00    +0.167 A 
ATOM     25  C   UNL     1       1.014   3.069  -0.111  0.00  0.00    +0.061 A 
ATOM     26  O   UNL     1      -0.444   4.890  -1.023  0.00  0.00    -0.453 OA
ATOM     27  C   UNL     1      -0.464   6.285  -0.668  0.00  0.00    +0.466 C 
ATOM     28  O   UNL     1       0.920   6.597  -0.423  0.00  0.00    -0.453 OA
ENDBRANCH  18  20
ENDBRANCH   9  18
TORSDOF 4
