REMARK  Name = ZINC13174332
REMARK  8 active torsions:
REMARK  status: ('A' for Active; 'I' for Inactive)
REMARK    1  A    between atoms: C_1  and  C_2
REMARK    2  A    between atoms: C_2  and  C_3
REMARK    3  A    between atoms: C_8  and  N_9
REMARK    4  A    between atoms: C_10  and  C_12
REMARK    5  A    between atoms: C_12  and  S_13
REMARK    6  A    between atoms: S_13  and  C_14
REMARK    7  A    between atoms: C_15  and  C_33
REMARK    8  A    between atoms: C_16  and  C_26
REMARK                            x       y       z     vdW  Elec       q    Type
REMARK                         _______ _______ _______ _____ _____    ______ ____
ROOT
ATOM      1  C   UNL     1      -1.621  -0.310  -7.677  0.00  0.00    +0.080 C 
ATOM      2  C   UNL     1      -2.163  -0.493  -8.910  0.00  0.00    +0.069 C 
ATOM      3  C   UNL     1      -1.382  -0.184 -10.153  0.00  0.00    +0.097 C 
ATOM      4  C   UNL     1       0.095  -0.100  -9.861  0.00  0.00    +0.024 C 
ATOM      5  C   UNL     1       0.544   0.071  -8.599  0.00  0.00    +0.016 C 
ATOM      6  N   UNL     1      -0.335   0.164  -7.552  0.00  0.00    -0.311 N 
ATOM      7  C   UNL     1       2.021   0.175  -8.308  0.00  0.00    +0.051 C 
ATOM      8  C   UNL     1       2.805  -0.657  -9.325  0.00  0.00    +0.014 C 
ATOM      9  C   UNL     1       2.477  -0.142 -10.730  0.00  0.00    +0.080 C 
ATOM     10  C   UNL     1       0.989  -0.206 -10.940  0.00  0.00    +0.162 C 
ATOM     11  O   UNL     1       0.552  -0.352 -12.065  0.00  0.00    -0.292 OA
ATOM     12  H   UNL     1      -0.048   0.562  -6.715  0.00  0.00    +0.152 HD
ENDROOT
BRANCH   3  13
ATOM     13  C   UNL     1      -1.849   1.134 -10.716  0.00  0.00    -0.035 A 
ATOM     14  C   UNL     1      -1.742   2.285  -9.959  0.00  0.00    +0.006 A 
ATOM     15  C   UNL     1      -2.170   3.494 -10.474  0.00  0.00    +0.020 A 
ATOM     16  C   UNL     1      -2.706   3.552 -11.748  0.00  0.00    +0.041 A 
ATOM     17  C   UNL     1      -2.814   2.399 -12.505  0.00  0.00    +0.020 A 
ATOM     18  C   UNL     1      -2.380   1.192 -11.991  0.00  0.00    +0.006 A 
ATOM     19 CL   UNL     1      -3.245   5.070 -12.396  0.00  0.00    -0.084 Cl
ENDBRANCH   3  13
BRANCH   2  20
ATOM     20  C   UNL     1      -3.502  -0.988  -9.024  0.00  0.00    +0.098 C 
ATOM     21  N   UNL     1      -4.564  -1.381  -9.115  0.00  0.00    -0.191 NA
ENDBRANCH   2  20
BRANCH   1  22
ATOM     22  S   UNL     1      -2.568  -0.672  -6.236  0.00  0.00    -0.100 S 
BRANCH  22  23
ATOM     23  C   UNL     1      -1.451  -0.272  -4.864  0.00  0.00    +0.171 C 
BRANCH  23  25
ATOM     24  N   UNL     1      -1.505  -0.315  -2.391  0.00  0.00    -0.285 N 
ATOM     25  C   UNL     1      -2.147  -0.541  -3.555  0.00  0.00    +0.227 C 
ATOM     26  O   UNL     1      -3.285  -0.961  -3.548  0.00  0.00    -0.275 OA
ATOM     27  H   UNL     1      -0.620   0.082  -2.395  0.00  0.00    +0.155 HD
BRANCH  24  33
ATOM     28  C   UNL     1      -1.349  -1.119  -0.119  0.00  0.00    -0.026 A 
ATOM     29  C   UNL     1      -1.954  -1.445   1.079  0.00  0.00    +0.005 A 
ATOM     30  C   UNL     1      -3.322  -1.313   1.222  0.00  0.00    +0.000 A 
ATOM     31  C   UNL     1      -4.090  -0.854   0.168  0.00  0.00    +0.002 A 
ATOM     32  C   UNL     1      -3.491  -0.525  -1.033  0.00  0.00    +0.023 A 
ATOM     33  C   UNL     1      -2.116  -0.652  -1.178  0.00  0.00    +0.037 A 
BRANCH  28  35
ATOM     34  C   UNL     1       0.819   0.078   0.019  0.00  0.00    +0.009 C 
ATOM     35  C   UNL     1       0.143  -1.263  -0.275  0.00  0.00    +0.033 C 
ENDBRANCH  28  35
ENDBRANCH  24  33
ENDBRANCH  23  25
ENDBRANCH  22  23
ENDBRANCH   1  22
TORSDOF 7
