REMARK  Name = ZINC20116901
REMARK  11 active torsions:
REMARK  status: ('A' for Active; 'I' for Inactive)
REMARK    1  A    between atoms: C_1  and  C_2
REMARK    2  A    between atoms: C_2  and  N_3
REMARK    3  A    between atoms: C_7  and  C_9
REMARK    4  A    between atoms: C_9  and  N_10
REMARK    5  A    between atoms: C_11  and  C_13
REMARK    6  A    between atoms: C_13  and  N_14
REMARK    7  A    between atoms: C_21  and  S_25
REMARK    8  A    between atoms: C_22  and  C_24
REMARK    9  A    between atoms: S_25  and  N_28
REMARK   10  A    between atoms: C_30  and  C_37
REMARK   11  A    between atoms: C_33  and  C_36
REMARK                            x       y       z     vdW  Elec       q    Type
REMARK                         _______ _______ _______ _____ _____    ______ ____
ROOT
ATOM      1  N   UNL     1      -3.789  -1.909  -5.281  0.00  0.00    -0.290 N 
ATOM      2  C   UNL     1      -3.450  -1.340  -6.467  0.00  0.00    +0.203 A 
ATOM      3  N   UNL     1      -4.084  -1.642  -7.568  0.00  0.00    -0.230 NA
ATOM      4  C   UNL     1      -5.085  -2.518  -7.563  0.00  0.00    +0.117 A 
ATOM      5  C   UNL     1      -5.507  -3.159  -6.385  0.00  0.00    +0.099 A 
ATOM      6  C   UNL     1      -4.787  -2.809  -5.197  0.00  0.00    +0.264 A 
ATOM      7  O   UNL     1      -5.075  -3.314  -4.126  0.00  0.00    -0.267 OA
ATOM      8  C   UNL     1      -6.611  -4.086  -6.552  0.00  0.00    +0.130 A 
ATOM      9  C   UNL     1      -7.137  -4.265  -7.775  0.00  0.00    +0.016 A 
ATOM     10  S   UNL     1      -6.167  -3.179  -8.804  0.00  0.00    -0.072 S 
ATOM     11  C   UNL     1      -8.274  -5.167  -8.180  0.00  0.00    +0.053 C 
ENDROOT
BRANCH   8  12
ATOM     12  S   UNL     1      -7.253  -4.967  -5.168  0.00  0.00    +0.062 S 
ATOM     13  O   UNL     1      -7.062  -4.135  -4.033  0.00  0.00    -0.153 OA
ATOM     14  O   UNL     1      -8.533  -5.450  -5.552  0.00  0.00    -0.153 OA
BRANCH  12  15
ATOM     15  N   UNL     1      -6.292  -6.298  -4.946  0.00  0.00    -0.176 NA
ATOM     16  C   UNL     1      -6.601  -7.566  -5.622  0.00  0.00    +0.112 C 
ATOM     17  C   UNL     1      -5.360  -8.031  -6.389  0.00  0.00    +0.002 C 
ATOM     18  C   UNL     1      -4.170  -8.104  -5.429  0.00  0.00    +0.009 C 
ATOM     19  C   UNL     1      -3.890  -6.714  -4.854  0.00  0.00    +0.002 C 
ATOM     20  C   UNL     1      -5.111  -6.232  -4.075  0.00  0.00    +0.112 C 
ATOM     21  C   UNL     1      -2.679  -6.782  -3.920  0.00  0.00    +0.009 C 
ATOM     22  C   UNL     1      -5.619  -9.415  -6.989  0.00  0.00    +0.009 C 
ENDBRANCH  12  15
ENDBRANCH   8  12
BRANCH   1  23
ATOM     23  C   UNL     1      -3.050  -1.542  -4.071  0.00  0.00    +0.221 C 
BRANCH  23  25
ATOM     24  N   UNL     1      -1.042  -2.314  -2.850  0.00  0.00    -0.315 N 
ATOM     25  C   UNL     1      -1.871  -2.465  -3.902  0.00  0.00    +0.233 C 
ATOM     26  O   UNL     1      -1.668  -3.344  -4.713  0.00  0.00    -0.274 OA
ATOM     27  H   UNL     1      -1.204  -1.611  -2.202  0.00  0.00    +0.149 HD
BRANCH  24  28
ATOM     28  C   UNL     1       0.104  -3.212  -2.686  0.00  0.00    +0.089 C 
BRANCH  28  33
ATOM     29  N   UNL     1       1.255  -1.404  -1.479  0.00  0.00    +0.382 N 
ATOM     30  C   UNL     1       2.730  -1.308  -1.456  0.00  0.00    -0.078 C 
ATOM     31  C   UNL     1       3.201  -2.618  -0.776  0.00  0.00    -0.020 C 
ATOM     32  C   UNL     1       2.182  -3.646  -1.335  0.00  0.00    -0.016 C 
ATOM     33  C   UNL     1       0.876  -2.828  -1.422  0.00  0.00    -0.051 C 
ATOM     34  H   UNL     1       0.903  -0.993  -2.331  0.00  0.00    -0.081 HD
BRANCH  29  36
ATOM     35  C   UNL     1       0.985   0.800  -0.447  0.00  0.00    -0.017 C 
ATOM     36  C   UNL     1       0.695  -0.697  -0.320  0.00  0.00    -0.082 C 
ENDBRANCH  29  36
ENDBRANCH  28  33
ENDBRANCH  24  28
ENDBRANCH  23  25
ENDBRANCH   1  23
TORSDOF 7
