REMARK  Name = ZINC09211354
REMARK  7 active torsions:
REMARK  status: ('A' for Active; 'I' for Inactive)
REMARK    1  A    between atoms: C_1  and  C_2
REMARK    2  A    between atoms: C_7  and  N_12
REMARK    3  A    between atoms: C_9  and  C_11
REMARK    4  A    between atoms: N_12  and  C_13
REMARK    5  A    between atoms: C_13  and  C_14
REMARK    6  A    between atoms: C_19  and  C_21
REMARK    7  A    between atoms: C_21  and  N_22
REMARK                            x       y       z     vdW  Elec       q    Type
REMARK                         _______ _______ _______ _____ _____    ______ ____
ROOT
ATOM      1  N   UNL     1      -0.242   1.246   2.466  0.00  0.00    -0.289 N 
ATOM      2  C   UNL     1      -0.718   1.572   1.248  0.00  0.00    +0.238 C 
ATOM      3  O   UNL     1      -1.714   2.256   1.150  0.00  0.00    -0.274 OA
ENDROOT
BRANCH   1   9
ATOM      4  C   UNL     1      -1.685   5.271   4.947  0.00  0.00    +0.008 C 
ATOM      5  C   UNL     1      -1.664   3.742   4.938  0.00  0.00    -0.009 C 
ATOM      6  C   UNL     1      -3.100   3.212   4.949  0.00  0.00    +0.003 C 
ATOM      7  C   UNL     1      -3.079   1.682   4.941  0.00  0.00    +0.002 C 
ATOM      8  C   UNL     1      -2.363   1.189   3.682  0.00  0.00    +0.023 C 
ATOM      9  C   UNL     1      -0.927   1.718   3.671  0.00  0.00    +0.080 C 
ATOM     10  C   UNL     1      -0.948   3.248   3.679  0.00  0.00    +0.009 C 
ATOM     11  C   UNL     1       0.487   3.778   3.669  0.00  0.00    +0.009 C 
ENDBRANCH   1   9
BRANCH   1  12
ATOM     12  C   UNL     1       0.962   0.419   2.584  0.00  0.00    +0.182 C 
BRANCH  12  13
ATOM     13  C   UNL     1       2.179   1.307   2.623  0.00  0.00    +0.122 A 
ATOM     14  C   UNL     1       2.743   1.821   3.732  0.00  0.00    +0.046 A 
ATOM     15  C   UNL     1       3.853   2.587   3.309  0.00  0.00    +0.041 A 
ATOM     16  C   UNL     1       3.902   2.496   1.968  0.00  0.00    +0.195 A 
ATOM     17  O   UNL     1       2.889   1.714   1.558  0.00  0.00    -0.466 OA
ENDBRANCH  12  13
ENDBRANCH   1  12
BRANCH   2  18
ATOM     18  C   UNL     1      -0.013   1.086   0.008  0.00  0.00    +0.243 C 
BRANCH  18  19
ATOM     19  N   UNL     1      -0.721   1.571  -1.179  0.00  0.00    -0.219 N 
ATOM     20  C   UNL     1      -0.383   2.761  -1.715  0.00  0.00    +0.292 A 
ATOM     21  O   UNL     1       0.508   3.430  -1.217  0.00  0.00    -0.264 OA
ATOM     22  C   UNL     1      -1.067   3.223  -2.864  0.00  0.00    +0.116 A 
ATOM     23  C   UNL     1      -2.082   2.430  -3.399  0.00  0.00    +0.032 A 
ATOM     24  C   UNL     1      -2.397   1.196  -2.792  0.00  0.00    +0.143 A 
ATOM     25  N   UNL     1      -1.743   0.797  -1.736  0.00  0.00    -0.175 NA
ATOM     26  C   UNL     1      -2.609   3.154  -4.564  0.00  0.00    +0.009 A 
ATOM     27  C   UNL     1      -3.613   2.883  -5.493  0.00  0.00    +0.010 A 
ATOM     28  C   UNL     1      -3.876   3.779  -6.492  0.00  0.00    +0.001 A 
ATOM     29  C   UNL     1      -3.151   4.958  -6.588  0.00  0.00    +0.002 A 
ATOM     30  C   UNL     1      -2.155   5.245  -5.681  0.00  0.00    +0.026 A 
ATOM     31  C   UNL     1      -1.870   4.346  -4.655  0.00  0.00    +0.048 A 
ATOM     32  N   UNL     1      -0.953   4.365  -3.627  0.00  0.00    -0.350 N 
ATOM     33  H   UNL     1      -0.317   5.079  -3.463  0.00  0.00    +0.166 HD
ENDBRANCH  18  19
ENDBRANCH   2  18
TORSDOF 5
