REMARK  Name = ZINC04062837
REMARK  4 active torsions:
REMARK  status: ('A' for Active; 'I' for Inactive)
REMARK    1  A    between atoms: C_12  and  N_15
REMARK    2  A    between atoms: N_15  and  S_16
REMARK    3  A    between atoms: S_16  and  C_19
REMARK    4  A    between atoms: C_22  and  N_25
REMARK                            x       y       z     vdW  Elec       q    Type
REMARK                         _______ _______ _______ _____ _____    ______ ____
ROOT
ATOM      1  C   UNL     1      -3.148   7.832  -0.402  0.00  0.00    +0.001 A 
ATOM      2  C   UNL     1      -1.872   8.372  -0.240  0.00  0.00    +0.002 A 
ATOM      3  C   UNL     1      -0.767   7.587  -0.161  0.00  0.00    +0.028 A 
ATOM      4  C   UNL     1      -0.900   6.184  -0.243  0.00  0.00    +0.072 A 
ATOM      5  C   UNL     1      -2.243   5.620  -0.414  0.00  0.00    +0.001 A 
ATOM      6  C   UNL     1      -3.348   6.492  -0.489  0.00  0.00    +0.010 A 
ATOM      7  C   UNL     1      -2.404   4.235  -0.499  0.00  0.00    +0.020 A 
ATOM      8  C   UNL     1      -1.258   3.439  -0.415  0.00  0.00    +0.003 A 
ATOM      9  C   UNL     1      -1.335   2.033  -0.498  0.00  0.00    +0.010 A 
ATOM     10  C   UNL     1      -0.200   1.292  -0.408  0.00  0.00    +0.003 A 
ATOM     11  C   UNL     1       1.050   1.885  -0.246  0.00  0.00    +0.026 A 
ATOM     12  C   UNL     1       1.197   3.239  -0.164  0.00  0.00    +0.074 A 
ATOM     13  C   UNL     1       0.052   4.072  -0.245  0.00  0.00    +0.094 A 
ATOM     14  N   UNL     1       0.164   5.392  -0.169  0.00  0.00    -0.245 NA
ENDROOT
BRANCH  12  15
ATOM     15  N   UNL     1       2.463   3.799  -0.001  0.00  0.00    -0.214 N 
ATOM     16  H   UNL     1       2.575   4.595   0.542  0.00  0.00    +0.174 HD
BRANCH  15  17
ATOM     17  S   UNL     1       3.776   3.105  -0.734  0.00  0.00    +0.072 S 
ATOM     18  O   UNL     1       4.878   3.970  -0.496  0.00  0.00    -0.150 OA
ATOM     19  O   UNL     1       3.783   1.738  -0.345  0.00  0.00    -0.150 OA
BRANCH  17  20
ATOM     20  C   UNL     1       3.479   3.134  -2.470  0.00  0.00    +0.109 A 
ATOM     21  C   UNL     1       2.841   2.070  -3.080  0.00  0.00    +0.031 A 
ATOM     22  C   UNL     1       2.604   2.094  -4.441  0.00  0.00    +0.034 A 
ATOM     23  C   UNL     1       3.014   3.178  -5.195  0.00  0.00    +0.126 A 
ATOM     24  C   UNL     1       3.656   4.240  -4.586  0.00  0.00    +0.034 A 
ATOM     25  C   UNL     1       3.889   4.218  -3.224  0.00  0.00    +0.031 A 
BRANCH  23  26
ATOM     26  N   UNL     1       2.764   3.202  -6.654  0.00  0.00    +0.056 N 
ATOM     27  O   UNL     1       3.124   4.158  -7.317  0.00  0.00    -0.126 OA
ATOM     28  O   UNL     1       2.198   2.267  -7.190  0.00  0.00    -0.126 OA
ENDBRANCH  23  26
ENDBRANCH  17  20
ENDBRANCH  15  17
ENDBRANCH  12  15
TORSDOF 4
