REMARK  Name = ZINC06779229
REMARK  6 active torsions:
REMARK  status: ('A' for Active; 'I' for Inactive)
REMARK    1  A    between atoms: C_1  and  C_2
REMARK    2  A    between atoms: C_5  and  N_9
REMARK    3  A    between atoms: C_6  and  C_8
REMARK    4  A    between atoms: N_9  and  S_10
REMARK    5  A    between atoms: S_10  and  C_13
REMARK    6  A    between atoms: C_22  and  C_25
REMARK                            x       y       z     vdW  Elec       q    Type
REMARK                         _______ _______ _______ _____ _____    ______ ____
ROOT
ATOM      1  S   UNL     1      -2.574   5.314  -0.662  0.00  0.00    +0.072 S 
ATOM      2  O   UNL     1      -3.891   5.782  -0.404  0.00  0.00    -0.150 OA
ATOM      3  O   UNL     1      -1.417   6.043  -0.274  0.00  0.00    -0.150 OA
ENDROOT
BRANCH   1   4
ATOM      4  C   UNL     1      -2.458   5.075  -2.404  0.00  0.00    +0.110 A 
ATOM      5  C   UNL     1      -3.604   4.856  -3.146  0.00  0.00    +0.030 A 
ATOM      6  C   UNL     1      -3.516   4.670  -4.513  0.00  0.00    +0.018 A 
ATOM      7  C   UNL     1      -2.280   4.702  -5.135  0.00  0.00    +0.030 A 
ATOM      8  C   UNL     1      -1.118   4.919  -4.393  0.00  0.00    +0.049 A 
ATOM      9  C   UNL     1      -1.222   5.113  -3.020  0.00  0.00    +0.053 A 
ATOM     10  N   UNL     1       0.137   4.949  -4.996  0.00  0.00    -0.284 N 
ATOM     11  C   UNL     1       0.388   5.185  -6.281  0.00  0.00    +0.230 C 
ATOM     12  O   UNL     1       1.544   5.185  -6.649  0.00  0.00    -0.274 OA
ATOM     13  C   UNL     1      -0.683   5.452  -7.303  0.00  0.00    +0.134 C 
ATOM     14  S   UNL     1      -2.154   4.470  -6.880  0.00  0.00    -0.111 S 
ATOM     15  C   UNL     1      -1.040   6.940  -7.295  0.00  0.00    +0.029 C 
ATOM     16  H   UNL     1       0.902   4.781  -4.424  0.00  0.00    +0.155 HD
ENDBRANCH   1   4
BRANCH   1  17
ATOM     17  N   UNL     1      -2.454   3.822   0.046  0.00  0.00    -0.216 N 
ATOM     18  H   UNL     1      -3.183   3.483   0.589  0.00  0.00    +0.174 HD
BRANCH  17  23
ATOM     19  C   UNL     1       2.218   0.697  -0.702  0.00  0.00    +0.044 C 
ATOM     20  C   UNL     1       0.977   1.527  -0.503  0.00  0.00    -0.050 A 
ATOM     21  C   UNL     1       1.076   2.903  -0.404  0.00  0.00    +0.005 A 
ATOM     22  C   UNL     1      -0.060   3.667  -0.222  0.00  0.00    +0.025 A 
ATOM     23  C   UNL     1      -1.303   3.053  -0.138  0.00  0.00    +0.051 A 
ATOM     24  C   UNL     1      -1.400   1.671  -0.245  0.00  0.00    -0.028 A 
ATOM     25  C   UNL     1      -0.259   0.912  -0.421  0.00  0.00    +0.008 A 
ATOM     26  C   UNL     1      -2.747   1.000  -0.162  0.00  0.00    +0.046 C 
ENDBRANCH  17  23
ENDBRANCH   1  17
TORSDOF 3
