REMARK  Name = ZINC04861024
REMARK  3 active torsions:
REMARK  status: ('A' for Active; 'I' for Inactive)
REMARK    1  A    between atoms: C_11  and  C_15
REMARK    2  A    between atoms: C_15  and  N_53
REMARK    3  A    between atoms: C_21  and  C_23
REMARK                            x       y       z     vdW  Elec       q    Type
REMARK                         _______ _______ _______ _____ _____    ______ ____
ROOT
ATOM      1  C   UNL     1      -6.574   8.877   9.143  0.00  0.00    +0.005 C 
ATOM      2  C   UNL     1      -5.146   9.416   9.020  0.00  0.00    +0.005 C 
ATOM      3  C   UNL     1      -4.178   8.229   8.916  0.00  0.00    +0.043 C 
ATOM      4  C   UNL     1      -4.714   7.270   7.897  0.00  0.00    -0.004 A 
ATOM      5  C   UNL     1      -5.960   7.240   7.378  0.00  0.00    -0.023 A 
ATOM      6  C   UNL     1      -6.242   6.199   6.390  0.00  0.00    +0.075 A 
ATOM      7  C   UNL     1      -7.466   5.945   5.689  0.00  0.00    +0.260 A 
ATOM      8  O   UNL     1      -8.448   6.641   5.886  0.00  0.00    -0.267 OA
ATOM      9  N   UNL     1      -7.514   4.926   4.812  0.00  0.00    -0.312 N 
ATOM     10  H   UNL     1      -8.365   4.742   4.320  0.00  0.00    +0.170 HD
ATOM     11  C   UNL     1      -6.430   4.141   4.581  0.00  0.00    +0.094 A 
ATOM     12  N   UNL     1      -5.302   4.345   5.208  0.00  0.00    -0.229 NA
ATOM     13  C   UNL     1      -5.177   5.336   6.086  0.00  0.00    +0.116 A 
ATOM     14  S   UNL     1      -3.857   5.932   7.111  0.00  0.00    -0.073 S 
ATOM     15  C   UNL     1      -7.011   8.256   7.816  0.00  0.00    +0.037 C 
ENDROOT
BRANCH  11  16
ATOM     16  C   UNL     1      -6.532   3.011   3.589  0.00  0.00    -0.003 C 
BRANCH  16  24
ATOM     17  C   UNL     1      -5.367   1.067   2.739  0.00  0.00    -0.059 C 
ATOM     18  C   UNL     1      -4.055   0.280   2.832  0.00  0.00    +0.089 C 
ATOM     19  N   UNL     1      -2.951   1.161   2.420  0.00  0.00    -0.305 N 
ATOM     20  C   UNL     1      -2.840   2.482   3.057  0.00  0.00    +0.089 C 
ATOM     21  C   UNL     1      -4.203   3.184   2.951  0.00  0.00    -0.059 C 
ATOM     22  C   UNL     1      -2.062   0.765   1.488  0.00  0.00    +0.219 C 
ATOM     23  O   UNL     1      -2.166  -0.330   0.976  0.00  0.00    -0.275 OA
ATOM     24  N   UNL     1      -5.236   2.304   3.539  0.00  0.00    +0.386 N 
ATOM     25  H   UNL     1      -4.955   2.054   4.495  0.00  0.00    -0.081 HD
BRANCH  22  26
ATOM     26  C   UNL     1      -0.939   1.683   1.080  0.00  0.00    +0.075 C 
ATOM     27  C   UNL     1      -0.013   1.086   0.008  0.00  0.00    +0.013 C 
ATOM     28  C   UNL     1      -0.959   1.695  -1.040  0.00  0.00    +0.001 C 
ATOM     29  C   UNL     1      -1.349   2.730   0.028  0.00  0.00    +0.013 C 
ENDBRANCH  22  26
ENDBRANCH  16  24
ENDBRANCH  11  16
TORSDOF 3
