REMARK  Name = ZINC15430269
REMARK  4 active torsions:
REMARK  status: ('A' for Active; 'I' for Inactive)
REMARK    1  A    between atoms: C_5  and  C_7
REMARK    2  A    between atoms: C_10  and  C_12
REMARK    3  A    between atoms: N_14  and  N_15
REMARK    4  A    between atoms: C_16  and  C_18
REMARK                            x       y       z     vdW  Elec       q    Type
REMARK                         _______ _______ _______ _____ _____    ______ ____
ROOT
ATOM      1  C   UNL     1      -7.281   1.168   2.100  0.00  0.00    +0.295 C 
ATOM      2  O   UNL     1      -6.884   1.868   3.013  0.00  0.00    -0.265 OA
ATOM      3  N   UNL     1      -6.457   0.859   1.079  0.00  0.00    -0.228 N 
ATOM      4  H   UNL     1      -6.774   0.301   0.352  0.00  0.00    +0.173 HD
ENDROOT
BRANCH   1   8
ATOM      5  C   UNL     1     -10.490  -0.389   1.508  0.00  0.00    +0.137 A 
ATOM      6  C   UNL     1     -10.762   0.227   2.696  0.00  0.00    +0.051 A 
ATOM      7  C   UNL     1      -9.597   0.894   3.089  0.00  0.00    +0.055 A 
ATOM      8  C   UNL     1      -8.656   0.660   2.110  0.00  0.00    +0.191 A 
ATOM      9  O   UNL     1      -9.219  -0.122   1.165  0.00  0.00    -0.450 OA
BRANCH   5  14
ATOM     10  C   UNL     1     -12.507  -1.745  -1.354  0.00  0.00    +0.001 A 
ATOM     11  C   UNL     1     -13.213  -2.759  -0.730  0.00  0.00    +0.001 A 
ATOM     12  C   UNL     1     -13.036  -3.005   0.620  0.00  0.00    +0.021 A 
ATOM     13  C   UNL     1     -12.148  -2.243   1.353  0.00  0.00    +0.052 A 
ATOM     14  C   UNL     1     -11.437  -1.213   0.730  0.00  0.00    +0.036 A 
ATOM     15  C   UNL     1     -11.621  -0.972  -0.633  0.00  0.00    +0.013 A 
ATOM     16 CL   UNL     1     -11.921  -2.557   3.045  0.00  0.00    -0.083 Cl
ENDBRANCH   5  14
ENDBRANCH   1   8
BRANCH   3  17
ATOM     17  N   UNL     1      -5.143   1.344   1.069  0.00  0.00    -0.234 N 
ATOM     18  C   UNL     1      -4.318   1.035   0.049  0.00  0.00    +0.235 C 
ATOM     19  O   UNL     1      -4.714   0.337  -0.861  0.00  0.00    -0.274 OA
ATOM     20  H   UNL     1      -4.826   1.902   1.797  0.00  0.00    +0.173 HD
BRANCH  18  21
ATOM     21  C   UNL     1      -2.904   1.556   0.038  0.00  0.00    +0.049 C 
ATOM     22  C   UNL     1      -2.188   1.063  -1.221  0.00  0.00    +0.019 C 
ATOM     23  C   UNL     1      -0.753   1.593  -1.232  0.00  0.00    -0.009 C 
ATOM     24  C   UNL     1      -0.013   1.086   0.008  0.00  0.00    +0.007 C 
ATOM     25  C   UNL     1      -0.729   1.579   1.267  0.00  0.00    -0.009 C 
ATOM     26  C   UNL     1      -2.164   1.050   1.278  0.00  0.00    +0.019 C 
ATOM     27  C   UNL     1      -0.750   3.109   1.275  0.00  0.00    +0.007 C 
ATOM     28  C   UNL     1      -1.490   3.616   0.036  0.00  0.00    -0.009 C 
ATOM     29  C   UNL     1      -0.773   3.123  -1.223  0.00  0.00    +0.007 C 
ATOM     30  C   UNL     1      -2.925   3.086   0.047  0.00  0.00    +0.019 C 
ENDBRANCH  18  21
ENDBRANCH   3  17
TORSDOF 4
