REMARK  Name = ZINC20617558
REMARK  6 active torsions:
REMARK  status: ('A' for Active; 'I' for Inactive)
REMARK    1  A    between atoms: C_1  and  C_2
REMARK    2  A    between atoms: C_6  and  C_16
REMARK    3  A    between atoms: N_8  and  C_9
REMARK    4  A    between atoms: N_18  and  C_19
REMARK    5  A    between atoms: C_26  and  C_29
REMARK    6  A    between atoms: C_29  and  O_30
REMARK                            x       y       z     vdW  Elec       q    Type
REMARK                         _______ _______ _______ _____ _____    ______ ____
ROOT
ATOM      1  C   UNL     1       1.753   0.881   0.267  0.00  0.00    +0.069 C 
ATOM      2  C   UNL     1       0.826  -0.299   0.127  0.00  0.00    +0.081 A 
ATOM      3  C   UNL     1       0.374  -0.676  -1.129  0.00  0.00    +0.159 A 
ATOM      4  C   UNL     1      -0.490  -1.783  -1.234  0.00  0.00    +0.027 A 
ATOM      5  C   UNL     1      -0.974  -2.201  -2.552  0.00  0.00    +0.030 A 
ATOM      6  C   UNL     1      -0.352  -1.658  -3.655  0.00  0.00    +0.098 A 
ATOM      7  C   UNL     1       0.748  -0.704  -3.409  0.00  0.00    +0.212 A 
ATOM      8  N   UNL     1       1.706  -0.536  -4.294  0.00  0.00    -0.325 N 
ATOM      9  O   UNL     1       0.744  -0.005  -2.245  0.00  0.00    -0.437 OA
ATOM     10  C   UNL     1      -0.862  -2.457  -0.065  0.00  0.00    +0.007 A 
ATOM     11  C   UNL     1      -0.362  -2.007   1.140  0.00  0.00    +0.117 A 
ATOM     12  N   UNL     1       0.453  -0.970   1.198  0.00  0.00    -0.256 NA
ATOM     13  H   UNL     1       1.800  -1.159  -5.032  0.00  0.00    +0.169 HD
ENDROOT
BRANCH   8  14
ATOM     14  C   UNL     1       2.572   0.516  -4.174  0.00  0.00    +0.042 A 
ATOM     15  C   UNL     1       2.088   1.791  -3.873  0.00  0.00    +0.026 A 
ATOM     16  C   UNL     1       2.966   2.848  -3.752  0.00  0.00    +0.002 A 
ATOM     17  C   UNL     1       4.324   2.646  -3.930  0.00  0.00    +0.000 A 
ATOM     18  C   UNL     1       4.810   1.386  -4.229  0.00  0.00    +0.002 A 
ATOM     19  C   UNL     1       3.944   0.319  -4.346  0.00  0.00    +0.026 A 
ENDBRANCH   8  14
BRANCH   6  20
ATOM     20  C   UNL     1      -0.768  -2.014  -5.023  0.00  0.00    +0.253 C 
ATOM     21  O   UNL     1      -1.599  -2.885  -5.199  0.00  0.00    -0.270 OA
ATOM     22  N   UNL     1      -0.227  -1.376  -6.080  0.00  0.00    -0.281 N 
ATOM     23  H   UNL     1       0.455  -0.700  -5.941  0.00  0.00    +0.155 HD
BRANCH  22  24
ATOM     24  C   UNL     1      -0.649  -1.688  -7.376  0.00  0.00    +0.034 A 
ATOM     25  C   UNL     1      -1.089  -2.971  -7.675  0.00  0.00    +0.024 A 
ATOM     26  C   UNL     1      -1.504  -3.276  -8.956  0.00  0.00    +0.017 A 
ATOM     27  C   UNL     1      -1.483  -2.305  -9.942  0.00  0.00    +0.018 A 
ATOM     28  C   UNL     1      -1.044  -1.026  -9.647  0.00  0.00    +0.017 A 
ATOM     29  C   UNL     1      -0.634  -0.714  -8.366  0.00  0.00    +0.024 A 
ATOM     30 BR   UNL     1      -2.052  -2.727 -11.695  0.00  0.00    -0.050 Br
ENDBRANCH  22  24
ENDBRANCH   6  20
BRANCH  10  31
ATOM     31  C   UNL     1      -1.786  -3.645  -0.120  0.00  0.00    +0.193 C 
BRANCH  31  32
ATOM     32  O   UNL     1      -2.003  -4.143   1.202  0.00  0.00    -0.390 OA
ATOM     33  H   UNL     1      -2.590  -4.910   1.242  0.00  0.00    +0.210 HD
ENDBRANCH  31  32
ENDBRANCH  10  31
TORSDOF 5
