REMARK  Name = ZINC02410465
REMARK  7 active torsions:
REMARK  status: ('A' for Active; 'I' for Inactive)
REMARK    1  A    between atoms: C_1  and  C_2
REMARK    2  A    between atoms: C_8  and  C_36
REMARK    3  A    between atoms: C_9  and  C_11
REMARK    4  A    between atoms: N_13  and  C_14
REMARK    5  A    between atoms: C_15  and  C_25
REMARK    6  A    between atoms: C_20  and  C_24
REMARK    7  A    between atoms: N_27  and  C_28
REMARK                            x       y       z     vdW  Elec       q    Type
REMARK                         _______ _______ _______ _____ _____    ______ ____
ROOT
ATOM      1  C   UNL     1      -5.289   1.825  -0.427  0.00  0.00    +0.085 A 
ATOM      2  C   UNL     1      -6.654   2.069  -0.364  0.00  0.00    +0.069 A 
ATOM      3  C   UNL     1      -7.434   1.838  -1.568  0.00  0.00    -0.023 A 
ATOM      4  C   UNL     1      -6.730   1.403  -2.635  0.00  0.00    -0.004 A 
ATOM      5  S   UNL     1      -5.057   1.306  -2.064  0.00  0.00    -0.077 S 
ATOM      6  C   UNL     1      -7.261   1.083  -3.998  0.00  0.00    +0.046 C 
ATOM      7  C   UNL     1      -8.789   0.963  -3.906  0.00  0.00    -0.009 C 
ATOM      8  C   UNL     1      -9.333   2.167  -3.132  0.00  0.00    +0.008 C 
ATOM      9  C   UNL     1      -8.939   2.059  -1.658  0.00  0.00    +0.037 C 
ATOM     10  C   UNL     1      -9.390   0.942  -5.313  0.00  0.00    +0.008 C 
ENDROOT
BRANCH   1  13
ATOM     11  C   UNL     1      -3.049   1.680   0.323  0.00  0.00    +0.284 C 
ATOM     12  O   UNL     1      -2.714   1.295  -0.781  0.00  0.00    -0.266 OA
ATOM     13  N   UNL     1      -4.342   1.967   0.573  0.00  0.00    -0.273 N 
ATOM     14  H   UNL     1      -4.609   2.274   1.454  0.00  0.00    +0.156 HD
BRANCH  11  23
ATOM     15  C   UNL     1       2.836   2.101   4.889  0.00  0.00    +0.044 C 
ATOM     16  C   UNL     1       1.432   2.162   4.346  0.00  0.00    -0.050 A 
ATOM     17  C   UNL     1       0.392   2.575   5.168  0.00  0.00    +0.007 A 
ATOM     18  C   UNL     1      -0.900   2.638   4.692  0.00  0.00    +0.047 A 
ATOM     19  C   UNL     1      -1.170   2.284   3.375  0.00  0.00    +0.136 A 
ATOM     20  C   UNL     1      -0.112   1.866   2.546  0.00  0.00    +0.024 A 
ATOM     21  C   UNL     1       1.190   1.809   3.048  0.00  0.00    +0.015 A 
ATOM     22  C   UNL     1      -0.718   1.572   1.248  0.00  0.00    +0.008 A 
ATOM     23  C   UNL     1      -2.045   1.831   1.385  0.00  0.00    +0.194 A 
ATOM     24  O   UNL     1      -2.301   2.245   2.643  0.00  0.00    -0.450 OA
ATOM     25  C   UNL     1      -0.013   1.086   0.008  0.00  0.00    +0.048 C 
ENDBRANCH  11  23
ENDBRANCH   1  13
BRANCH   2  26
ATOM     26  C   UNL     1      -7.286   2.541   0.872  0.00  0.00    +0.247 C 
ATOM     27  O   UNL     1      -7.384   3.735   1.088  0.00  0.00    -0.270 OA
ATOM     28  N   UNL     1      -7.758   1.653   1.770  0.00  0.00    -0.307 N 
ATOM     29  H   UNL     1      -7.679   0.701   1.598  0.00  0.00    +0.149 HD
BRANCH  28  30
ATOM     30  C   UNL     1      -8.388   2.125   3.005  0.00  0.00    +0.096 C 
ATOM     31  C   UNL     1      -9.876   2.411   2.741  0.00  0.00    +0.046 C 
ATOM     32  C   UNL     1     -10.583   2.604   4.113  0.00  0.00    +0.168 C 
ATOM     33  S   UNL     1      -9.775   1.272   5.097  0.00  0.00    -0.029 S 
ATOM     34  O   UNL     1     -10.564   0.093   5.015  0.00  0.00    -0.174 OA
ATOM     35  O   UNL     1      -9.421   1.789   6.373  0.00  0.00    -0.174 OA
ATOM     36  C   UNL     1      -8.247   1.041   4.101  0.00  0.00    +0.188 C 
ENDBRANCH  28  30
ENDBRANCH   2  26
TORSDOF 4
