REMARK  Name = ZINC12559224
REMARK  12 active torsions:
REMARK  status: ('A' for Active; 'I' for Inactive)
REMARK    1  A    between atoms: C_1  and  C_2
REMARK    2  A    between atoms: C_2  and  C_3
REMARK    3  A    between atoms: C_2  and  C_4
REMARK    4  A    between atoms: C_2  and  N_5
REMARK    5  A    between atoms: N_5  and  S_6
REMARK    6  A    between atoms: S_6  and  C_9
REMARK    7  A    between atoms: C_12  and  N_18
REMARK    8  A    between atoms: C_13  and  N_15
REMARK    9  A    between atoms: N_18  and  C_19
REMARK   10  A    between atoms: C_19  and  C_21
REMARK   11  A    between atoms: C_19  and  C_28
REMARK   12  A    between atoms: N_32  and  C_33
REMARK                            x       y       z     vdW  Elec       q    Type
REMARK                         _______ _______ _______ _____ _____    ______ ____
ROOT
ATOM      1  C   UNL     1       3.181   0.033  -0.093  0.00  0.00    +0.108 A 
ATOM      2  C   UNL     1       2.869   0.435   1.193  0.00  0.00    +0.030 A 
ATOM      3  C   UNL     1       3.513  -0.138   2.273  0.00  0.00    +0.027 A 
ATOM      4  C   UNL     1       4.473  -1.120   2.065  0.00  0.00    +0.059 A 
ATOM      5  C   UNL     1       4.784  -1.521   0.773  0.00  0.00    +0.149 A 
ATOM      6  C   UNL     1       4.133  -0.948  -0.302  0.00  0.00    +0.063 A 
ENDROOT
BRANCH   1   7
ATOM      7  S   UNL     1       2.358   0.767  -1.467  0.00  0.00    +0.059 S 
ATOM      8  O   UNL     1       3.094   0.399  -2.625  0.00  0.00    -0.153 OA
ATOM      9  O   UNL     1       2.115   2.123  -1.118  0.00  0.00    -0.153 OA
BRANCH   7  10
ATOM     10  N   UNL     1       0.876   0.038  -1.596  0.00  0.00    -0.185 NA
ATOM     11  H   UNL     1       0.070   0.543  -1.409  0.00  0.00    +0.149 HD
BRANCH  10  13
ATOM     12  C   UNL     1       1.713  -2.209  -1.114  0.00  0.00    +0.029 C 
ATOM     13  C   UNL     1       0.784  -1.369  -1.993  0.00  0.00    +0.032 C 
ATOM     14  C   UNL     1       1.200  -1.514  -3.458  0.00  0.00    +0.029 C 
ATOM     15  C   UNL     1      -0.657  -1.854  -1.822  0.00  0.00    +0.029 C 
ENDBRANCH  10  13
ENDBRANCH   7  10
ENDBRANCH   1   7
BRANCH   5  16
ATOM     16  N   UNL     1       5.807  -2.567   0.547  0.00  0.00    +0.058 N 
ATOM     17  O   UNL     1       6.799  -2.601   1.238  0.00  0.00    -0.126 OA
ATOM     18  O   UNL     1       5.651  -3.386  -0.328  0.00  0.00    -0.126 OA
ENDBRANCH   5  16
BRANCH   4  19
ATOM     19  N   UNL     1       5.126  -1.702   3.155  0.00  0.00    -0.329 N 
ATOM     20  H   UNL     1       5.779  -2.404   3.010  0.00  0.00    +0.147 HD
BRANCH  19  21
ATOM     21  C   UNL     1       4.824  -1.251   4.516  0.00  0.00    +0.165 C 
BRANCH  21  22
ATOM     22  C   UNL     1       6.003  -1.532   5.411  0.00  0.00    -0.020 A 
ATOM     23  C   UNL     1       6.711  -2.711   5.272  0.00  0.00    +0.007 A 
ATOM     24  C   UNL     1       7.792  -2.969   6.093  0.00  0.00    +0.020 A 
ATOM     25  C   UNL     1       8.166  -2.047   7.054  0.00  0.00    +0.041 A 
ATOM     26  C   UNL     1       7.458  -0.867   7.193  0.00  0.00    +0.020 A 
ATOM     27  C   UNL     1       6.380  -0.608   6.367  0.00  0.00    +0.007 A 
ATOM     28 CL   UNL     1       9.524  -2.371   8.086  0.00  0.00    -0.084 Cl
ENDBRANCH  21  22
BRANCH  21  29
ATOM     29  C   UNL     1       3.615  -1.987   5.032  0.00  0.00    +0.112 A 
ATOM     30  N   UNL     1       2.798  -1.555   5.954  0.00  0.00    -0.348 N 
ATOM     31  C   UNL     1       1.838  -2.470   6.158  0.00  0.00    +0.102 A 
ATOM     32  C   UNL     1       2.070  -3.508   5.331  0.00  0.00    +0.104 A 
ATOM     33  N   UNL     1       3.193  -3.199   4.613  0.00  0.00    -0.337 N 
ATOM     34  C   UNL     1       3.822  -4.031   3.584  0.00  0.00    +0.150 C 
ATOM     35  H   UNL     1       2.873  -0.707   6.418  0.00  0.00    +0.167 HD
ENDBRANCH  21  29
ENDBRANCH  19  21
ENDBRANCH   4  19
TORSDOF 8
