REMARK  Name = ZINC14045223
REMARK  6 active torsions:
REMARK  status: ('A' for Active; 'I' for Inactive)
REMARK    1  A    between atoms: C_4  and  C_7
REMARK    2  A    between atoms: C_7  and  N_8
REMARK    3  A    between atoms: C_21  and  S_22
REMARK    4  A    between atoms: S_22  and  C_23
REMARK    5  A    between atoms: C_23  and  C_25
REMARK    6  A    between atoms: C_23  and  C_31
REMARK                            x       y       z     vdW  Elec       q    Type
REMARK                         _______ _______ _______ _____ _____    ______ ____
ROOT
ATOM      1  N   UNL     1       7.639   6.089  -3.008  0.00  0.00    -0.272 N 
ATOM      2  C   UNL     1       7.136   6.542  -4.174  0.00  0.00    +0.263 A 
ATOM      3  O   UNL     1       7.778   7.306  -4.870  0.00  0.00    -0.267 OA
ATOM      4  C   UNL     1       5.794   6.096  -4.591  0.00  0.00    +0.064 A 
ATOM      5  C   UNL     1       5.225   6.532  -5.786  0.00  0.00    +0.015 A 
ATOM      6  C   UNL     1       3.968   6.091  -6.143  0.00  0.00    +0.001 A 
ATOM      7  C   UNL     1       3.271   5.221  -5.320  0.00  0.00    +0.002 A 
ATOM      8  C   UNL     1       3.824   4.782  -4.133  0.00  0.00    +0.027 A 
ATOM      9  C   UNL     1       5.087   5.215  -3.759  0.00  0.00    +0.064 A 
ATOM     10  N   UNL     1       5.668   4.787  -2.567  0.00  0.00    -0.256 N 
ATOM     11  C   UNL     1       6.915   5.219  -2.207  0.00  0.00    +0.240 A 
ATOM     12  N   UNL     1       7.213   4.667  -1.052  0.00  0.00    -0.109 NA
ATOM     13  N   UNL     1       6.133   3.867  -0.660  0.00  0.00    -0.120 NA
ATOM     14  C   UNL     1       5.211   3.947  -1.587  0.00  0.00    +0.199 A 
ENDROOT
BRANCH   1  15
ATOM     15  C   UNL     1       8.971   6.524  -2.580  0.00  0.00    +0.163 C 
BRANCH  15  19
ATOM     16  C   UNL     1      11.906   3.812  -4.090  0.00  0.00    +0.000 A 
ATOM     17  C   UNL     1      11.533   4.913  -4.837  0.00  0.00    +0.000 A 
ATOM     18  C   UNL     1      10.583   5.791  -4.349  0.00  0.00    +0.005 A 
ATOM     19  C   UNL     1      10.006   5.567  -3.113  0.00  0.00    -0.028 A 
ATOM     20  C   UNL     1      10.383   4.468  -2.363  0.00  0.00    +0.005 A 
ATOM     21  C   UNL     1      11.329   3.588  -2.854  0.00  0.00    +0.000 A 
ENDBRANCH  15  19
ENDBRANCH   1  15
BRANCH  14  22
ATOM     22  S   UNL     1       3.653   3.123  -1.573  0.00  0.00    -0.068 S 
BRANCH  22  23
ATOM     23  C   UNL     1       3.670   2.181  -0.023  0.00  0.00    +0.170 C 
BRANCH  23  24
ATOM     24  C   UNL     1       2.432   1.325   0.057  0.00  0.00    -0.025 A 
ATOM     25  C   UNL     1       1.182   1.916   0.062  0.00  0.00    +0.005 A 
ATOM     26  C   UNL     1       0.046   1.131   0.135  0.00  0.00    +0.000 A 
ATOM     27  C   UNL     1       0.161  -0.245   0.205  0.00  0.00    +0.000 A 
ATOM     28  C   UNL     1       1.411  -0.836   0.202  0.00  0.00    +0.000 A 
ATOM     29  C   UNL     1       2.546  -0.051   0.128  0.00  0.00    +0.005 A 
ENDBRANCH  23  24
BRANCH  23  30
ATOM     30  C   UNL     1       3.698   3.134   1.144  0.00  0.00    +0.228 C 
ATOM     31  O   UNL     1       4.238   2.808   2.180  0.00  0.00    -0.274 OA
ATOM     32  N   UNL     1       3.124   4.348   1.037  0.00  0.00    -0.328 N 
ATOM     33  H   UNL     1       2.631   4.582   0.235  0.00  0.00    +0.145 HD
ATOM     34  H   UNL     1       3.203   4.988   1.761  0.00  0.00    +0.145 HD
ENDBRANCH  23  30
ENDBRANCH  22  23
ENDBRANCH  14  22
TORSDOF 6
