REMARK  Name = ZINC20411568
REMARK  9 active torsions:
REMARK  status: ('A' for Active; 'I' for Inactive)
REMARK    1  A    between atoms: C_1  and  C_2
REMARK    2  A    between atoms: C_2  and  C_3
REMARK    3  A    between atoms: C_3  and  C_4
REMARK    4  A    between atoms: C_4  and  O_5
REMARK    5  A    between atoms: O_5  and  C_6
REMARK    6  A    between atoms: C_6  and  C_8
REMARK    7  A    between atoms: N_17  and  C_18
REMARK    8  A    between atoms: C_18  and  N_20
REMARK    9  A    between atoms: C_21  and  C_23
REMARK                            x       y       z     vdW  Elec       q    Type
REMARK                         _______ _______ _______ _____ _____    ______ ____
ROOT
ATOM      1  C   UNL     1       3.166  12.569   0.037  0.00  0.00    +0.060 A 
ATOM      2  C   UNL     1       1.839  12.114   0.048  0.00  0.00    +0.017 A 
ATOM      3  C   UNL     1       1.546  10.791   0.044  0.00  0.00    +0.027 A 
ATOM      4  C   UNL     1       2.572   9.813   0.028  0.00  0.00    +0.055 A 
ATOM      5  C   UNL     1       3.904  10.298   0.018  0.00  0.00    +0.039 A 
ATOM      6  C   UNL     1       4.205  11.632   0.022  0.00  0.00    +0.032 A 
ATOM      7  S   UNL     1       4.852   8.796   0.009  0.00  0.00    -0.052 S 
ATOM      8  C   UNL     1       3.471   7.662   0.009  0.00  0.00    +0.163 A 
ATOM      9  N   UNL     1       2.440   8.478   0.023  0.00  0.00    -0.335 N 
ATOM     10  N   UNL     1       3.483   6.279   0.002  0.00  0.00    -0.169 NA
ATOM     11  H   UNL     1       1.438   8.025   0.030  0.00  0.00    +0.168 HD
ENDROOT
BRANCH   1  12
ATOM     12  C   UNL     1       3.461  14.013   0.042  0.00  0.00    +0.339 C 
ATOM     13  O   UNL     1       4.613  14.398   0.034  0.00  0.00    -0.245 OA
BRANCH  12  14
ATOM     14  O   UNL     1       2.452  14.907   0.057  0.00  0.00    -0.461 OA
BRANCH  14  15
ATOM     15  C   UNL     1       2.817  16.312   0.062  0.00  0.00    +0.232 C 
BRANCH  15  16
ATOM     16  C   UNL     1       1.549  17.168   0.079  0.00  0.00    +0.041 C 
BRANCH  16  18
ATOM     17  C   UNL     1       0.665  19.505   0.100  0.00  0.00    +0.004 C 
ATOM     18  C   UNL     1       1.933  18.649   0.083  0.00  0.00    -0.000 C 
ENDBRANCH  16  18
ENDBRANCH  15  16
ENDBRANCH  14  15
ENDBRANCH  12  14
ENDBRANCH   1  12
BRANCH  10  19
ATOM     19  C   UNL     1       2.321   5.595   0.009  0.00  0.00    +0.163 C 
ATOM     20  S   UNL     1       0.832   6.438   0.027  0.00  0.00    -0.016 S 
BRANCH  19  21
ATOM     21  N   UNL     1       2.333   4.248   0.002  0.00  0.00    -0.262 N 
ATOM     22  C   UNL     1       1.172   3.564   0.009  0.00  0.00    +0.250 C 
ATOM     23  O   UNL     1       0.114   4.162   0.022  0.00  0.00    -0.270 OA
ATOM     24  H   UNL     1       3.291   3.706  -0.010  0.00  0.00    +0.157 HD
BRANCH  22  25
ATOM     25  C   UNL     1       1.185   2.086   0.002  0.00  0.00    +0.037 A 
ATOM     26  C   UNL     1      -0.017   1.375   0.010  0.00  0.00    +0.014 A 
ATOM     27  C   UNL     1       0.002  -0.004   0.002  0.00  0.00    +0.016 A 
ATOM     28  C   UNL     1       1.209  -0.683  -0.013  0.00  0.00    +0.018 A 
ATOM     29  C   UNL     1       2.404   0.017  -0.020  0.00  0.00    +0.016 A 
ATOM     30  C   UNL     1       2.398   1.396  -0.013  0.00  0.00    +0.014 A 
ATOM     31 BR   UNL     1       1.226  -2.574  -0.022  0.00  0.00    -0.050 Br
ENDBRANCH  22  25
ENDBRANCH  19  21
ENDBRANCH  10  19
TORSDOF 8
