REMARK  Name = ZINC13498949
REMARK  14 active torsions:
REMARK  status: ('A' for Active; 'I' for Inactive)
REMARK    1  A    between atoms: C_1  and  C_2
REMARK    2  A    between atoms: C_6  and  C_15
REMARK    3  A    between atoms: C_13  and  C_14
REMARK    4  A    between atoms: C_15  and  N_72
REMARK    5  A    between atoms: C_16  and  C_17
REMARK    6  A    between atoms: C_16  and  N_72
REMARK    7  A    between atoms: C_17  and  C_18
REMARK    8  A    between atoms: C_18  and  O_19
REMARK    9  A    between atoms: C_20  and  C_22
REMARK   10  A    between atoms: C_20  and  C_33
REMARK   11  A    between atoms: C_20  and  N_72
REMARK   12  A    between atoms: N_26  and  C_27
REMARK   13  A    between atoms: C_33  and  C_34
REMARK   14  A    between atoms: C_33  and  C_35
REMARK                            x       y       z     vdW  Elec       q    Type
REMARK                         _______ _______ _______ _____ _____    ______ ____
ROOT
ATOM      1  N   UNL     1      -5.477   4.189  -1.492  0.00  0.00    +0.389 N 
ATOM      2  H   UNL     1      -4.970   4.642  -2.261  0.00  0.00    -0.080 HD
ENDROOT
BRANCH   1   3
ATOM      3  C   UNL     1      -4.724   4.391  -0.236  0.00  0.00    -0.037 C 
BRANCH   3   9
ATOM      4  C   UNL     1       2.010   7.096  -1.956  0.00  0.00    +0.044 C 
ATOM      5  C   UNL     1       1.103   5.937  -1.629  0.00  0.00    -0.047 A 
ATOM      6  C   UNL     1      -0.220   6.163  -1.374  0.00  0.00    +0.013 A 
ATOM      7  C   UNL     1      -1.061   5.088  -1.070  0.00  0.00    -0.001 A 
ATOM      8  C   UNL     1      -2.484   5.295  -0.792  0.00  0.00    +0.017 A 
ATOM      9  C   UNL     1      -3.255   4.213  -0.521  0.00  0.00    +0.001 A 
ATOM     10  C   UNL     1      -2.684   2.923  -0.493  0.00  0.00    +0.251 A 
ATOM     11  O   UNL     1      -3.393   1.965  -0.237  0.00  0.00    -0.268 OA
ATOM     12  N   UNL     1      -1.378   2.724  -0.741  0.00  0.00    -0.322 N 
ATOM     13  H   UNL     1      -1.018   1.823  -0.714  0.00  0.00    +0.169 HD
ATOM     14  C   UNL     1      -0.542   3.780  -1.035  0.00  0.00    +0.049 A 
ATOM     15  C   UNL     1       0.809   3.575  -1.293  0.00  0.00    +0.030 A 
ATOM     16  C   UNL     1       1.619   4.649  -1.590  0.00  0.00    -0.046 A 
ATOM     17  C   UNL     1       3.082   4.424  -1.875  0.00  0.00    +0.044 C 
ENDBRANCH   3   9
ENDBRANCH   1   3
BRANCH   1  18
ATOM     18  C   UNL     1      -5.599   2.745  -1.781  0.00  0.00    -0.075 C 
BRANCH  18  19
ATOM     19  C   UNL     1      -6.089   2.571  -3.220  0.00  0.00    +0.009 C 
BRANCH  19  20
ATOM     20  C   UNL     1      -6.075   1.086  -3.588  0.00  0.00    +0.154 C 
BRANCH  20  21
ATOM     21  O   UNL     1      -6.533   0.923  -4.932  0.00  0.00    -0.395 OA
ATOM     22  H   UNL     1      -6.551   0.005  -5.233  0.00  0.00    +0.209 HD
ENDBRANCH  20  21
ENDBRANCH  19  20
ENDBRANCH  18  19
ENDBRANCH   1  18
BRANCH   1  23
ATOM     23  C   UNL     1      -6.820   4.796  -1.378  0.00  0.00    +0.006 C 
BRANCH  23  24
ATOM     24  C   UNL     1      -6.714   6.263  -1.708  0.00  0.00    +0.139 A 
ATOM     25  N   UNL     1      -5.782   7.090  -1.303  0.00  0.00    -0.115 NA
ATOM     26  N   UNL     1      -6.039   8.252  -1.796  0.00  0.00    -0.023 NA
ATOM     27  N   UNL     1      -7.112   8.188  -2.505  0.00  0.00    -0.044 NA
ATOM     28  N   UNL     1      -7.555   6.976  -2.480  0.00  0.00    -0.228 N 
BRANCH  28  29
ATOM     29  C   UNL     1      -8.750   6.472  -3.160  0.00  0.00    +0.111 C 
ATOM     30  C   UNL     1      -8.604   6.679  -4.669  0.00  0.00    +0.027 C 
ATOM     31  C   UNL     1      -9.852   6.152  -5.379  0.00  0.00    +0.002 C 
ATOM     32  C   UNL     1     -11.083   6.911  -4.878  0.00  0.00    +0.000 C 
ATOM     33  C   UNL     1     -11.229   6.704  -3.369  0.00  0.00    +0.002 C 
ATOM     34  C   UNL     1      -9.981   7.231  -2.659  0.00  0.00    +0.027 C 
ENDBRANCH  28  29
ENDBRANCH  23  24
BRANCH  23  35
ATOM     35  C   UNL     1      -7.363   4.631   0.043  0.00  0.00    -0.024 C 
ATOM     36  C   UNL     1      -8.697   5.369   0.168  0.00  0.00    +0.006 C 
ATOM     37  C   UNL     1      -7.573   3.144   0.339  0.00  0.00    +0.006 C 
ENDBRANCH  23  35
ENDBRANCH   1  23
TORSDOF 10
