REMARK  Name = ZINC00855675
REMARK  6 active torsions:
REMARK  status: ('A' for Active; 'I' for Inactive)
REMARK    1  A    between atoms: C_1  and  C_2
REMARK    2  A    between atoms: C_2  and  C_3
REMARK    3  A    between atoms: C_2  and  C_4
REMARK    4  A    between atoms: C_2  and  C_5
REMARK    5  A    between atoms: C_17  and  C_20
REMARK    6  A    between atoms: C_25  and  N_26
REMARK                            x       y       z     vdW  Elec       q    Type
REMARK                         _______ _______ _______ _____ _____    ______ ____
ROOT
ATOM      1  C   UNL     1       0.220  -0.527  -1.562  0.00  0.00    -0.000 C 
ATOM      2  C   UNL     1       1.636   0.047  -1.460  0.00  0.00    +0.009 C 
ATOM      3  C   UNL     1       2.545  -0.623  -2.492  0.00  0.00    +0.037 C 
ATOM      4  C   UNL     1       1.889  -0.522  -3.864  0.00  0.00    -0.023 A 
ATOM      5  C   UNL     1       0.568  -0.262  -3.983  0.00  0.00    -0.004 A 
ATOM      6  S   UNL     1       0.262  -0.239  -5.730  0.00  0.00    -0.078 S 
ATOM      7  C   UNL     1       1.848  -0.568  -6.285  0.00  0.00    +0.080 A 
ATOM      8  C   UNL     1       2.612  -0.689  -5.114  0.00  0.00    +0.068 A 
ATOM      9  C   UNL     1       4.056  -0.982  -5.268  0.00  0.00    +0.248 C 
ATOM     10  O   UNL     1       4.760  -1.224  -4.304  0.00  0.00    -0.270 OA
ATOM     11  N   UNL     1       4.559  -0.971  -6.520  0.00  0.00    -0.289 N 
ATOM     12  C   UNL     1       3.827  -0.465  -7.677  0.00  0.00    +0.192 C 
ATOM     13  N   UNL     1       2.379  -0.707  -7.541  0.00  0.00    -0.316 N 
ATOM     14  C   UNL     1      -0.417  -0.047  -2.875  0.00  0.00    +0.046 C 
ATOM     15  H   UNL     1       5.455  -1.317  -6.658  0.00  0.00    +0.151 HD
ATOM     16  H   UNL     1       1.830  -0.952  -8.302  0.00  0.00    +0.149 HD
ENDROOT
BRANCH  12  17
ATOM     17  C   UNL     1       4.070   1.016  -7.807  0.00  0.00    +0.021 A 
ATOM     18  C   UNL     1       4.435   1.757  -6.697  0.00  0.00    +0.009 A 
ATOM     19  C   UNL     1       4.662   3.115  -6.817  0.00  0.00    +0.001 A 
ATOM     20  C   UNL     1       4.516   3.734  -8.044  0.00  0.00    +0.002 A 
ATOM     21  C   UNL     1       4.147   2.995  -9.152  0.00  0.00    +0.033 A 
ATOM     22  C   UNL     1       3.924   1.636  -9.033  0.00  0.00    +0.133 A 
BRANCH  22  23
ATOM     23  N   UNL     1       3.528   0.844 -10.220  0.00  0.00    +0.057 N 
ATOM     24  O   UNL     1       3.510   1.365 -11.321  0.00  0.00    -0.126 OA
ATOM     25  O   UNL     1       3.220  -0.328 -10.095  0.00  0.00    -0.126 OA
ENDBRANCH  22  23
ENDBRANCH  12  17
BRANCH   1  27
ATOM     26  C   UNL     1      -0.680   1.488  -0.391  0.00  0.00    +0.011 C 
ATOM     27  C   UNL     1      -0.618  -0.041  -0.378  0.00  0.00    -0.035 C 
ATOM     28  C   UNL     1       0.023  -0.514   0.928  0.00  0.00    +0.011 C 
ATOM     29  C   UNL     1      -2.034  -0.610  -0.487  0.00  0.00    +0.011 C 
ENDBRANCH   1  27
TORSDOF 3
