REMARK  Name = ZINC12537916
REMARK  5 active torsions:
REMARK  status: ('A' for Active; 'I' for Inactive)
REMARK    1  A    between atoms: C_4  and  S_10
REMARK    2  A    between atoms: C_6  and  N_7
REMARK    3  A    between atoms: S_10  and  N_13
REMARK    4  A    between atoms: C_16  and  C_19
REMARK    5  A    between atoms: C_19  and  N_21
REMARK                            x       y       z     vdW  Elec       q    Type
REMARK                         _______ _______ _______ _____ _____    ______ ____
ROOT
ATOM      1  N   UNL     1       4.698  -0.469  -1.442  0.00  0.00    -0.176 NA
ATOM      2  C   UNL     1       4.455  -1.315  -2.618  0.00  0.00    +0.110 C 
ATOM      3  C   UNL     1       5.804  -1.772  -3.183  0.00  0.00    +0.030 C 
ATOM      4  C   UNL     1       6.678  -0.547  -3.460  0.00  0.00    +0.080 C 
ATOM      5  C   UNL     1       6.933   0.206  -2.152  0.00  0.00    +0.030 C 
ATOM      6  C   UNL     1       5.593   0.689  -1.577  0.00  0.00    +0.110 C 
ENDROOT
BRANCH   1   7
ATOM      7  S   UNL     1       3.971  -0.809   0.007  0.00  0.00    +0.062 S 
ATOM      8  O   UNL     1       4.780  -0.219   1.016  0.00  0.00    -0.153 OA
ATOM      9  O   UNL     1       3.665  -2.197  -0.009  0.00  0.00    -0.153 OA
BRANCH   7  13
ATOM     10  C   UNL     1       0.014   1.390   0.068  0.00  0.00    +0.034 A 
ATOM     11  C   UNL     1       1.199   2.102   0.044  0.00  0.00    +0.024 A 
ATOM     12  C   UNL     1       2.409   1.430   0.026  0.00  0.00    +0.067 A 
ATOM     13  C   UNL     1       2.431   0.047   0.031  0.00  0.00    +0.126 A 
ATOM     14  C   UNL     1       1.246  -0.663   0.055  0.00  0.00    +0.062 A 
ATOM     15  C   UNL     1       0.038   0.008   0.074  0.00  0.00    +0.128 A 
ATOM     16 CL   UNL     1       3.897   2.323  -0.005  0.00  0.00    -0.082 Cl
BRANCH  15  17
ATOM     17  N   UNL     1      -1.231  -0.753   0.100  0.00  0.00    +0.056 N 
ATOM     18  O   UNL     1      -2.288  -0.166   0.117  0.00  0.00    -0.126 OA
ATOM     19  O   UNL     1      -1.211  -1.962   0.105  0.00  0.00    -0.126 OA
ENDBRANCH  15  17
ENDBRANCH   7  13
ENDBRANCH   1   7
BRANCH   4  20
ATOM     20  C   UNL     1       7.993  -0.991  -4.047  0.00  0.00    +0.241 C 
ATOM     21  O   UNL     1       8.210  -2.173  -4.228  0.00  0.00    -0.273 OA
BRANCH  20  22
ATOM     22  N   UNL     1       8.916  -0.088  -4.369  0.00  0.00    -0.159 NA
ATOM     23  C   UNL     1      10.113  -0.483  -4.788  0.00  0.00    +0.146 C 
ATOM     24  N   UNL     1      10.490  -1.758  -5.038  0.00  0.00    -0.325 N 
ATOM     25  C   UNL     1      11.836  -2.040  -5.492  0.00  0.00    +0.114 C 
ATOM     26  C   UNL     1      12.664  -0.744  -5.620  0.00  0.00    +0.095 C 
ATOM     27  S   UNL     1      11.426   0.509  -5.107  0.00  0.00    -0.092 S 
ATOM     28  H   UNL     1       9.858  -2.483  -4.914  0.00  0.00    +0.148 HD
ENDBRANCH  20  22
ENDBRANCH   4  20
TORSDOF 5
