REMARK  Name = ZINC38657626
REMARK  7 active torsions:
REMARK  status: ('A' for Active; 'I' for Inactive)
REMARK    1  A    between atoms: C_1  and  C_2
REMARK    2  A    between atoms: C_6  and  C_8
REMARK    3  A    between atoms: C_8  and  O_10
REMARK    4  A    between atoms: O_10  and  C_11
REMARK    5  A    between atoms: C_18  and  N_34
REMARK    6  A    between atoms: C_19  and  C_32
REMARK    7  A    between atoms: C_20  and  C_22
REMARK                            x       y       z     vdW  Elec       q    Type
REMARK                         _______ _______ _______ _____ _____    ______ ____
ROOT
ATOM      1  C   UNL     1       0.124  -4.946   3.574  0.00  0.00    +0.135 A 
ATOM      2  C   UNL     1       0.079  -4.306   4.805  0.00  0.00    +0.047 A 
ATOM      3  C   UNL     1       0.126  -5.047   5.969  0.00  0.00    +0.012 A 
ATOM      4  C   UNL     1       0.217  -6.427   5.915  0.00  0.00    +0.008 A 
ATOM      5  C   UNL     1       0.263  -7.071   4.688  0.00  0.00    +0.138 A 
ATOM      6  C   UNL     1       0.210  -6.327   3.516  0.00  0.00    +0.093 A 
ATOM      7  O   UNL     1       0.353  -8.421   4.614  0.00  0.00    -0.441 OA
ATOM      8  C   UNL     1       0.018  -9.174   5.675  0.00  0.00    +0.199 C 
ATOM      9  C   UNL     1      -0.041  -8.662   6.927  0.00  0.00    +0.098 C 
ATOM     10  C   UNL     1       0.268  -7.216   7.196  0.00  0.00    +0.098 C 
ENDROOT
BRANCH  10  11
ATOM     11  C   UNL     1       1.645  -7.104   7.798  0.00  0.00    -0.027 A 
ATOM     12  C   UNL     1       2.742  -7.434   7.062  0.00  0.00    +0.005 A 
ATOM     13  C   UNL     1       4.023  -7.336   7.602  0.00  0.00    +0.001 A 
ATOM     14  C   UNL     1       4.215  -6.909   8.880  0.00  0.00    +0.008 A 
ATOM     15  C   UNL     1       3.106  -6.559   9.669  0.00  0.00    -0.018 A 
ATOM     16  C   UNL     1       1.804  -6.652   9.119  0.00  0.00    -0.014 A 
ATOM     17  C   UNL     1       0.695  -6.297   9.907  0.00  0.00    +0.009 A 
ATOM     18  C   UNL     1       0.888  -5.864  11.182  0.00  0.00    +0.001 A 
ATOM     19  C   UNL     1       2.169  -5.766  11.722  0.00  0.00    +0.001 A 
ATOM     20  C   UNL     1       3.265  -6.114  10.993  0.00  0.00    +0.008 A 
ENDBRANCH  10  11
BRANCH   8  21
ATOM     21  N   UNL     1      -0.274 -10.502   5.484  0.00  0.00    -0.328 N 
ATOM     22  H   UNL     1      -0.236 -10.883   4.593  0.00  0.00    +0.145 HD
ATOM     23  H   UNL     1      -0.517 -11.059   6.240  0.00  0.00    +0.145 HD
ENDBRANCH   8  21
BRANCH   9  24
ATOM     24  C   UNL     1      -0.406  -9.516   8.018  0.00  0.00    +0.101 C 
ATOM     25  N   UNL     1      -0.695 -10.193   8.883  0.00  0.00    -0.191 NA
ENDBRANCH   9  24
BRANCH   1  26
ATOM     26  O   UNL     1       0.078  -4.218   2.427  0.00  0.00    -0.422 OA
BRANCH  26  27
ATOM     27  C   UNL     1       1.198  -3.580   2.037  0.00  0.00    +0.344 C 
ATOM     28  O   UNL     1       2.182  -3.591   2.750  0.00  0.00    -0.245 OA
BRANCH  27  34
ATOM     29  C   UNL     1       3.664  -0.823  -1.311  0.00  0.00    +0.044 C 
ATOM     30  C   UNL     1       2.414  -1.539  -0.871  0.00  0.00    -0.050 A 
ATOM     31  C   UNL     1       1.291  -1.529  -1.680  0.00  0.00    +0.003 A 
ATOM     32  C   UNL     1       0.139  -2.184  -1.283  0.00  0.00    +0.001 A 
ATOM     33  C   UNL     1       0.102  -2.852  -0.077  0.00  0.00    +0.015 A 
ATOM     34  C   UNL     1       1.231  -2.867   0.744  0.00  0.00    +0.060 A 
ATOM     35  C   UNL     1       2.392  -2.208   0.335  0.00  0.00    +0.018 A 
ENDBRANCH  27  34
ENDBRANCH  26  27
ENDBRANCH   1  26
TORSDOF 6
