REMARK  Name = ZINC36051884
REMARK  12 active torsions:
REMARK  status: ('A' for Active; 'I' for Inactive)
REMARK    1  A    between atoms: C_1  and  O_2
REMARK    2  A    between atoms: O_2  and  C_3
REMARK    3  A    between atoms: C_3  and  C_4
REMARK    4  A    between atoms: C_4  and  N_5
REMARK    5  A    between atoms: N_5  and  C_6
REMARK    6  A    between atoms: C_6  and  C_7
REMARK    7  A    between atoms: C_7  and  N_9
REMARK    8  A    between atoms: C_12  and  C_22
REMARK    9  A    between atoms: N_14  and  C_15
REMARK   10  A    between atoms: C_25  and  O_28
REMARK   11  A    between atoms: O_28  and  C_29
REMARK   12  A    between atoms: C_30  and  C_32
REMARK                            x       y       z     vdW  Elec       q    Type
REMARK                         _______ _______ _______ _____ _____    ______ ____
ROOT
ATOM      1  N   UNL     1      -1.843  -2.929  -4.543  0.00  0.00    -0.145 NA
ATOM      2  C   UNL     1      -1.729  -3.982  -5.353  0.00  0.00    +0.205 A 
ATOM      3  N   UNL     1      -1.121  -5.159  -5.050  0.00  0.00    -0.326 N 
ATOM      4  C   UNL     1      -1.220  -5.988  -6.160  0.00  0.00    +0.066 A 
ATOM      5  C   UNL     1      -1.880  -5.316  -7.120  0.00  0.00    +0.120 A 
ATOM      6  N   UNL     1      -2.205  -4.069  -6.623  0.00  0.00    -0.287 N 
ATOM      7  H   UNL     1      -0.693  -5.380  -4.208  0.00  0.00    +0.169 HD
ENDROOT
BRANCH   6   8
ATOM      8  C   UNL     1      -2.902  -3.067  -7.311  0.00  0.00    +0.049 A 
ATOM      9  C   UNL     1      -3.156  -1.849  -6.694  0.00  0.00    +0.029 A 
ATOM     10  C   UNL     1      -3.843  -0.862  -7.373  0.00  0.00    +0.040 A 
ATOM     11  C   UNL     1      -4.278  -1.086  -8.668  0.00  0.00    +0.124 A 
ATOM     12  C   UNL     1      -4.026  -2.300  -9.285  0.00  0.00    +0.040 A 
ATOM     13  C   UNL     1      -3.334  -3.287  -8.611  0.00  0.00    +0.029 A 
ATOM     14  F   UNL     1      -4.951  -0.120  -9.331  0.00  0.00    -0.205 F 
ENDBRANCH   6   8
BRANCH   4  15
ATOM     15  C   UNL     1      -0.691  -7.366  -6.268  0.00  0.00    +0.000 A 
ATOM     16  C   UNL     1      -0.856  -8.088  -7.451  0.00  0.00    +0.013 A 
ATOM     17  C   UNL     1      -0.362  -9.371  -7.547  0.00  0.00    +0.046 A 
ATOM     18  C   UNL     1       0.298  -9.946  -6.470  0.00  0.00    +0.120 A 
ATOM     19  C   UNL     1       0.464  -9.231  -5.291  0.00  0.00    +0.046 A 
ATOM     20  C   UNL     1      -0.021  -7.944  -5.189  0.00  0.00    +0.013 A 
BRANCH  18  21
ATOM     21  O   UNL     1       0.783 -11.212  -6.569  0.00  0.00    -0.495 OA
ATOM     22  C   UNL     1       1.452 -11.742  -5.422  0.00  0.00    +0.277 C 
ENDBRANCH  18  21
ENDBRANCH   4  15
BRANCH   1  23
ATOM     23  C   UNL     1      -1.331  -2.973  -3.319  0.00  0.00    +0.256 C 
ATOM     24  O   UNL     1      -0.757  -3.975  -2.936  0.00  0.00    -0.272 OA
BRANCH  23  25
ATOM     25  C   UNL     1      -1.461  -1.782  -2.405  0.00  0.00    +0.206 C 
BRANCH  25  26
ATOM     26  N   UNL     1      -0.819  -2.080  -1.122  0.00  0.00    -0.286 N 
ATOM     27  C   UNL     1      -1.562  -2.496  -0.077  0.00  0.00    +0.247 C 
ATOM     28  O   UNL     1      -1.042  -2.666   1.009  0.00  0.00    -0.270 OA
BRANCH  27  29
ATOM     29  C   UNL     1      -3.007  -2.745  -0.251  0.00  0.00    +0.037 A 
ATOM     30  C   UNL     1      -3.460  -3.532  -1.313  0.00  0.00    +0.016 A 
ATOM     31  C   UNL     1      -4.810  -3.761  -1.470  0.00  0.00    +0.039 A 
ATOM     32  C   UNL     1      -5.718  -3.212  -0.578  0.00  0.00    +0.123 A 
ATOM     33  C   UNL     1      -5.274  -2.430   0.478  0.00  0.00    +0.039 A 
ATOM     34  C   UNL     1      -3.926  -2.200   0.648  0.00  0.00    +0.016 A 
ATOM     35  F   UNL     1      -7.040  -3.439  -0.738  0.00  0.00    -0.205 F 
ENDBRANCH  27  29
BRANCH  26  36
ATOM     36  C   UNL     1       0.631  -1.925  -0.975  0.00  0.00    +0.136 C 
BRANCH  36  37
ATOM     37  C   UNL     1       0.957  -0.468  -0.642  0.00  0.00    +0.178 C 
BRANCH  37  39
ATOM     38  C   UNL     1       0.659   1.210   1.044  0.00  0.00    +0.194 C 
ATOM     39  O   UNL     1       0.409  -0.137   0.636  0.00  0.00    -0.381 OA
ENDBRANCH  37  39
ENDBRANCH  36  37
ENDBRANCH  26  36
ENDBRANCH  25  26
ENDBRANCH  23  25
ENDBRANCH   1  23
TORSDOF 10
