REMARK  Name = ZINC01383410
REMARK  2 active torsions:
REMARK  status: ('A' for Active; 'I' for Inactive)
REMARK    1  A    between atoms: C_2  and  C_15
REMARK    2  A    between atoms: N_6  and  C_9
REMARK                            x       y       z     vdW  Elec       q    Type
REMARK                         _______ _______ _______ _____ _____    ______ ____
ROOT
ATOM      1  C   UNL     1      -0.017   1.403   0.010  0.00  0.00    +0.102 A 
ATOM      2  C   UNL     1       1.169   2.077   0.002  0.00  0.00    +0.154 A 
ATOM      3  N   UNL     1       2.319   1.405  -0.013  0.00  0.00    -0.189 NA
ATOM      4  C   UNL     1       2.343   0.089  -0.020  0.00  0.00    +0.352 A 
ATOM      5  O   UNL     1       3.530  -0.550  -0.035  0.00  0.00    -0.244 OA
ATOM      6  N   UNL     1       1.195  -0.636  -0.012  0.00  0.00    -0.256 N 
ATOM      7  C   UNL     1       0.002  -0.004   0.002  0.00  0.00    +0.257 A 
ATOM      8  O   UNL     1      -1.039  -0.640   0.009  0.00  0.00    -0.267 OA
ENDROOT
BRANCH   6   9
ATOM      9  C   UNL     1       1.251  -2.100  -0.021  0.00  0.00    +0.095 C 
ATOM     10  C   UNL     1       2.003  -2.589   1.218  0.00  0.00    +0.025 C 
ATOM     11  C   UNL     1       2.062  -4.118   1.210  0.00  0.00    +0.002 C 
ATOM     12  C   UNL     1       2.789  -4.593  -0.049  0.00  0.00    +0.000 C 
ATOM     13  C   UNL     1       2.037  -4.104  -1.289  0.00  0.00    +0.002 C 
ATOM     14  C   UNL     1       1.979  -2.575  -1.280  0.00  0.00    +0.025 C 
ENDBRANCH   6   9
BRANCH   2  15
ATOM     15  C   UNL     1       1.178   3.584   0.010  0.00  0.00    +0.435 C 
ATOM     16  F   UNL     1      -0.138   4.058   0.024  0.00  0.00    -0.164 F 
ATOM     17  F   UNL     1       1.851   4.040   1.148  0.00  0.00    -0.164 F 
ATOM     18  F   UNL     1       1.829   4.052  -1.137  0.00  0.00    -0.164 F 
ENDBRANCH   2  15
TORSDOF 2
