REMARK  Name = ZINC04994420
REMARK  6 active torsions:
REMARK  status: ('A' for Active; 'I' for Inactive)
REMARK    1  A    between atoms: C_4  and  O_22
REMARK    2  A    between atoms: C_5  and  C_7
REMARK    3  A    between atoms: C_9  and  C_20
REMARK    4  A    between atoms: C_10  and  N_19
REMARK    5  A    between atoms: O_22  and  C_23
REMARK    6  A    between atoms: C_23  and  C_24
REMARK                            x       y       z     vdW  Elec       q    Type
REMARK                         _______ _______ _______ _____ _____    ______ ____
ROOT
ATOM      1  C   UNL     1       3.656   4.685  -4.010  0.00  0.00    +0.104 C 
ATOM      2  C   UNL     1       3.240   5.875  -4.829  0.00  0.00    +0.098 C 
ATOM      3  C   UNL     1       3.904   6.189  -5.967  0.00  0.00    +0.198 C 
ATOM      4  O   UNL     1       4.947   5.459  -6.393  0.00  0.00    -0.445 OA
ATOM      5  C   UNL     1       5.094   4.189  -5.970  0.00  0.00    +0.115 C 
ATOM      6  C   UNL     1       4.504   3.756  -4.844  0.00  0.00    +0.046 C 
ATOM      7  C   UNL     1       4.651   2.422  -4.407  0.00  0.00    +0.163 C 
ATOM      8  O   UNL     1       4.115   2.070  -3.375  0.00  0.00    -0.292 OA
ATOM      9  C   UNL     1       5.461   1.429  -5.195  0.00  0.00    +0.080 C 
ATOM     10  C   UNL     1       5.432   1.829  -6.674  0.00  0.00    +0.016 C 
ATOM     11  C   UNL     1       5.952   3.263  -6.799  0.00  0.00    +0.075 C 
ENDROOT
BRANCH   1  16
ATOM     12  C   UNL     1       6.357   6.282  -1.910  0.00  0.00    +0.001 A 
ATOM     13  C   UNL     1       5.916   6.005  -0.629  0.00  0.00    +0.004 A 
ATOM     14  C   UNL     1       4.742   5.304  -0.439  0.00  0.00    +0.046 A 
ATOM     15  C   UNL     1       4.004   4.878  -1.534  0.00  0.00    +0.125 A 
ATOM     16  C   UNL     1       4.452   5.152  -2.818  0.00  0.00    +0.007 A 
ATOM     17  C   UNL     1       5.624   5.859  -3.003  0.00  0.00    +0.008 A 
BRANCH  15  18
ATOM     18  O   UNL     1       2.848   4.188  -1.349  0.00  0.00    -0.487 OA
BRANCH  18  19
ATOM     19  C   UNL     1       2.451   3.936   0.001  0.00  0.00    +0.264 C 
BRANCH  19  20
ATOM     20  C   UNL     1       1.156   3.166   0.009  0.00  0.00    -0.010 A 
ATOM     21  C   UNL     1       1.175   1.783   0.000  0.00  0.00    +0.008 A 
ATOM     22  C   UNL     1      -0.013   1.076   0.008  0.00  0.00    +0.020 A 
ATOM     23  C   UNL     1      -1.220   1.751   0.017  0.00  0.00    +0.041 A 
ATOM     24  C   UNL     1      -1.238   3.135   0.030  0.00  0.00    +0.020 A 
ATOM     25  C   UNL     1      -0.050   3.841   0.023  0.00  0.00    +0.008 A 
ATOM     26 CL   UNL     1      -2.712   0.864   0.019  0.00  0.00    -0.084 Cl
ENDBRANCH  19  20
ENDBRANCH  18  19
ENDBRANCH  15  18
ENDBRANCH   1  16
BRANCH   3  27
ATOM     27  N   UNL     1       3.501   7.277  -6.701  0.00  0.00    -0.328 N 
ATOM     28  H   UNL     1       2.749   7.812  -6.403  0.00  0.00    +0.145 HD
ATOM     29  H   UNL     1       3.969   7.511  -7.518  0.00  0.00    +0.145 HD
ENDBRANCH   3  27
BRANCH   2  30
ATOM     30  C   UNL     1       2.135   6.681  -4.403  0.00  0.00    +0.101 C 
ATOM     31  N   UNL     1       1.259   7.320  -4.065  0.00  0.00    -0.191 NA
ENDBRANCH   2  30
TORSDOF 6
