REMARK  Name = ZINC32180950
REMARK  6 active torsions:
REMARK  status: ('A' for Active; 'I' for Inactive)
REMARK    1  A    between atoms: C_1  and  C_2
REMARK    2  A    between atoms: C_6  and  C_35
REMARK    3  A    between atoms: C_7  and  N_8
REMARK    4  A    between atoms: N_8  and  S_9
REMARK    5  A    between atoms: S_9  and  C_12
REMARK    6  A    between atoms: C_25  and  C_28
REMARK                            x       y       z     vdW  Elec       q    Type
REMARK                         _______ _______ _______ _____ _____    ______ ____
ROOT
ATOM      1  C   UNL     1      -2.726   1.412   2.351  0.00  0.00    +0.109 A 
ATOM      2  C   UNL     1      -3.506   1.359   1.211  0.00  0.00    +0.030 A 
ATOM      3  C   UNL     1      -2.929   1.515  -0.033  0.00  0.00    +0.025 A 
ATOM      4  C   UNL     1      -1.561   1.727  -0.149  0.00  0.00    +0.031 A 
ATOM      5  C   UNL     1      -0.779   1.793   1.010  0.00  0.00    -0.018 A 
ATOM      6  C   UNL     1      -1.364   1.630   2.246  0.00  0.00    +0.034 A 
ATOM      7  C   UNL     1       0.669   2.042   0.843  0.00  0.00    +0.049 C 
ATOM      8  C   UNL     1       1.665   1.591   1.848  0.00  0.00    -0.023 C 
ATOM      9  C   UNL     1       2.803   1.315   1.224  0.00  0.00    -0.030 C 
ATOM     10  C   UNL     1       2.640   1.532  -0.282  0.00  0.00    +0.033 C 
ATOM     11  C   UNL     1       1.130   1.325  -0.462  0.00  0.00    +0.029 C 
ATOM     12  C   UNL     1       0.463   2.058  -1.612  0.00  0.00    +0.106 C 
ATOM     13  N   UNL     1      -0.993   1.847  -1.423  0.00  0.00    -0.336 N 
ATOM     14  H   UNL     1      -1.657   1.781  -2.298  0.00  0.00    +0.147 HD
ENDROOT
BRANCH  12  15
ATOM     15  C   UNL     1       0.945   1.508  -2.929  0.00  0.00    -0.013 A 
ATOM     16  C   UNL     1       1.648   0.318  -2.966  0.00  0.00    +0.006 A 
ATOM     17  C   UNL     1       2.087  -0.188  -4.175  0.00  0.00    +0.000 A 
ATOM     18  C   UNL     1       1.830   0.499  -5.347  0.00  0.00    +0.001 A 
ATOM     19  C   UNL     1       1.132   1.691  -5.311  0.00  0.00    +0.015 A 
ATOM     20  C   UNL     1       0.689   2.196  -4.101  0.00  0.00    +0.023 A 
ATOM     21 BR   UNL     1      -0.266   3.827  -4.051  0.00  0.00    -0.050 Br
ENDBRANCH  12  15
BRANCH   1  22
ATOM     22  S   UNL     1      -3.465   1.203   3.937  0.00  0.00    +0.072 S 
ATOM     23  O   UNL     1      -2.551   1.736   4.885  0.00  0.00    -0.150 OA
ATOM     24  O   UNL     1      -4.804   1.667   3.825  0.00  0.00    -0.150 OA
BRANCH  22  25
ATOM     25  N   UNL     1      -3.552  -0.425   4.226  0.00  0.00    -0.216 N 
ATOM     26  H   UNL     1      -4.531  -0.925   4.270  0.00  0.00    +0.174 HD
BRANCH  25  33
ATOM     27  C   UNL     1      -2.660  -2.090   2.098  0.00  0.00    +0.046 C 
ATOM     28  C   UNL     1      -1.910  -1.990   3.401  0.00  0.00    -0.028 A 
ATOM     29  C   UNL     1      -0.750  -2.715   3.588  0.00  0.00    +0.005 A 
ATOM     30  C   UNL     1      -0.064  -2.629   4.786  0.00  0.00    +0.001 A 
ATOM     31  C   UNL     1      -0.533  -1.812   5.798  0.00  0.00    +0.005 A 
ATOM     32  C   UNL     1      -1.690  -1.079   5.615  0.00  0.00    -0.028 A 
ATOM     33  C   UNL     1      -2.381  -1.164   4.413  0.00  0.00    +0.054 A 
ATOM     34  C   UNL     1      -2.201  -0.189   6.719  0.00  0.00    +0.046 C 
ENDBRANCH  25  33
ENDBRANCH  22  25
ENDBRANCH   1  22
TORSDOF 4
