REMARK  Name = ZINC35052785
REMARK  13 active torsions:
REMARK  status: ('A' for Active; 'I' for Inactive)
REMARK    1  A    between atoms: C_1  and  C_2
REMARK    2  A    between atoms: C_2  and  C_4
REMARK    3  A    between atoms: C_2  and  N_15
REMARK    4  A    between atoms: N_6  and  C_7
REMARK    5  A    between atoms: C_10  and  O_13
REMARK    6  A    between atoms: O_13  and  C_14
REMARK    7  A    between atoms: C_16  and  C_18
REMARK    8  A    between atoms: C_18  and  N_19
REMARK    9  A    between atoms: C_20  and  C_22
REMARK   10  A    between atoms: C_34  and  C_36
REMARK   11  A    between atoms: C_34  and  C_37
REMARK   12  A    between atoms: C_39  and  C_41
REMARK   13  A    between atoms: C_39  and  C_42
REMARK                            x       y       z     vdW  Elec       q    Type
REMARK                         _______ _______ _______ _____ _____    ______ ____
ROOT
ATOM      1  N   UNL     1       4.224  -1.112   2.127  0.00  0.00    -0.305 N 
ATOM      2  C   UNL     1       5.081  -1.528   3.081  0.00  0.00    +0.245 C 
ATOM      3  O   UNL     1       4.659  -1.887   4.160  0.00  0.00    -0.273 OA
ATOM      4  H   UNL     1       4.561  -0.825   1.264  0.00  0.00    +0.149 HD
ENDROOT
BRANCH   2   5
ATOM      5  C   UNL     1       6.562  -1.548   2.806  0.00  0.00    +0.238 C 
ATOM      6  C   UNL     1       6.865  -2.561   1.727  0.00  0.00    +0.191 C 
ATOM      7  C   UNL     1       8.406  -2.597   1.478  0.00  0.00    +0.187 C 
ATOM      8  C   UNL     1       8.989  -3.120   2.761  0.00  0.00    +0.209 C 
ATOM      9  C   UNL     1       8.662  -2.018   3.816  0.00  0.00    +0.286 C 
ATOM     10  O   UNL     1       7.276  -1.927   4.010  0.00  0.00    -0.333 OA
ATOM     11  O   UNL     1       9.508  -2.370   4.895  0.00  0.00    -0.318 OA
ATOM     12  C   UNL     1      10.646  -3.035   4.298  0.00  0.00    +0.168 C 
ATOM     13  O   UNL     1      10.415  -3.168   2.864  0.00  0.00    -0.338 OA
ATOM     14  C   UNL     1      11.913  -2.216   4.551  0.00  0.00    +0.074 C 
ATOM     15  C   UNL     1      10.805  -4.430   4.907  0.00  0.00    +0.074 C 
ATOM     16  O   UNL     1       8.479  -3.392   0.303  0.00  0.00    -0.341 OA
ATOM     17  C   UNL     1       7.245  -3.151  -0.411  0.00  0.00    +0.166 C 
ATOM     18  O   UNL     1       6.409  -2.297   0.404  0.00  0.00    -0.340 OA
ATOM     19  C   UNL     1       6.538  -4.481  -0.681  0.00  0.00    +0.074 C 
ATOM     20  C   UNL     1       7.546  -2.451  -1.738  0.00  0.00    +0.074 C 
ENDBRANCH   2   5
BRANCH   1  21
ATOM     21  C   UNL     1       2.784  -1.093   2.394  0.00  0.00    +0.200 C 
BRANCH  21  23
ATOM     22  N   UNL     1       0.710  -0.487   1.190  0.00  0.00    -0.303 N 
ATOM     23  C   UNL     1       2.054  -0.590   1.176  0.00  0.00    +0.231 C 
ATOM     24  O   UNL     1       2.675  -0.279   0.182  0.00  0.00    -0.274 OA
ATOM     25  H   UNL     1       0.213  -0.736   1.985  0.00  0.00    +0.149 HD
BRANCH  22  27
ATOM     26  C   UNL     1      -0.029   1.531   0.022  0.00  0.00    +0.038 C 
ATOM     27  C   UNL     1       0.000   0.002   0.005  0.00  0.00    +0.156 C 
BRANCH  27  28
ATOM     28  C   UNL     1      -1.411  -0.527   0.012  0.00  0.00    +0.237 C 
ATOM     29  O   UNL     1      -1.787  -1.242   0.917  0.00  0.00    -0.273 OA
ATOM     30  N   UNL     1      -2.256  -0.206  -0.988  0.00  0.00    -0.284 N 
ATOM     31  H   UNL     1      -1.977   0.418  -1.677  0.00  0.00    +0.155 HD
BRANCH  30  32
ATOM     32  C   UNL     1      -3.535  -0.774  -1.034  0.00  0.00    +0.034 A 
ATOM     33  C   UNL     1      -4.114  -1.085  -2.257  0.00  0.00    +0.027 A 
ATOM     34  C   UNL     1      -5.375  -1.645  -2.302  0.00  0.00    +0.047 A 
ATOM     35  C   UNL     1      -6.065  -1.897  -1.124  0.00  0.00    +0.120 A 
ATOM     36  C   UNL     1      -5.487  -1.587   0.098  0.00  0.00    +0.047 A 
ATOM     37  C   UNL     1      -4.223  -1.032   0.144  0.00  0.00    +0.027 A 
BRANCH  35  38
ATOM     38  O   UNL     1      -7.307  -2.449  -1.169  0.00  0.00    -0.495 OA
ATOM     39  C   UNL     1      -7.958  -2.681   0.082  0.00  0.00    +0.277 C 
ENDBRANCH  35  38
ENDBRANCH  30  32
ENDBRANCH  27  28
ENDBRANCH  22  27
ENDBRANCH  21  23
ENDBRANCH   1  21
TORSDOF 7
