REMARK  Name = ZINC40407084
REMARK  11 active torsions:
REMARK  status: ('A' for Active; 'I' for Inactive)
REMARK    1  A    between atoms: C_1  and  C_2
REMARK    2  A    between atoms: N_4  and  C_5
REMARK    3  A    between atoms: C_8  and  S_11
REMARK    4  A    between atoms: S_11  and  N_14
REMARK    5  A    between atoms: N_14  and  C_15
REMARK    6  A    between atoms: N_14  and  C_26
REMARK    7  A    between atoms: C_15  and  C_16
REMARK    8  A    between atoms: C_18  and  O_24
REMARK    9  A    between atoms: C_20  and  O_22
REMARK   10  A    between atoms: O_22  and  C_23
REMARK   11  A    between atoms: O_24  and  C_25
REMARK                            x       y       z     vdW  Elec       q    Type
REMARK                         _______ _______ _______ _____ _____    ______ ____
ROOT
ATOM      1  N   UNL     1      -2.119  -7.073  -1.073  0.00  0.00    -0.199 N 
ENDROOT
BRANCH   1   2
ATOM      2  C   UNL     1      -3.103  -7.233  -0.095  0.00  0.00    +0.052 A 
ATOM      3  C   UNL     1      -4.281  -6.500  -0.167  0.00  0.00    +0.026 A 
ATOM      4  C   UNL     1      -5.253  -6.661   0.801  0.00  0.00    +0.017 A 
ATOM      5  C   UNL     1      -5.054  -7.550   1.842  0.00  0.00    +0.018 A 
ATOM      6  C   UNL     1      -3.882  -8.281   1.917  0.00  0.00    +0.017 A 
ATOM      7  C   UNL     1      -2.909  -8.130   0.948  0.00  0.00    +0.026 A 
ATOM      8 BR   UNL     1      -6.386  -7.766   3.167  0.00  0.00    -0.050 Br
ENDBRANCH   1   2
BRANCH   1   9
ATOM      9  S   UNL     1      -0.604  -6.558  -0.646  0.00  0.00    +0.075 S 
ATOM     10  O   UNL     1       0.285  -7.039  -1.645  0.00  0.00    -0.150 OA
ATOM     11  O   UNL     1      -0.442  -6.870   0.731  0.00  0.00    -0.150 OA
BRANCH   9  15
ATOM     12  C   UNL     1      -0.586  -2.041  -0.963  0.00  0.00    +0.033 A 
ATOM     13  C   UNL     1      -0.855  -2.652   0.255  0.00  0.00    +0.025 A 
ATOM     14  C   UNL     1      -0.860  -4.030   0.348  0.00  0.00    +0.030 A 
ATOM     15  C   UNL     1      -0.597  -4.801  -0.769  0.00  0.00    +0.109 A 
ATOM     16  C   UNL     1      -0.328  -4.195  -1.983  0.00  0.00    +0.030 A 
ATOM     17  C   UNL     1      -0.328  -2.818  -2.085  0.00  0.00    +0.025 A 
BRANCH  12  21
ATOM     18  C   UNL     1      -1.126   1.457  -2.246  0.00  0.00    +0.109 C 
ATOM     19  C   UNL     1      -1.032  -0.046  -2.180  0.00  0.00    +0.214 C 
ATOM     20  O   UNL     1      -1.364  -0.716  -3.135  0.00  0.00    -0.276 OA
ATOM     21  N   UNL     1      -0.580  -0.645  -1.061  0.00  0.00    -0.286 N 
ATOM     22  H   UNL     1      -0.251  -0.108  -0.323  0.00  0.00    +0.155 HD
ENDBRANCH  12  21
ENDBRANCH   9  15
ENDBRANCH   1   9
BRANCH   1  23
ATOM     23  C   UNL     1      -2.426  -7.360  -2.476  0.00  0.00    +0.167 C 
BRANCH  23  24
ATOM     24  C   UNL     1      -2.241  -8.833  -2.740  0.00  0.00    -0.021 A 
ATOM     25  C   UNL     1      -1.044  -9.297  -3.248  0.00  0.00    +0.051 A 
ATOM     26  C   UNL     1      -0.871 -10.652  -3.492  0.00  0.00    +0.124 A 
ATOM     27  C   UNL     1      -1.901 -11.540  -3.224  0.00  0.00    +0.091 A 
ATOM     28  C   UNL     1      -3.102 -11.072  -2.714  0.00  0.00    +0.124 A 
ATOM     29  C   UNL     1      -3.268  -9.716  -2.467  0.00  0.00    +0.051 A 
BRANCH  28  30
ATOM     30  O   UNL     1      -4.114 -11.940  -2.451  0.00  0.00    -0.495 OA
ATOM     31  C   UNL     1      -3.872 -13.321  -2.725  0.00  0.00    +0.277 C 
ENDBRANCH  28  30
BRANCH  26  32
ATOM     32  O   UNL     1       0.307 -11.109  -3.993  0.00  0.00    -0.495 OA
ATOM     33  C   UNL     1       0.415 -12.515  -4.218  0.00  0.00    +0.277 C 
ENDBRANCH  26  32
ENDBRANCH  23  24
ENDBRANCH   1  23
TORSDOF 8
