REMARK  Name = ZINC63695504
REMARK  7 active torsions:
REMARK  status: ('A' for Active; 'I' for Inactive)
REMARK    1  A    between atoms: C_1  and  C_2
REMARK    2  A    between atoms: C_2  and  C_3
REMARK    3  A    between atoms: C_3  and  C_4
REMARK    4  A    between atoms: C_4  and  C_6
REMARK    5  A    between atoms: C_4  and  N_11
REMARK    6  A    between atoms: C_12  and  C_14
REMARK    7  A    between atoms: N_17  and  C_20
REMARK                            x       y       z     vdW  Elec       q    Type
REMARK                         _______ _______ _______ _____ _____    ______ ____
ROOT
ATOM      1  C   UNL     1       0.393  -4.266   2.563  0.00  0.00    +0.077 C 
ATOM      2  C   UNL     1      -0.679  -4.346   3.653  0.00  0.00    +0.028 C 
ATOM      3  C   UNL     1      -0.058  -4.913   4.932  0.00  0.00    +0.089 C 
ATOM      4  N   UNL     1       0.491  -6.247   4.661  0.00  0.00    -0.266 NA
ATOM      5  C   UNL     1       1.555  -6.189   3.651  0.00  0.00    +0.089 C 
ATOM      6  C   UNL     1       0.982  -5.661   2.334  0.00  0.00    +0.028 C 
ENDROOT
BRANCH   4   7
ATOM      7  C   UNL     1       0.972  -6.880   5.897  0.00  0.00    +0.252 C 
ATOM      8  N   UNL     1       1.902  -5.981   6.593  0.00  0.00    -0.351 N 
ATOM      9  C   UNL     1       1.391  -5.721   7.762  0.00  0.00    +0.061 A 
ATOM     10  C   UNL     1       1.849  -4.897   8.890  0.00  0.00    +0.029 A 
ATOM     11  C   UNL     1       1.091  -4.813  10.002  0.00  0.00    +0.022 A 
ATOM     12  C   UNL     1      -0.137  -5.488  10.136  0.00  0.00    +0.043 A 
ATOM     13  C   UNL     1      -0.647  -6.269   9.161  0.00  0.00    +0.047 A 
ATOM     14  C   UNL     1       0.092  -6.434   7.903  0.00  0.00    +0.063 A 
ATOM     15  N   UNL     1      -0.150  -7.110   6.815  0.00  0.00    -0.351 N 
ATOM     16 CL   UNL     1      -1.030  -5.309  11.614  0.00  0.00    -0.083 Cl
ATOM     17  H   UNL     1       2.742  -5.644   6.246  0.00  0.00    +0.163 HD
ATOM     18  H   UNL     1      -0.929  -7.662   6.643  0.00  0.00    +0.163 HD
ENDBRANCH   4   7
BRANCH   1  20
ATOM     19  N   UNL     1      -0.810  -2.550   1.248  0.00  0.00    -0.308 N 
ATOM     20  C   UNL     1      -0.227  -3.765   1.284  0.00  0.00    +0.217 C 
ATOM     21  O   UNL     1      -0.200  -4.455   0.286  0.00  0.00    -0.275 OA
ATOM     22  H   UNL     1      -0.832  -1.999   2.046  0.00  0.00    +0.149 HD
BRANCH  19  23
ATOM     23  C   UNL     1      -1.413  -2.063   0.004  0.00  0.00    +0.110 C 
BRANCH  23  24
ATOM     24  C   UNL     1      -2.822  -2.584  -0.109  0.00  0.00    +0.010 A 
ATOM     25  C   UNL     1      -3.475  -3.049  -1.202  0.00  0.00    +0.013 A 
ATOM     26  C   UNL     1      -4.781  -3.482  -1.069  0.00  0.00    +0.008 A 
ATOM     27  C   UNL     1      -5.371  -3.428   0.151  0.00  0.00    +0.045 A 
ATOM     28  S   UNL     1      -4.063  -2.756   1.164  0.00  0.00    -0.100 S 
ENDBRANCH  23  24
BRANCH  23  29
ATOM     29  C   UNL     1      -1.433  -0.534   0.013  0.00  0.00    +0.027 C 
BRANCH  29  31
ATOM     30  C   UNL     1      -0.019   1.526   0.010  0.00  0.00    +0.004 C 
ATOM     31  C   UNL     1       0.002  -0.004   0.002  0.00  0.00    -0.001 C 
ENDBRANCH  29  31
ENDBRANCH  23  29
ENDBRANCH  19  23
ENDBRANCH   1  20
TORSDOF 6
