REMARK  Name = ZINC63981961
REMARK  3 active torsions:
REMARK  status: ('A' for Active; 'I' for Inactive)
REMARK    1  A    between atoms: C_1  and  N_2
REMARK    2  A    between atoms: N_11  and  C_12
REMARK    3  A    between atoms: C_12  and  C_14
REMARK                            x       y       z     vdW  Elec       q    Type
REMARK                         _______ _______ _______ _____ _____    ______ ____
ROOT
ATOM      1  C   UNL     1      -0.017   1.461   0.033  0.00  0.00    +0.152 C 
ATOM      2  N   UNL     1       0.002  -0.003   0.017  0.00  0.00    -0.315 N 
ATOM      3  C   UNL     1      -1.115  -0.834   0.020  0.00  0.00    +0.068 A 
ATOM      4  C   UNL     1      -2.480  -0.584   0.037  0.00  0.00    +0.029 A 
ATOM      5  C   UNL     1      -3.372  -1.637   0.035  0.00  0.00    +0.022 A 
ATOM      6  C   UNL     1      -2.911  -2.943   0.017  0.00  0.00    +0.043 A 
ATOM      7  C   UNL     1      -1.554  -3.203  -0.000  0.00  0.00    +0.047 A 
ATOM      8  C   UNL     1      -0.649  -2.150   0.001  0.00  0.00    +0.067 A 
ATOM      9  N   UNL     1       0.741  -2.095  -0.013  0.00  0.00    -0.326 N 
ATOM     10  C   UNL     1       1.116  -0.786  -0.008  0.00  0.00    +0.201 A 
ATOM     11  N   UNL     1       2.366  -0.345  -0.023  0.00  0.00    -0.140 NA
ATOM     12 CL   UNL     1      -4.043  -4.260   0.016  0.00  0.00    -0.083 Cl
ATOM     13  H   UNL     1       1.340  -2.858  -0.027  0.00  0.00    +0.169 HD
ENDROOT
BRANCH  11  14
ATOM     14  C   UNL     1       3.385  -1.212   0.063  0.00  0.00    +0.305 C 
ATOM     15  O   UNL     1       3.166  -2.413   0.059  0.00  0.00    -0.265 OA
BRANCH  14  16
ATOM     16  C   UNL     1       4.765  -0.718   0.163  0.00  0.00    +0.193 A 
ATOM     17  C   UNL     1       5.888  -1.488   0.251  0.00  0.00    +0.056 A 
ATOM     18  C   UNL     1       6.978  -0.607   0.326  0.00  0.00    +0.063 A 
ATOM     19  C   UNL     1       6.478   0.650   0.282  0.00  0.00    +0.195 A 
ATOM     20  O   UNL     1       5.144   0.577   0.177  0.00  0.00    -0.439 OA
ATOM     21 CL   UNL     1       7.410   2.113   0.344  0.00  0.00    -0.043 Cl
ENDBRANCH  14  16
ENDBRANCH  11  14
TORSDOF 2
