REMARK  Name = ZINC64392372
REMARK  14 active torsions:
REMARK  status: ('A' for Active; 'I' for Inactive)
REMARK    1  A    between atoms: C_1  and  C_2
REMARK    2  A    between atoms: C_2  and  O_3
REMARK    3  A    between atoms: O_3  and  C_4
REMARK    4  A    between atoms: C_6  and  C_16
REMARK    5  A    between atoms: C_8  and  O_13
REMARK    6  A    between atoms: C_9  and  O_10
REMARK    7  A    between atoms: O_10  and  C_11
REMARK    8  A    between atoms: C_11  and  C_12
REMARK    9  A    between atoms: O_13  and  C_14
REMARK   10  A    between atoms: C_14  and  C_15
REMARK   11  A    between atoms: N_18  and  C_19
REMARK   12  A    between atoms: C_19  and  C_21
REMARK   13  A    between atoms: C_19  and  C_22
REMARK   14  A    between atoms: N_24  and  C_25
REMARK                            x       y       z     vdW  Elec       q    Type
REMARK                         _______ _______ _______ _____ _____    ______ ____
ROOT
ATOM      1  C   UNL     1      -0.215  -4.962   0.454  0.00  0.00    +0.245 C 
ATOM      2  O   UNL     1      -0.778  -4.512   1.433  0.00  0.00    -0.270 OA
ATOM      3  N   UNL     1      -0.109  -6.296   0.291  0.00  0.00    -0.300 N 
ATOM      4  H   UNL     1       0.340  -6.655  -0.491  0.00  0.00    +0.150 HD
ENDROOT
BRANCH   1   7
ATOM      5  C   UNL     1       0.777  -1.811  -1.336  0.00  0.00    +0.166 A 
ATOM      6  C   UNL     1       0.244  -2.665  -0.389  0.00  0.00    +0.062 A 
ATOM      7  C   UNL     1       0.353  -4.048  -0.557  0.00  0.00    +0.044 A 
ATOM      8  C   UNL     1       1.000  -4.564  -1.682  0.00  0.00    +0.062 A 
ATOM      9  C   UNL     1       1.531  -3.705  -2.627  0.00  0.00    +0.166 A 
ATOM     10  C   UNL     1       1.417  -2.328  -2.460  0.00  0.00    +0.204 A 
BRANCH   5  11
ATOM     11  O   UNL     1       0.671  -0.465  -1.174  0.00  0.00    -0.488 OA
BRANCH  11  13
ATOM     12  C   UNL     1      -0.019   1.526   0.010  0.00  0.00    +0.048 C 
ATOM     13  C   UNL     1       0.002  -0.004   0.002  0.00  0.00    +0.226 C 
ENDBRANCH  11  13
ENDBRANCH   5  11
BRANCH  10  14
ATOM     14  O   UNL     1       1.935  -1.486  -3.392  0.00  0.00    -0.485 OA
BRANCH  14  15
ATOM     15  C   UNL     1       3.291  -1.073  -3.211  0.00  0.00    +0.226 C 
ATOM     16  C   UNL     1       3.695  -0.136  -4.351  0.00  0.00    +0.048 C 
ENDBRANCH  14  15
ENDBRANCH  10  14
BRANCH   9  17
ATOM     17  O   UNL     1       2.162  -4.207  -3.722  0.00  0.00    -0.488 OA
BRANCH  17  18
ATOM     18  C   UNL     1       2.238  -5.630  -3.832  0.00  0.00    +0.226 C 
ATOM     19  C   UNL     1       2.977  -6.003  -5.119  0.00  0.00    +0.048 C 
ENDBRANCH  17  18
ENDBRANCH   9  17
ENDBRANCH   1   7
BRANCH   3  20
ATOM     20  C   UNL     1      -0.673  -7.203   1.293  0.00  0.00    +0.156 C 
ATOM     21  C   UNL     1       0.340  -7.409   2.422  0.00  0.00    +0.038 C 
BRANCH  20  22
ATOM     22  C   UNL     1      -0.985  -8.530   0.651  0.00  0.00    +0.236 C 
ATOM     23  O   UNL     1      -0.759  -8.701  -0.528  0.00  0.00    -0.274 OA
ATOM     24  N   UNL     1      -1.515  -9.527   1.387  0.00  0.00    -0.277 N 
ATOM     25  H   UNL     1      -1.696  -9.390   2.330  0.00  0.00    +0.152 HD
BRANCH  24  26
ATOM     26  C   UNL     1      -1.819 -10.817   0.763  0.00  0.00    +0.269 C 
ATOM     27  N   UNL     1      -3.068 -10.724  -0.003  0.00  0.00    -0.348 N 
ATOM     28  C   UNL     1      -3.907 -11.576   0.513  0.00  0.00    +0.061 A 
ATOM     29  C   UNL     1      -5.293 -11.936   0.185  0.00  0.00    +0.027 A 
ATOM     30  C   UNL     1      -5.925 -12.878   0.913  0.00  0.00    +0.002 A 
ATOM     31  C   UNL     1      -5.311 -13.543   1.989  0.00  0.00    +0.002 A 
ATOM     32  C   UNL     1      -4.044 -13.289   2.373  0.00  0.00    +0.027 A 
ATOM     33  C   UNL     1      -3.256 -12.280   1.651  0.00  0.00    +0.061 A 
ATOM     34  N   UNL     1      -2.041 -11.837   1.795  0.00  0.00    -0.348 N 
ATOM     35  H   UNL     1      -3.238 -10.136  -0.756  0.00  0.00    +0.163 HD
ATOM     36  H   UNL     1      -1.399 -12.127   2.462  0.00  0.00    +0.163 HD
ENDBRANCH  24  26
ENDBRANCH  20  22
ENDBRANCH   3  20
TORSDOF 10
