REMARK  Name = ZINC00638154
REMARK  12 active torsions:
REMARK  status: ('A' for Active; 'I' for Inactive)
REMARK    1  A    between atoms: C_1  and  C_2
REMARK    2  A    between atoms: C_2  and  C_3
REMARK    3  A    between atoms: C_3  and  C_5
REMARK    4  A    between atoms: C_3  and  N_6
REMARK    5  A    between atoms: C_7  and  C_9
REMARK    6  A    between atoms: C_14  and  N_15
REMARK    7  A    between atoms: C_16  and  C_18
REMARK    8  A    between atoms: C_18  and  N_19
REMARK    9  A    between atoms: N_19  and  C_20
REMARK   10  A    between atoms: N_19  and  S_27
REMARK   11  A    between atoms: C_23  and  C_26
REMARK   12  A    between atoms: S_27  and  C_30
REMARK                            x       y       z     vdW  Elec       q    Type
REMARK                         _______ _______ _______ _____ _____    ______ ____
ROOT
ATOM      1  C   UNL     1       3.547  -2.121   0.426  0.00  0.00    +0.227 C 
ENDROOT
BRANCH   1   3
ATOM      2  N   UNL     1       2.639   0.180   0.409  0.00  0.00    -0.283 N 
ATOM      3  C   UNL     1       3.715  -0.626   0.509  0.00  0.00    +0.236 C 
ATOM      4  O   UNL     1       4.818  -0.147   0.666  0.00  0.00    -0.274 OA
ATOM      5  H   UNL     1       1.750  -0.203   0.346  0.00  0.00    +0.155 HD
BRANCH   2  11
ATOM      6  C   UNL     1       1.950   2.366  -0.375  0.00  0.00    +0.058 A 
ATOM      7  C   UNL     1       2.128   3.752  -0.385  0.00  0.00    +0.015 A 
ATOM      8  C   UNL     1       3.133   4.321   0.368  0.00  0.00    +0.001 A 
ATOM      9  C   UNL     1       3.975   3.524   1.127  0.00  0.00    +0.002 A 
ATOM     10  C   UNL     1       3.814   2.153   1.143  0.00  0.00    +0.024 A 
ATOM     11  C   UNL     1       2.804   1.563   0.395  0.00  0.00    +0.046 A 
BRANCH   6  13
ATOM     12  N   UNL     1      -0.007   2.532  -1.833  0.00  0.00    -0.309 N 
ATOM     13  C   UNL     1       0.873   1.752  -1.174  0.00  0.00    +0.246 C 
ATOM     14  O   UNL     1       0.782   0.541  -1.242  0.00  0.00    -0.270 OA
ATOM     15  H   UNL     1       0.066   3.498  -1.778  0.00  0.00    +0.149 HD
BRANCH  12  16
ATOM     16  C   UNL     1      -1.073   1.921  -2.631  0.00  0.00    +0.070 C 
ATOM     17  C   UNL     1      -0.540   1.595  -4.028  0.00  0.00    +0.028 C 
BRANCH  16  19
ATOM     18  C   UNL     1      -2.857   3.127  -1.365  0.00  0.00    +0.005 C 
ATOM     19  C   UNL     1      -2.245   2.897  -2.748  0.00  0.00    +0.018 C 
ENDBRANCH  16  19
ENDBRANCH  12  16
ENDBRANCH   6  13
ENDBRANCH   2  11
ENDBRANCH   1   3
BRANCH   1  20
ATOM     20  N   UNL     1       4.855  -2.768   0.562  0.00  0.00    -0.194 N 
BRANCH  20  21
ATOM     21  C   UNL     1       5.673  -2.931  -0.559  0.00  0.00    +0.052 A 
ATOM     22  C   UNL     1       6.605  -3.961  -0.596  0.00  0.00    +0.025 A 
ATOM     23  C   UNL     1       7.408  -4.123  -1.707  0.00  0.00    +0.005 A 
ATOM     24  C   UNL     1       7.293  -3.256  -2.778  0.00  0.00    -0.050 A 
ATOM     25  C   UNL     1       6.370  -2.227  -2.742  0.00  0.00    +0.005 A 
ATOM     26  C   UNL     1       5.559  -2.062  -1.636  0.00  0.00    +0.025 A 
ATOM     27  C   UNL     1       8.175  -3.432  -3.987  0.00  0.00    +0.044 C 
ENDBRANCH  20  21
BRANCH  20  28
ATOM     28  S   UNL     1       5.363  -3.304   2.044  0.00  0.00    +0.075 S 
ATOM     29  O   UNL     1       6.782  -3.373   1.986  0.00  0.00    -0.150 OA
ATOM     30  O   UNL     1       4.678  -2.526   3.015  0.00  0.00    -0.150 OA
BRANCH  28  31
ATOM     31  C   UNL     1       4.785  -4.959   2.225  0.00  0.00    +0.109 A 
ATOM     32  C   UNL     1       3.497  -5.196   2.665  0.00  0.00    +0.031 A 
ATOM     33  C   UNL     1       3.041  -6.493   2.803  0.00  0.00    +0.040 A 
ATOM     34  C   UNL     1       3.879  -7.556   2.511  0.00  0.00    +0.124 A 
ATOM     35  C   UNL     1       5.171  -7.317   2.075  0.00  0.00    +0.040 A 
ATOM     36  C   UNL     1       5.623  -6.019   1.933  0.00  0.00    +0.031 A 
ATOM     37  F   UNL     1       3.436  -8.824   2.650  0.00  0.00    -0.205 F 
ENDBRANCH  28  31
ENDBRANCH  20  28
ENDBRANCH   1  20
TORSDOF 9
