REMARK  Name = ZINC27991323
REMARK  13 active torsions:
REMARK  status: ('A' for Active; 'I' for Inactive)
REMARK    1  A    between atoms: C_1  and  N_2
REMARK    2  A    between atoms: N_2  and  C_3
REMARK    3  A    between atoms: N_2  and  C_4
REMARK    4  A    between atoms: C_4  and  C_6
REMARK    5  A    between atoms: C_4  and  C_25
REMARK    6  A    between atoms: C_6  and  N_7
REMARK    7  A    between atoms: N_7  and  C_8
REMARK    8  A    between atoms: C_9  and  C_23
REMARK    9  A    between atoms: C_11  and  C_13
REMARK   10  A    between atoms: C_28  and  O_33
REMARK   11  A    between atoms: C_29  and  O_31
REMARK   12  A    between atoms: O_31  and  C_32
REMARK   13  A    between atoms: O_33  and  C_34
REMARK                            x       y       z     vdW  Elec       q    Type
REMARK                         _______ _______ _______ _____ _____    ______ ____
ROOT
ATOM      1  N   UNL     1       6.367   2.881  -0.833  0.00  0.00    -0.314 N 
ATOM      2  H   UNL     1       6.388   3.277   0.194  0.00  0.00    +0.149 HD
ENDROOT
BRANCH   1   3
ATOM      3  C   UNL     1       7.326   3.270  -1.741  0.00  0.00    +0.225 A 
ATOM      4  C   UNL     1       8.377   4.147  -1.512  0.00  0.00    +0.201 A 
ATOM      5  N   UNL     1       9.073   4.242  -2.674  0.00  0.00    -0.196 NA
ATOM      6  C   UNL     1       8.499   3.477  -3.569  0.00  0.00    +0.231 A 
ATOM      7  O   UNL     1       7.430   2.867  -3.021  0.00  0.00    -0.421 OA
BRANCH   6   8
ATOM      8  C   UNL     1       8.955   3.306  -4.960  0.00  0.00    +0.045 A 
ATOM      9  C   UNL     1       9.466   4.384  -5.669  0.00  0.00    +0.014 A 
ATOM     10  C   UNL     1       9.904   4.228  -6.978  0.00  0.00    +0.001 A 
ATOM     11  C   UNL     1       9.833   3.020  -7.606  0.00  0.00    +0.008 A 
ATOM     12  C   UNL     1       9.317   1.902  -6.928  0.00  0.00    -0.017 A 
ATOM     13  C   UNL     1       8.872   2.040  -5.591  0.00  0.00    -0.006 A 
ATOM     14  C   UNL     1       8.359   0.924  -4.917  0.00  0.00    +0.009 A 
ATOM     15  C   UNL     1       8.293  -0.279  -5.554  0.00  0.00    +0.001 A 
ATOM     16  C   UNL     1       8.730  -0.417  -6.870  0.00  0.00    +0.001 A 
ATOM     17  C   UNL     1       9.235   0.646  -7.555  0.00  0.00    +0.008 A 
ENDBRANCH   6   8
BRANCH   4  18
ATOM     18  C   UNL     1       8.671   4.823  -0.284  0.00  0.00    +0.124 C 
ATOM     19  N   UNL     1       8.904   5.359   0.690  0.00  0.00    -0.189 NA
ENDBRANCH   4  18
ENDBRANCH   1   3
BRANCH   1  20
ATOM     20  C   UNL     1       5.317   1.941  -1.233  0.00  0.00    +0.094 C 
BRANCH  20  21
ATOM     21  C   UNL     1       4.388   1.679  -0.046  0.00  0.00    -0.021 C 
BRANCH  21  22
ATOM     22  C   UNL     1       3.382   0.620  -0.420  0.00  0.00    -0.056 A 
ATOM     23  C   UNL     1       3.804  -0.550  -1.022  0.00  0.00    +0.006 A 
ATOM     24  C   UNL     1       2.886  -1.524  -1.367  0.00  0.00    +0.049 A 
ATOM     25  C   UNL     1       1.538  -1.328  -1.110  0.00  0.00    +0.161 A 
ATOM     26  C   UNL     1       1.113  -0.150  -0.504  0.00  0.00    +0.162 A 
ATOM     27  C   UNL     1       2.039   0.822  -0.160  0.00  0.00    +0.051 A 
BRANCH  26  28
ATOM     28  O   UNL     1      -0.208   0.050  -0.254  0.00  0.00    -0.491 OA
ATOM     29  C   UNL     1      -0.572   1.283   0.370  0.00  0.00    +0.277 C 
ENDBRANCH  26  28
BRANCH  25  30
ATOM     30  O   UNL     1       0.633  -2.284  -1.450  0.00  0.00    -0.491 OA
ATOM     31  C   UNL     1       1.142  -3.468  -2.069  0.00  0.00    +0.277 C 
ENDBRANCH  25  30
ENDBRANCH  21  22
BRANCH  21  33
ATOM     32  C   UNL     1       4.379   1.238   2.335  0.00  0.00    -0.096 C 
ATOM     33  N   UNL     1       5.179   1.219   1.103  0.00  0.00    +0.382 N 
ATOM     34  C   UNL     1       5.735  -0.119   0.858  0.00  0.00    -0.096 C 
ATOM     35  H   UNL     1       6.020   1.915   1.235  0.00  0.00    -0.082 HD
ENDBRANCH  21  33
ENDBRANCH  20  21
ENDBRANCH   1  20
TORSDOF 9
