REMARK  Name = ZINC27998400
REMARK  5 active torsions:
REMARK  status: ('A' for Active; 'I' for Inactive)
REMARK    1  A    between atoms: C_7  and  N_18
REMARK    2  A    between atoms: C_24  and  C_26
REMARK    3  A    between atoms: C_26  and  C_27
REMARK    4  A    between atoms: N_35  and  C_36
REMARK    5  A    between atoms: C_36  and  N_37
REMARK                            x       y       z     vdW  Elec       q    Type
REMARK                         _______ _______ _______ _____ _____    ______ ____
ROOT
ATOM      1  N   UNL     1       2.842   3.088  -1.239  0.00  0.00    -0.287 NA
ATOM      2  C   UNL     1       2.521   2.558  -2.571  0.00  0.00    +0.104 C 
ATOM      3  C   UNL     1       2.814   3.629  -3.627  0.00  0.00    +0.123 C 
ATOM      4  N   UNL     1       4.202   4.085  -3.457  0.00  0.00    -0.299 N 
ATOM      5  C   UNL     1       4.638   4.503  -2.116  0.00  0.00    +0.123 C 
ATOM      6  C   UNL     1       4.273   3.397  -1.119  0.00  0.00    +0.104 C 
ATOM      7  C   UNL     1       5.052   4.119  -4.503  0.00  0.00    +0.216 C 
ATOM      8  O   UNL     1       6.193   4.498  -4.345  0.00  0.00    -0.276 OA
ENDROOT
BRANCH   1  15
ATOM      9  C   UNL     1       4.405  -1.460  -0.919  0.00  0.00    +0.020 A 
ATOM     10  C   UNL     1       3.031  -1.482  -0.966  0.00  0.00    +0.007 A 
ATOM     11  C   UNL     1       2.292  -0.283  -0.806  0.00  0.00    -0.024 A 
ATOM     12  C   UNL     1       2.962   0.835  -0.552  0.00  0.00    +0.066 A 
ATOM     13  N   UNL     1       4.312   0.835  -0.566  0.00  0.00    -0.258 NA
ATOM     14  C   UNL     1       5.034  -0.243  -0.732  0.00  0.00    +0.111 A 
ATOM     15  C   UNL     1       2.414   2.158  -0.185  0.00  0.00    +0.137 C 
ATOM     16  C   UNL     1       0.984   2.439   0.062  0.00  0.00    -0.021 A 
ATOM     17  C   UNL     1       0.735   3.817   0.238  0.00  0.00    +0.007 A 
ATOM     18  C   UNL     1      -0.540   4.309   0.354  0.00  0.00    +0.020 A 
ATOM     19  C   UNL     1      -1.602   3.423   0.303  0.00  0.00    +0.041 A 
ATOM     20  C   UNL     1      -1.345   2.082   0.180  0.00  0.00    +0.024 A 
ATOM     21  C   UNL     1      -0.026   1.576   0.088  0.00  0.00    -0.041 A 
ATOM     22  C   UNL     1      -0.068   0.063   0.052  0.00  0.00    +0.040 C 
ATOM     23  C   UNL     1       0.816  -0.565  -0.981  0.00  0.00    +0.041 C 
ATOM     24 CL   UNL     1      -3.237   4.000   0.393  0.00  0.00    -0.084 Cl
ENDBRANCH   1  15
BRANCH   7  25
ATOM     25  C   UNL     1       4.584   3.687  -5.868  0.00  0.00    +0.099 C 
BRANCH  25  26
ATOM     26  C   UNL     1       5.734   3.822  -6.868  0.00  0.00    +0.001 C 
ATOM     27  C   UNL     1       6.110   5.298  -7.016  0.00  0.00    +0.023 C 
ATOM     28  C   UNL     1       7.285   5.426  -7.991  0.00  0.00    +0.109 C 
ATOM     29  N   UNL     1       6.926   4.766  -9.253  0.00  0.00    -0.286 N 
ATOM     30  C   UNL     1       6.463   3.372  -9.214  0.00  0.00    +0.109 C 
ATOM     31  C   UNL     1       5.298   3.266  -8.226  0.00  0.00    +0.023 C 
ATOM     32  C   UNL     1       7.019   5.426 -10.425  0.00  0.00    +0.301 C 
ATOM     33  O   UNL     1       7.492   6.546 -10.455  0.00  0.00    -0.253 OA
ATOM     34  N   UNL     1       6.588   4.845 -11.562  0.00  0.00    -0.317 N 
ATOM     35  H   UNL     1       6.084   3.868 -11.523  0.00  0.00    +0.148 HD
BRANCH  34  36
ATOM     36  C   UNL     1       6.791   5.515 -12.849  0.00  0.00    +0.023 C 
BRANCH  36  37
ATOM     37  N   UNL     1       8.022   5.013 -13.473  0.00  0.00    +0.388 N 
ATOM     38  H   UNL     1       8.174   5.515 -14.440  0.00  0.00    -0.088 HD
ATOM     39  H   UNL     1       7.936   3.928 -13.634  0.00  0.00    -0.088 HD
ATOM     40  H   UNL     1       8.878   5.219 -12.814  0.00  0.00    -0.088 HD
ENDBRANCH  36  37
ENDBRANCH  34  36
ENDBRANCH  25  26
ENDBRANCH   7  25
TORSDOF 5
