REMARK  Name = ZINC59015545
REMARK  8 active torsions:
REMARK  status: ('A' for Active; 'I' for Inactive)
REMARK    1  A    between atoms: C_3  and  C_28
REMARK    2  A    between atoms: C_6  and  C_7
REMARK    3  A    between atoms: C_7  and  N_8
REMARK    4  A    between atoms: C_9  and  C_11
REMARK    5  A    between atoms: C_11  and  S_12
REMARK    6  A    between atoms: S_12  and  C_13
REMARK    7  A    between atoms: N_18  and  N_19
REMARK    8  A    between atoms: C_20  and  C_21
REMARK                            x       y       z     vdW  Elec       q    Type
REMARK                         _______ _______ _______ _____ _____    ______ ____
ROOT
ATOM      1  S   UNL     1      -4.871  -2.872  -3.014  0.00  0.00    -0.075 S 
ENDROOT
BRANCH   1   2
ATOM      2  C   UNL     1      -5.254  -3.081  -4.721  0.00  0.00    +0.211 A 
ATOM      3  N   UNL     1      -6.330  -3.711  -5.204  0.00  0.00    -0.186 NA
ATOM      4  C   UNL     1      -6.306  -3.683  -6.520  0.00  0.00    +0.232 A 
ATOM      5  N   UNL     1      -5.192  -3.022  -6.902  0.00  0.00    -0.245 N 
ATOM      6  N   UNL     1      -4.532  -2.640  -5.723  0.00  0.00    -0.144 NA
ATOM      7  N   UNL     1      -7.254  -4.233  -7.363  0.00  0.00    -0.205 N 
ATOM      8  H   UNL     1      -7.149  -4.161  -8.324  0.00  0.00    +0.177 HD
ATOM      9  H   UNL     1      -4.906  -2.845  -7.812  0.00  0.00    +0.192 HD
BRANCH   7  10
ATOM     10  N   UNL     1      -8.368  -4.894  -6.827  0.00  0.00    -0.188 NA
ATOM     11  C   UNL     1      -9.258  -5.411  -7.618  0.00  0.00    +0.138 C 
BRANCH  11  12
ATOM     12  C   UNL     1     -10.430  -6.106  -7.055  0.00  0.00    -0.005 A 
ATOM     13  C   UNL     1     -10.588  -6.206  -5.671  0.00  0.00    +0.010 A 
ATOM     14  C   UNL     1     -11.686  -6.858  -5.150  0.00  0.00    +0.016 A 
ATOM     15  C   UNL     1     -12.631  -7.412  -5.997  0.00  0.00    +0.018 A 
ATOM     16  C   UNL     1     -12.481  -7.317  -7.370  0.00  0.00    +0.016 A 
ATOM     17  C   UNL     1     -11.390  -6.663  -7.904  0.00  0.00    +0.010 A 
ATOM     18 BR   UNL     1     -14.134  -8.304  -5.275  0.00  0.00    -0.050 Br
ENDBRANCH  11  12
ENDBRANCH   7  10
ENDBRANCH   1   2
BRANCH   1  19
ATOM     19  C   UNL     1      -3.312  -1.944  -3.024  0.00  0.00    +0.173 C 
BRANCH  19  21
ATOM     20  N   UNL     1      -1.726  -1.018  -1.368  0.00  0.00    -0.311 N 
ATOM     21  C   UNL     1      -2.867  -1.694  -1.606  0.00  0.00    +0.224 C 
ATOM     22  O   UNL     1      -3.535  -2.103  -0.680  0.00  0.00    -0.275 OA
ATOM     23  H   UNL     1      -1.192  -0.691  -2.108  0.00  0.00    +0.149 HD
BRANCH  20  24
ATOM     24  C   UNL     1      -1.293  -0.775   0.011  0.00  0.00    +0.139 C 
BRANCH  24  30
ATOM     25  C   UNL     1      -0.017   1.378   0.010  0.00  0.00    +0.006 A 
ATOM     26  C   UNL     1       1.171   2.086   0.002  0.00  0.00    +0.013 A 
ATOM     27  C   UNL     1       2.377   1.411  -0.013  0.00  0.00    +0.055 A 
ATOM     28  C   UNL     1       2.396   0.029  -0.020  0.00  0.00    +0.013 A 
ATOM     29  C   UNL     1       1.208  -0.679  -0.012  0.00  0.00    +0.006 A 
ATOM     30  C   UNL     1       0.002  -0.004   0.002  0.00  0.00    -0.030 A 
BRANCH  27  31
ATOM     31  C   UNL     1       3.672   2.182  -0.022  0.00  0.00    +0.417 C 
ATOM     32  F   UNL     1       4.086   2.414   1.294  0.00  0.00    -0.166 F 
ATOM     33  F   UNL     1       4.651   1.442  -0.695  0.00  0.00    -0.166 F 
ATOM     34  F   UNL     1       3.482   3.405  -0.674  0.00  0.00    -0.166 F 
ENDBRANCH  27  31
ENDBRANCH  24  30
ENDBRANCH  20  24
ENDBRANCH  19  21
ENDBRANCH   1  19
TORSDOF 8
