REMARK  Name = ZINC22222202
REMARK  15 active torsions:
REMARK  status: ('A' for Active; 'I' for Inactive)
REMARK    1  A    between atoms: C_1  and  C_2
REMARK    2  A    between atoms: C_2  and  C_3
REMARK    3  A    between atoms: C_3  and  C_4
REMARK    4  A    between atoms: C_7  and  C_10
REMARK    5  A    between atoms: C_10  and  C_34
REMARK    6  A    between atoms: N_13  and  C_17
REMARK    7  A    between atoms: C_17  and  C_18
REMARK    8  A    between atoms: N_20  and  C_21
REMARK    9  A    between atoms: C_22  and  C_29
REMARK   10  A    between atoms: C_23  and  C_27
REMARK   11  A    between atoms: C_24  and  C_26
REMARK   12  A    between atoms: C_27  and  C_28
REMARK   13  A    between atoms: C_29  and  O_31
REMARK   14  A    between atoms: O_31  and  C_32
REMARK   15  A    between atoms: C_32  and  C_33
REMARK                            x       y       z     vdW  Elec       q    Type
REMARK                         _______ _______ _______ _____ _____    ______ ____
ROOT
ATOM      1  C   UNL     1       0.587   3.664   0.015  0.00  0.00    +0.135 C 
ATOM      2  C   UNL     1       1.087   2.233   0.004  0.00  0.00    +0.251 C 
ATOM      3  O   UNL     1       2.240   1.861  -0.008  0.00  0.00    -0.272 OA
ATOM      4  N   UNL     1      -0.018   1.461   0.010  0.00  0.00    -0.215 N 
ATOM      5  C   UNL     1      -1.135   2.197   0.019  0.00  0.00    +0.310 C 
ATOM      6  O   UNL     1      -2.255   1.726   0.022  0.00  0.00    -0.252 OA
ATOM      7  N   UNL     1      -0.879   3.518   0.028  0.00  0.00    -0.281 N 
ATOM      8  C   UNL     1       1.043   4.404  -1.244  0.00  0.00    +0.047 C 
ATOM      9  H   UNL     1      -1.521   4.412   0.042  0.00  0.00    +0.152 HD
ENDROOT
BRANCH   1  13
ATOM     10  C   UNL     1       1.925   5.695   3.526  0.00  0.00    -0.047 A 
ATOM     11  C   UNL     1       0.727   6.052   2.936  0.00  0.00    +0.004 A 
ATOM     12  C   UNL     1       0.294   5.395   1.800  0.00  0.00    +0.006 A 
ATOM     13  C   UNL     1       1.059   4.381   1.254  0.00  0.00    -0.015 A 
ATOM     14  C   UNL     1       2.254   4.020   1.847  0.00  0.00    +0.006 A 
ATOM     15  C   UNL     1       2.689   4.681   2.981  0.00  0.00    +0.004 A 
BRANCH  10  16
ATOM     16  C   UNL     1       2.397   6.412   4.765  0.00  0.00    +0.035 C 
BRANCH  16  18
ATOM     17  C   UNL     1       2.345   6.420   7.263  0.00  0.00    +0.004 C 
ATOM     18  C   UNL     1       1.865   5.692   6.005  0.00  0.00    +0.001 C 
ENDBRANCH  16  18
ENDBRANCH  10  16
ENDBRANCH   1  13
BRANCH   4  19
ATOM     19  C   UNL     1       0.002  -0.004   0.002  0.00  0.00    +0.214 C 
BRANCH  19  20
ATOM     20  C   UNL     1       0.022  -0.514   1.420  0.00  0.00    +0.236 C 
ATOM     21  O   UNL     1       0.021   0.269   2.346  0.00  0.00    -0.274 OA
ATOM     22  N   UNL     1       0.043  -1.840   1.659  0.00  0.00    -0.278 N 
ATOM     23  H   UNL     1       0.044  -2.550   0.819  0.00  0.00    +0.155 HD
BRANCH  22  24
ATOM     24  C   UNL     1       0.061  -2.309   2.963  0.00  0.00    +0.086 A 
ATOM     25  C   UNL     1       0.078  -3.627   3.407  0.00  0.00    +0.091 A 
ATOM     26  C   UNL     1       0.100  -3.830   4.837  0.00  0.00    -0.022 A 
ATOM     27  C   UNL     1       0.092  -2.731   5.613  0.00  0.00    -0.008 A 
ATOM     28  S   UNL     1       0.062  -1.397   4.435  0.00  0.00    -0.078 S 
ATOM     29  C   UNL     1       0.105  -2.650   7.118  0.00  0.00    +0.052 C 
BRANCH  26  30
ATOM     30  C   UNL     1       0.125  -5.213   5.434  0.00  0.00    +0.033 C 
ATOM     31  C   UNL     1      -1.308  -5.701   5.650  0.00  0.00    +0.009 C 
ENDBRANCH  26  30
BRANCH  25  32
ATOM     32  C   UNL     1       0.077  -4.754   2.471  0.00  0.00    +0.342 C 
ATOM     33  O   UNL     1       1.130  -5.213   2.071  0.00  0.00    -0.245 OA
BRANCH  32  34
ATOM     34  O   UNL     1      -1.091  -5.282   2.053  0.00  0.00    -0.461 OA
BRANCH  34  35
ATOM     35  C   UNL     1      -1.016  -6.397   1.126  0.00  0.00    +0.229 C 
ATOM     36  C   UNL     1      -2.429  -6.859   0.767  0.00  0.00    +0.048 C 
ENDBRANCH  34  35
ENDBRANCH  32  34
ENDBRANCH  25  32
ENDBRANCH  22  24
ENDBRANCH  19  20
ENDBRANCH   4  19
TORSDOF 10
