REMARK  Name = ZINC60354993
REMARK  12 active torsions:
REMARK  status: ('A' for Active; 'I' for Inactive)
REMARK    1  A    between atoms: C_1  and  C_2
REMARK    2  A    between atoms: C_5  and  C_7
REMARK    3  A    between atoms: C_7  and  C_9
REMARK    4  A    between atoms: C_7  and  N_32
REMARK    5  A    between atoms: C_9  and  N_10
REMARK    6  A    between atoms: C_11  and  C_13
REMARK    7  A    between atoms: C_13  and  C_15
REMARK    8  A    between atoms: C_13  and  N_26
REMARK    9  A    between atoms: C_15  and  C_16
REMARK   10  A    between atoms: C_27  and  C_29
REMARK   11  A    between atoms: C_29  and  C_30
REMARK   12  A    between atoms: C_29  and  C_31
REMARK                            x       y       z     vdW  Elec       q    Type
REMARK                         _______ _______ _______ _____ _____    ______ ____
ROOT
ATOM      1  C   UNL     1       4.816  -6.041  -2.547  0.00  0.00    +0.163 C 
ENDROOT
BRANCH   1   3
ATOM      2  N   UNL     1       3.139  -4.616  -1.417  0.00  0.00    -0.315 N 
ATOM      3  C   UNL     1       3.698  -5.031  -2.571  0.00  0.00    +0.234 C 
ATOM      4  O   UNL     1       3.300  -4.593  -3.630  0.00  0.00    -0.274 OA
ATOM      5  H   UNL     1       3.457  -4.966  -0.571  0.00  0.00    +0.149 HD
BRANCH   2   6
ATOM      6  C   UNL     1       2.052  -3.634  -1.442  0.00  0.00    +0.096 C 
BRANCH   6   7
ATOM      7  C   UNL     1       1.514  -3.434  -0.023  0.00  0.00    +0.016 C 
BRANCH   7  12
ATOM      8  C   UNL     1      -1.860  -7.123   0.648  0.00  0.00    +0.086 C 
ATOM      9  C   UNL     1      -0.591  -6.316   0.749  0.00  0.00    +0.102 A 
ATOM     10  C   UNL     1       0.498  -6.649   1.464  0.00  0.00    +0.044 A 
ATOM     11  C   UNL     1       1.444  -5.615   1.276  0.00  0.00    +0.043 A 
ATOM     12  C   UNL     1       0.876  -4.712   0.457  0.00  0.00    +0.093 A 
ATOM     13  O   UNL     1      -0.355  -5.144   0.137  0.00  0.00    -0.466 OA
ENDBRANCH   7  12
BRANCH   7  14
ATOM     14  N   UNL     1       0.514  -2.358  -0.026  0.00  0.00    +0.387 N 
ATOM     15  C   UNL     1      -0.017  -2.148   1.345  0.00  0.00    -0.078 C 
ATOM     16  C   UNL     1      -0.574  -0.703   1.292  0.00  0.00    -0.020 C 
ATOM     17  C   UNL     1       0.454   0.031   0.401  0.00  0.00    -0.020 C 
ATOM     18  C   UNL     1       1.143  -1.077  -0.415  0.00  0.00    -0.078 C 
ATOM     19  H   UNL     1      -0.238  -2.583  -0.660  0.00  0.00    -0.081 HD
ENDBRANCH   7  14
ENDBRANCH   6   7
ENDBRANCH   2   6
ENDBRANCH   1   3
BRANCH   1  20
ATOM     20  N   UNL     1       5.559  -5.978  -3.808  0.00  0.00    -0.303 N 
ATOM     21  C   UNL     1       4.928  -6.219  -4.974  0.00  0.00    +0.216 C 
ATOM     22  O   UNL     1       3.746  -6.489  -4.980  0.00  0.00    -0.276 OA
ATOM     23  H   UNL     1       6.505  -5.762  -3.803  0.00  0.00    +0.149 HD
BRANCH  21  24
ATOM     24  C   UNL     1       5.692  -6.154  -6.271  0.00  0.00    +0.069 C 
ATOM     25  C   UNL     1       6.828  -7.179  -6.246  0.00  0.00    +0.017 C 
ATOM     26  C   UNL     1       4.749  -6.467  -7.435  0.00  0.00    +0.017 C 
ENDBRANCH  21  24
ENDBRANCH   1  20
BRANCH   1  27
ATOM     27  C   UNL     1       4.233  -7.444  -2.368  0.00  0.00    +0.069 C 
BRANCH  27  28
ATOM     28  C   UNL     1       5.355  -8.439  -2.220  0.00  0.00    -0.020 A 
ATOM     29  C   UNL     1       5.905  -9.173  -3.200  0.00  0.00    +0.087 A 
ATOM     30  N   UNL     1       6.898  -9.965  -2.688  0.00  0.00    -0.360 N 
ATOM     31  H   UNL     1       7.439 -10.582  -3.204  0.00  0.00    +0.165 HD
ATOM     32  C   UNL     1       7.013  -9.753  -1.333  0.00  0.00    +0.047 A 
ATOM     33  C   UNL     1       6.056  -8.784  -0.981  0.00  0.00    +0.003 A 
ATOM     34  C   UNL     1       5.947  -8.363   0.346  0.00  0.00    +0.010 A 
ATOM     35  C   UNL     1       6.773  -8.893   1.296  0.00  0.00    +0.001 A 
ATOM     36  C   UNL     1       7.721  -9.846   0.954  0.00  0.00    +0.002 A 
ATOM     37  C   UNL     1       7.841 -10.283  -0.348  0.00  0.00    +0.026 A 
ENDBRANCH  27  28
ENDBRANCH   1  27
TORSDOF 9
