REMARK  Name = ZINC09265770
REMARK  8 active torsions:
REMARK  status: ('A' for Active; 'I' for Inactive)
REMARK    1  A    between atoms: C_1  and  C_2
REMARK    2  A    between atoms: C_2  and  O_3
REMARK    3  A    between atoms: O_3  and  C_4
REMARK    4  A    between atoms: C_9  and  C_10
REMARK    5  A    between atoms: C_10  and  N_11
REMARK    6  A    between atoms: N_11  and  C_12
REMARK    7  A    between atoms: C_12  and  C_13
REMARK    8  A    between atoms: N_26  and  C_29
REMARK                            x       y       z     vdW  Elec       q    Type
REMARK                         _______ _______ _______ _____ _____    ______ ____
ROOT
ATOM      1  C   UNL     1       3.945  -1.341  -0.043  0.00  0.00    +0.009 A 
ATOM      2  C   UNL     1       4.344  -2.629  -0.053  0.00  0.00    +0.021 A 
ATOM      3  C   UNL     1       3.185  -3.431  -0.046  0.00  0.00    +0.020 A 
ATOM      4  C   UNL     1       2.120  -2.604  -0.025  0.00  0.00    +0.093 A 
ATOM      5  N   UNL     1       2.579  -1.317  -0.029  0.00  0.00    -0.300 N 
ATOM      6  C   UNL     1       1.785  -0.170  -0.016  0.00  0.00    +0.202 A 
ATOM      7  N   UNL     1       2.134   1.106  -0.012  0.00  0.00    -0.121 NA
ATOM      8  N   UNL     1       1.279   2.033   0.001  0.00  0.00    -0.124 NA
ATOM      9  C   UNL     1      -0.022   1.786   0.012  0.00  0.00    +0.186 A 
ATOM     10  S   UNL     1       0.002  -0.004   0.002  0.00  0.00    -0.013 S 
ATOM     11  N   UNL     1      -1.097   2.664   0.022  0.00  0.00    -0.312 N 
ATOM     12  C   UNL     1      -1.994   2.413  -1.115  0.00  0.00    +0.088 C 
ATOM     13  C   UNL     1      -3.204   3.345  -1.023  0.00  0.00    -0.059 C 
ATOM     14  N   UNL     1      -2.744   4.741  -1.018  0.00  0.00    +0.384 N 
ATOM     15  C   UNL     1      -1.848   4.993   0.119  0.00  0.00    -0.059 C 
ATOM     16  C   UNL     1      -0.638   4.060   0.027  0.00  0.00    +0.088 C 
ATOM     17  H   UNL     1      -2.176   4.915  -1.944  0.00  0.00    -0.081 HD
ENDROOT
BRANCH  14  18
ATOM     18  C   UNL     1      -3.882   5.670  -1.007  0.00  0.00    -0.068 C 
ATOM     19  C   UNL     1      -4.673   5.492   0.290  0.00  0.00    -0.015 C 
ATOM     20  C   UNL     1      -5.858   6.460   0.301  0.00  0.00    -0.002 C 
ATOM     21  C   UNL     1      -6.767   6.168  -0.894  0.00  0.00    -0.000 C 
ATOM     22  C   UNL     1      -5.975   6.346  -2.192  0.00  0.00    -0.002 C 
ATOM     23  C   UNL     1      -4.790   5.378  -2.203  0.00  0.00    -0.015 C 
ENDBRANCH  14  18
BRANCH   1  24
ATOM     24  C   UNL     1       4.850  -0.135  -0.044  0.00  0.00    -0.027 C 
BRANCH  24  25
ATOM     25  N   UNL     1       5.034   0.337  -1.423  0.00  0.00    +0.385 N 
ATOM     26  H   UNL     1       4.050   0.599  -1.841  0.00  0.00    -0.085 HD
ATOM     27  H   UNL     1       5.480  -0.475  -2.017  0.00  0.00    -0.085 HD
BRANCH  25  28
ATOM     28  C   UNL     1       5.912   1.514  -1.464  0.00  0.00    -0.043 C 
BRANCH  28  34
ATOM     29  C   UNL     1       5.088   2.729  -3.497  0.00  0.00    +0.122 A 
ATOM     30  C   UNL     1       5.243   3.146  -4.811  0.00  0.00    +0.046 A 
ATOM     31  C   UNL     1       6.381   2.803  -5.513  0.00  0.00    +0.004 A 
ATOM     32  C   UNL     1       7.367   2.044  -4.907  0.00  0.00    +0.000 A 
ATOM     33  C   UNL     1       7.217   1.632  -3.597  0.00  0.00    +0.005 A 
ATOM     34  C   UNL     1       6.077   1.968  -2.891  0.00  0.00    -0.023 A 
BRANCH  29  35
ATOM     35  O   UNL     1       3.968   3.065  -2.803  0.00  0.00    -0.492 OA
BRANCH  35  37
ATOM     36  C   UNL     1       1.812   4.128  -2.556  0.00  0.00    +0.048 C 
ATOM     37  C   UNL     1       2.991   3.850  -3.490  0.00  0.00    +0.225 C 
ENDBRANCH  35  37
ENDBRANCH  29  35
ENDBRANCH  28  34
ENDBRANCH  25  28
ENDBRANCH  24  25
ENDBRANCH   1  24
TORSDOF 7
