REMARK  Name = ZINC07185704
REMARK  5 active torsions:
REMARK  status: ('A' for Active; 'I' for Inactive)
REMARK    1  A    between atoms: C_1  and  C_2
REMARK    2  A    between atoms: C_2  and  C_4
REMARK    3  A    between atoms: C_2  and  N_13
REMARK    4  A    between atoms: C_14  and  C_16
REMARK    5  A    between atoms: C_16  and  N_17
REMARK                            x       y       z     vdW  Elec       q    Type
REMARK                         _______ _______ _______ _____ _____    ______ ____
ROOT
ATOM      1  N   UNL     1       8.249   4.609   2.783  0.00  0.00    -0.215 N 
ATOM      2  C   UNL     1       9.355   5.044   2.144  0.00  0.00    +0.251 C 
ATOM      3  O   UNL     1       9.404   5.691   1.120  0.00  0.00    -0.272 OA
ATOM      4  C   UNL     1      10.521   4.555   2.974  0.00  0.00    +0.138 C 
ATOM      5  C   UNL     1      11.329   5.736   3.498  0.00  0.00    +0.040 C 
ATOM      6  C   UNL     1      12.119   6.340   2.332  0.00  0.00    +0.008 C 
ATOM      7  C   UNL     1      13.202   5.347   1.915  0.00  0.00    +0.035 C 
ATOM      8  C   UNL     1      12.609   3.983   1.676  0.00  0.00    -0.042 A 
ATOM      9  C   UNL     1      11.375   3.618   2.168  0.00  0.00    -0.012 A 
ATOM     10  C   UNL     1      10.887   2.342   1.919  0.00  0.00    +0.006 A 
ATOM     11  C   UNL     1      11.625   1.440   1.180  0.00  0.00    +0.000 A 
ATOM     12  C   UNL     1      12.862   1.808   0.684  0.00  0.00    +0.000 A 
ATOM     13  C   UNL     1      13.350   3.075   0.932  0.00  0.00    +0.004 A 
ATOM     14  N   UNL     1       9.886   3.835   4.087  0.00  0.00    -0.281 N 
ATOM     15  C   UNL     1       8.557   3.925   3.892  0.00  0.00    +0.310 C 
ATOM     16  O   UNL     1       7.730   3.438   4.637  0.00  0.00    -0.252 OA
ATOM     17  H   UNL     1      10.336   3.387   4.820  0.00  0.00    +0.152 HD
ENDROOT
BRANCH   1  18
ATOM     18  C   UNL     1       6.881   4.858   2.323  0.00  0.00    +0.213 C 
BRANCH  18  20
ATOM     19  N   UNL     1       5.216   3.760   0.860  0.00  0.00    -0.304 N 
ATOM     20  C   UNL     1       6.447   3.743   1.407  0.00  0.00    +0.232 C 
ATOM     21  O   UNL     1       7.206   2.829   1.163  0.00  0.00    -0.274 OA
ATOM     22  H   UNL     1       4.609   4.491   1.055  0.00  0.00    +0.149 HD
BRANCH  19  24
ATOM     23  C   UNL     1       5.271   2.969  -1.454  0.00  0.00    +0.036 C 
ATOM     24  C   UNL     1       4.794   2.675  -0.030  0.00  0.00    +0.136 C 
BRANCH  24  25
ATOM     25  C   UNL     1       3.291   2.569  -0.016  0.00  0.00    +0.126 A 
ATOM     26  C   UNL     1       2.603   1.419  -0.015  0.00  0.00    +0.055 A 
ATOM     27  C   UNL     1       1.183   1.792   0.000  0.00  0.00    +0.020 A 
ATOM     28  C   UNL     1      -0.013   1.076   0.008  0.00  0.00    +0.011 A 
ATOM     29  C   UNL     1      -1.204   1.746   0.017  0.00  0.00    +0.001 A 
ATOM     30  C   UNL     1      -1.230   3.133   0.030  0.00  0.00    +0.004 A 
ATOM     31  C   UNL     1      -0.057   3.859   0.023  0.00  0.00    +0.047 A 
ATOM     32  C   UNL     1       1.164   3.197   0.008  0.00  0.00    +0.135 A 
ATOM     33  O   UNL     1       2.446   3.615  -0.002  0.00  0.00    -0.458 OA
ENDBRANCH  24  25
ENDBRANCH  19  24
ENDBRANCH  18  20
ENDBRANCH   1  18
TORSDOF 4
