REMARK  Name = ZINC22819490
REMARK  9 active torsions:
REMARK  status: ('A' for Active; 'I' for Inactive)
REMARK    1  A    between atoms: C_1  and  C_2
REMARK    2  A    between atoms: C_2  and  O_3
REMARK    3  A    between atoms: O_3  and  C_4
REMARK    4  A    between atoms: C_4  and  C_6
REMARK    5  A    between atoms: C_7  and  C_35
REMARK    6  A    between atoms: C_14  and  C_15
REMARK    7  A    between atoms: C_18  and  N_20
REMARK    8  A    between atoms: N_23  and  C_26
REMARK    9  A    between atoms: C_28  and  C_30
REMARK                            x       y       z     vdW  Elec       q    Type
REMARK                         _______ _______ _______ _____ _____    ______ ____
ROOT
ATOM      1  C   UNL     1       3.747   4.112   0.229  0.00  0.00    +0.085 C 
ATOM      2  C   UNL     1       3.079   5.125   0.861  0.00  0.00    +0.053 C 
ATOM      3  N   UNL     1       2.087   5.761   0.254  0.00  0.00    -0.228 NA
ATOM      4  C   UNL     1       1.661   5.500  -0.958  0.00  0.00    +0.178 A 
ATOM      5  N   UNL     1       2.194   4.523  -1.764  0.00  0.00    -0.274 N 
ATOM      6  C   UNL     1       1.669   4.354  -2.985  0.00  0.00    +0.268 A 
ATOM      7  O   UNL     1       2.102   3.503  -3.742  0.00  0.00    -0.266 OA
ATOM      8  C   UNL     1       0.596   5.194  -3.371  0.00  0.00    +0.084 A 
ATOM      9  C   UNL     1      -0.110   5.222  -4.556  0.00  0.00    +0.067 C 
ATOM     10  S   UNL     1       0.400   6.204  -1.913  0.00  0.00    -0.046 S 
ATOM     11  C   UNL     1       3.320   3.746  -1.174  0.00  0.00    +0.168 C 
ATOM     12  C   UNL     1       3.474   5.521   2.260  0.00  0.00    +0.066 C 
ENDROOT
BRANCH   9  13
ATOM     13  C   UNL     1       0.037   4.179  -5.487  0.00  0.00    +0.131 A 
ATOM     14  C   UNL     1      -0.505   4.141  -6.761  0.00  0.00    +0.051 A 
ATOM     15  C   UNL     1      -0.105   2.930  -7.331  0.00  0.00    +0.066 A 
ATOM     16  C   UNL     1       0.648   2.275  -6.400  0.00  0.00    +0.189 A 
ATOM     17  O   UNL     1       0.728   3.032  -5.295  0.00  0.00    -0.442 OA
BRANCH  16  18
ATOM     18  N   UNL     1       1.232   1.035  -6.567  0.00  0.00    -0.305 N 
ATOM     19  C   UNL     1       0.228   0.024  -6.928  0.00  0.00    +0.089 C 
ATOM     20  C   UNL     1       0.924  -1.315  -7.182  0.00  0.00    -0.060 C 
ATOM     21  N   UNL     1       1.663  -1.716  -5.977  0.00  0.00    +0.380 N 
ATOM     22  C   UNL     1       2.667  -0.706  -5.616  0.00  0.00    -0.060 C 
ATOM     23  C   UNL     1       1.970   0.633  -5.362  0.00  0.00    +0.089 C 
ATOM     24  C   UNL     1       2.284  -3.035  -6.155  0.00  0.00    -0.096 C 
ATOM     25  H   UNL     1       0.944  -1.792  -5.148  0.00  0.00    -0.082 HD
ENDBRANCH  16  18
ENDBRANCH   9  13
BRANCH  11  26
ATOM     26  C   UNL     1       2.929   2.291  -1.175  0.00  0.00    +0.017 A 
ATOM     27  C   UNL     1       3.669   1.208  -1.520  0.00  0.00    +0.013 A 
ATOM     28  C   UNL     1       3.097  -0.047  -1.442  0.00  0.00    +0.008 A 
ATOM     29  C   UNL     1       1.812  -0.160  -1.024  0.00  0.00    +0.045 A 
ATOM     30  S   UNL     1       1.372   1.544  -0.723  0.00  0.00    -0.099 S 
ENDBRANCH  11  26
BRANCH   1  31
ATOM     31  C   UNL     1       4.799   3.433   0.864  0.00  0.00    +0.339 C 
ATOM     32  O   UNL     1       5.173   3.787   1.968  0.00  0.00    -0.245 OA
BRANCH  31  33
ATOM     33  O   UNL     1       5.396   2.389   0.251  0.00  0.00    -0.462 OA
BRANCH  33  35
ATOM     34  C   UNL     1       7.008   0.593   0.109  0.00  0.00    +0.048 C 
ATOM     35  C   UNL     1       6.459   1.744   0.955  0.00  0.00    +0.229 C 
ENDBRANCH  33  35
ENDBRANCH  31  33
ENDBRANCH   1  31
TORSDOF 6
