REMARK  Name = ZINC21322928
REMARK  8 active torsions:
REMARK  status: ('A' for Active; 'I' for Inactive)
REMARK    1  A    between atoms: C_1  and  C_2
REMARK    2  A    between atoms: C_2  and  C_21
REMARK    3  A    between atoms: N_3  and  N_4
REMARK    4  A    between atoms: C_8  and  S_11
REMARK    5  A    between atoms: N_9  and  N_10
REMARK    6  A    between atoms: S_11  and  C_12
REMARK    7  A    between atoms: C_12  and  C_13
REMARK    8  A    between atoms: C_13  and  C_15
REMARK                            x       y       z     vdW  Elec       q    Type
REMARK                         _______ _______ _______ _____ _____    ______ ____
ROOT
ATOM      1  N   UNL     1      -0.021   0.060  -2.336  0.00  0.00    -0.204 N 
ATOM      2  C   UNL     1      -0.023  -0.627  -3.541  0.00  0.00    +0.254 A 
ATOM      3  N   UNL     1      -0.007  -1.931  -3.685  0.00  0.00    -0.109 NA
ATOM      4  N   UNL     1      -0.017  -2.214  -5.057  0.00  0.00    -0.119 NA
ATOM      5  C   UNL     1      -0.038  -1.075  -5.706  0.00  0.00    +0.210 A 
ATOM      6  N   UNL     1      -0.048  -0.065  -4.787  0.00  0.00    -0.211 N 
ATOM      7  H   UNL     1      -0.036   1.160  -2.329  0.00  0.00    +0.178 HD
ENDROOT
BRANCH   1  10
ATOM      8  C   UNL     1      -0.018   1.503   0.010  0.00  0.00    +0.068 C 
ATOM      9  C   UNL     1       0.002  -0.004   0.002  0.00  0.00    +0.063 C 
ATOM     10  N   UNL     1       0.000  -0.647  -1.126  0.00  0.00    -0.184 NA
BRANCH   9  11
ATOM     11  C   UNL     1       0.024  -0.748   1.275  0.00  0.00    -0.002 A 
ATOM     12  C   UNL     1       0.032  -0.059   2.490  0.00  0.00    +0.011 A 
ATOM     13  C   UNL     1       0.046  -0.761   3.677  0.00  0.00    +0.016 A 
ATOM     14  C   UNL     1       0.065  -2.146   3.666  0.00  0.00    +0.018 A 
ATOM     15  C   UNL     1       0.064  -2.835   2.465  0.00  0.00    +0.016 A 
ATOM     16  C   UNL     1       0.043  -2.145   1.271  0.00  0.00    +0.011 A 
ATOM     17 BR   UNL     1       0.093  -3.100   5.298  0.00  0.00    -0.050 Br
ENDBRANCH   9  11
ENDBRANCH   1  10
BRANCH   6  18
ATOM     18  N   UNL     1      -0.075   1.273  -5.063  0.00  0.00    -0.294 N 
ATOM     19  H   UNL     1      -0.094   1.618  -6.107  0.00  0.00    +0.163 HD
ATOM     20  H   UNL     1      -0.079   2.004  -4.242  0.00  0.00    +0.163 HD
ENDBRANCH   6  18
BRANCH   5  21
ATOM     21  S   UNL     1      -0.058  -0.881  -7.457  0.00  0.00    -0.076 S 
BRANCH  21  22
ATOM     22  C   UNL     1      -0.043  -2.582  -8.088  0.00  0.00    +0.157 C 
BRANCH  22  23
ATOM     23  C   UNL     1      -0.058  -2.560  -9.594  0.00  0.00    +0.173 C 
ATOM     24  O   UNL     1      -0.077  -1.501 -10.185  0.00  0.00    -0.291 OA
BRANCH  23  25
ATOM     25  C   UNL     1      -0.049  -3.823 -10.349  0.00  0.00    +0.018 A 
ATOM     26  C   UNL     1      -0.021  -5.046  -9.671  0.00  0.00    +0.011 A 
ATOM     27  C   UNL     1      -0.018  -6.226 -10.386  0.00  0.00    +0.001 A 
ATOM     28  C   UNL     1      -0.032  -6.201 -11.769  0.00  0.00    +0.000 A 
ATOM     29  C   UNL     1      -0.054  -4.995 -12.447  0.00  0.00    +0.001 A 
ATOM     30  C   UNL     1      -0.063  -3.807 -11.747  0.00  0.00    +0.011 A 
ENDBRANCH  23  25
ENDBRANCH  22  23
ENDBRANCH  21  22
ENDBRANCH   5  21
TORSDOF 7
