REMARK  Name = ZINC39633495
REMARK  9 active torsions:
REMARK  status: ('A' for Active; 'I' for Inactive)
REMARK    1  A    between atoms: C_1  and  O_2
REMARK    2  A    between atoms: O_2  and  C_3
REMARK    3  A    between atoms: C_5  and  C_13
REMARK    4  A    between atoms: C_7  and  O_11
REMARK    5  A    between atoms: C_8  and  O_9
REMARK    6  A    between atoms: O_9  and  C_10
REMARK    7  A    between atoms: O_11  and  C_12
REMARK    8  A    between atoms: C_17  and  C_26
REMARK    9  A    between atoms: N_28  and  C_29
REMARK                            x       y       z     vdW  Elec       q    Type
REMARK                         _______ _______ _______ _____ _____    ______ ____
ROOT
ATOM      1  C   UNL     1       2.454   0.308   4.189  0.00  0.00    +0.247 C 
ATOM      2  O   UNL     1       2.497   1.519   4.092  0.00  0.00    -0.270 OA
ATOM      3  N   UNL     1       2.983  -0.301   5.269  0.00  0.00    -0.296 N 
ATOM      4  C   UNL     1       3.140  -1.755   5.506  0.00  0.00    +0.121 C 
ATOM      5  C   UNL     1       4.517  -1.892   6.194  0.00  0.00    +0.100 C 
ATOM      6  C   UNL     1       4.771  -0.519   6.839  0.00  0.00    -0.004 C 
ATOM      7  C   UNL     1       3.544   0.333   6.486  0.00  0.00    +0.115 C 
ATOM      8  C   UNL     1       6.031   0.114   6.255  0.00  0.00    -0.010 C 
ATOM      9  C   UNL     1       6.294   1.451   6.952  0.00  0.00    -0.082 C 
ATOM     10  N   UNL     1       6.456   1.230   8.394  0.00  0.00    +0.379 N 
ATOM     11  C   UNL     1       5.209   0.708   8.964  0.00  0.00    -0.082 C 
ATOM     12  C   UNL     1       4.899  -0.661   8.352  0.00  0.00    -0.010 C 
ATOM     13  H   UNL     1       7.200   0.566   8.550  0.00  0.00    -0.086 HD
ATOM     14  H   UNL     1       6.690   2.103   8.843  0.00  0.00    -0.086 HD
ENDROOT
BRANCH   1  17
ATOM     15  C   UNL     1       1.151  -0.748   0.827  0.00  0.00    +0.166 A 
ATOM     16  C   UNL     1       1.742   0.007   1.823  0.00  0.00    +0.062 A 
ATOM     17  C   UNL     1       1.824  -0.496   3.123  0.00  0.00    +0.044 A 
ATOM     18  C   UNL     1       1.308  -1.762   3.414  0.00  0.00    +0.062 A 
ATOM     19  C   UNL     1       0.718  -2.513   2.414  0.00  0.00    +0.166 A 
ATOM     20  C   UNL     1       0.633  -2.007   1.120  0.00  0.00    +0.204 A 
BRANCH  15  22
ATOM     21  C   UNL     1       1.623   1.039  -0.670  0.00  0.00    +0.277 C 
ATOM     22  O   UNL     1       1.071  -0.259  -0.440  0.00  0.00    -0.491 OA
ENDBRANCH  15  22
BRANCH  20  23
ATOM     23  O   UNL     1       0.049  -2.745   0.140  0.00  0.00    -0.488 OA
ATOM     24  C   UNL     1       0.895  -3.625  -0.602  0.00  0.00    +0.277 C 
ENDBRANCH  20  23
BRANCH  19  25
ATOM     25  O   UNL     1       0.217  -3.745   2.697  0.00  0.00    -0.491 OA
ATOM     26  C   UNL     1       0.333  -4.199   4.046  0.00  0.00    +0.277 C 
ENDBRANCH  19  25
ENDBRANCH   1  17
BRANCH   5  27
ATOM     27  C   UNL     1       4.472  -2.969   7.248  0.00  0.00    +0.218 C 
ATOM     28  O   UNL     1       3.417  -3.263   7.770  0.00  0.00    -0.275 OA
ATOM     29  N   UNL     1       5.604  -3.605   7.610  0.00  0.00    -0.312 N 
ATOM     30  H   UNL     1       6.447  -3.370   7.193  0.00  0.00    +0.149 HD
BRANCH  29  31
ATOM     31  C   UNL     1       5.560  -4.651   8.634  0.00  0.00    +0.073 C 
ATOM     32  C   UNL     1       5.577  -3.989  10.027  0.00  0.00    +0.022 C 
ATOM     33  C   UNL     1       5.030  -4.968  11.029  0.00  0.00    +0.002 C 
ATOM     34  C   UNL     1       6.138  -5.786  11.720  0.00  0.00    +0.000 C 
ATOM     35  C   UNL     1       7.238  -6.245  10.744  0.00  0.00    +0.000 C 
ATOM     36  C   UNL     1       6.679  -6.729   9.433  0.00  0.00    +0.002 C 
ATOM     37  C   UNL     1       6.684  -5.553   8.435  0.00  0.00    +0.022 C 
ENDBRANCH  29  31
ENDBRANCH   5  27
TORSDOF 6
