REMARK  Name = ZINC64393061
REMARK  5 active torsions:
REMARK  status: ('A' for Active; 'I' for Inactive)
REMARK    1  A    between atoms: C_1  and  O_2
REMARK    2  A    between atoms: O_2  and  C_3
REMARK    3  A    between atoms: C_7  and  C_9
REMARK    4  A    between atoms: C_13  and  C_15
REMARK    5  A    between atoms: C_18  and  C_22
REMARK                            x       y       z     vdW  Elec       q    Type
REMARK                         _______ _______ _______ _____ _____    ______ ____
ROOT
ATOM      1  C   UNL     1       1.589  -4.680   4.655  0.00  0.00    +0.225 C 
ATOM      2  N   UNL     1       2.416  -5.378   5.666  0.00  0.00    -0.268 NA
ATOM      3  C   UNL     1       2.479  -4.479   6.839  0.00  0.00    +0.180 C 
ATOM      4  N   UNL     1       1.689  -3.280   6.473  0.00  0.00    -0.178 NA
ATOM      5  O   UNL     1       1.696  -3.278   4.992  0.00  0.00    -0.278 OA
ATOM      6  H   UNL     1       2.010  -6.267   5.914  0.00  0.00    +0.126 HD
ATOM      7  H   UNL     1       2.115  -2.442   6.838  0.00  0.00    +0.156 HD
ENDROOT
BRANCH   3   8
ATOM      8  C   UNL     1       1.876  -5.154   8.044  0.00  0.00    -0.014 A 
ATOM      9  C   UNL     1       1.940  -6.529   8.171  0.00  0.00    +0.007 A 
ATOM     10  C   UNL     1       1.387  -7.148   9.276  0.00  0.00    +0.015 A 
ATOM     11  C   UNL     1       0.769  -6.391  10.255  0.00  0.00    +0.018 A 
ATOM     12  C   UNL     1       0.706  -5.016  10.128  0.00  0.00    +0.015 A 
ATOM     13  C   UNL     1       1.264  -4.397   9.025  0.00  0.00    +0.007 A 
ATOM     14 BR   UNL     1       0.012  -7.238  11.767  0.00  0.00    -0.050 Br
ENDBRANCH   3   8
BRANCH   1  19
ATOM     15  C   UNL     1       1.282  -4.241   2.208  0.00  0.00    +0.083 C 
ATOM     16  N   UNL     1       0.814  -5.190   1.446  0.00  0.00    -0.153 NA
ATOM     17  N   UNL     1       1.245  -6.449   1.848  0.00  0.00    -0.161 NA
ATOM     18  C   UNL     1       2.014  -6.401   2.888  0.00  0.00    +0.121 C 
ATOM     19  C   UNL     1       2.138  -4.934   3.250  0.00  0.00    +0.128 C 
BRANCH  15  24
ATOM     20  C   UNL     1       1.690  -0.522   2.517  0.00  0.00    +0.121 A 
ATOM     21  C   UNL     1       0.566  -0.073   1.836  0.00  0.00    +0.045 A 
ATOM     22  C   UNL     1      -0.320  -0.978   1.279  0.00  0.00    +0.004 A 
ATOM     23  C   UNL     1      -0.093  -2.334   1.397  0.00  0.00    +0.010 A 
ATOM     24  C   UNL     1       1.036  -2.796   2.080  0.00  0.00    +0.002 A 
ATOM     25  C   UNL     1       1.933  -1.879   2.637  0.00  0.00    +0.055 A 
BRANCH  20  27
ATOM     26  C   UNL     1       2.245   1.759   2.899  0.00  0.00    +0.277 C 
ATOM     27  O   UNL     1       2.556   0.373   3.061  0.00  0.00    -0.495 OA
ENDBRANCH  20  27
ENDBRANCH  15  24
ENDBRANCH   1  19
TORSDOF 4
