REMARK  Name = ZINC39631884
REMARK  14 active torsions:
REMARK  status: ('A' for Active; 'I' for Inactive)
REMARK    1  A    between atoms: C_1  and  C_2
REMARK    2  A    between atoms: C_2  and  N_3
REMARK    3  A    between atoms: C_4  and  C_10
REMARK    4  A    between atoms: C_6  and  C_8
REMARK    5  A    between atoms: C_14  and  C_23
REMARK    6  A    between atoms: N_25  and  C_26
REMARK    7  A    between atoms: C_26  and  C_28
REMARK    8  A    between atoms: C_26  and  C_29
REMARK    9  A    between atoms: C_29  and  C_30
REMARK   10  A    between atoms: C_30  and  C_31
REMARK   11  A    between atoms: C_31  and  C_32
REMARK   12  A    between atoms: C_32  and  C_33
REMARK   13  A    between atoms: C_32  and  C_34
REMARK   14  A    between atoms: C_32  and  O_35
REMARK                            x       y       z     vdW  Elec       q    Type
REMARK                         _______ _______ _______ _____ _____    ______ ____
ROOT
ATOM      1  C   UNL     1      -1.969   1.643  -4.506  0.00  0.00    +0.266 C 
ATOM      2  O   UNL     1      -2.651   1.141  -5.379  0.00  0.00    -0.268 OA
ATOM      3  N   UNL     1      -2.339   1.532  -3.215  0.00  0.00    -0.295 N 
ATOM      4  C   UNL     1      -1.480   1.221  -2.048  0.00  0.00    +0.121 C 
ATOM      5  C   UNL     1      -2.011   2.131  -0.918  0.00  0.00    +0.100 C 
ATOM      6  C   UNL     1      -3.466   2.436  -1.312  0.00  0.00    -0.004 C 
ATOM      7  C   UNL     1      -3.695   1.700  -2.640  0.00  0.00    +0.115 C 
ATOM      8  C   UNL     1      -4.423   1.913  -0.245  0.00  0.00    -0.010 C 
ATOM      9  C   UNL     1      -5.859   2.279  -0.630  0.00  0.00    -0.082 C 
ATOM     10  N   UNL     1      -5.979   3.737  -0.751  0.00  0.00    +0.379 N 
ATOM     11  C   UNL     1      -5.125   4.221  -1.842  0.00  0.00    -0.082 C 
ATOM     12  C   UNL     1      -3.658   3.937  -1.508  0.00  0.00    -0.010 C 
ATOM     13  H   UNL     1      -6.939   3.979  -0.945  0.00  0.00    -0.086 HD
ATOM     14  H   UNL     1      -5.694   4.169   0.115  0.00  0.00    -0.086 HD
ENDROOT
BRANCH   1  16
ATOM     15  N   UNL     1       0.512   2.161  -4.356  0.00  0.00    -0.258 N 
ATOM     16  C   UNL     1      -0.742   2.372  -4.859  0.00  0.00    +0.138 A 
ATOM     17  C   UNL     1      -0.623   3.409  -5.769  0.00  0.00    +0.071 A 
ATOM     18  C   UNL     1       0.729   3.763  -5.753  0.00  0.00    +0.075 A 
ATOM     19  N   UNL     1       1.337   2.986  -4.892  0.00  0.00    -0.175 NA
ATOM     20  C   UNL     1       1.372   4.849  -6.576  0.00  0.00    +0.069 C 
ATOM     21 BR   UNL     1      -1.998   4.182  -6.813  0.00  0.00    -0.046 Br
BRANCH  15  23
ATOM     22  C   UNL     1       1.433   1.839  -2.114  0.00  0.00    +0.029 C 
ATOM     23  C   UNL     1       0.860   1.151  -3.354  0.00  0.00    +0.141 C 
ENDBRANCH  15  23
ENDBRANCH   1  16
BRANCH   5  24
ATOM     24  C   UNL     1      -1.207   3.404  -0.847  0.00  0.00    +0.218 C 
ATOM     25  O   UNL     1      -0.861   3.960  -1.868  0.00  0.00    -0.275 OA
ATOM     26  N   UNL     1      -0.873   3.924   0.351  0.00  0.00    -0.312 N 
ATOM     27  H   UNL     1      -1.087   3.442   1.165  0.00  0.00    +0.149 HD
BRANCH  26  28
ATOM     28  C   UNL     1      -0.187   5.216   0.422  0.00  0.00    +0.070 C 
ATOM     29  C   UNL     1      -1.219   6.345   0.380  0.00  0.00    +0.028 C 
BRANCH  28  30
ATOM     30  C   UNL     1       0.608   5.300   1.727  0.00  0.00    +0.022 C 
BRANCH  30  31
ATOM     31  C   UNL     1       1.709   4.239   1.723  0.00  0.00    +0.005 C 
BRANCH  31  32
ATOM     32  C   UNL     1       2.445   4.261   3.064  0.00  0.00    +0.034 C 
BRANCH  32  33
ATOM     33  C   UNL     1       3.590   3.247   3.035  0.00  0.00    +0.061 C 
ATOM     34  C   UNL     1       4.313   3.256   4.383  0.00  0.00    +0.041 C 
ATOM     35  C   UNL     1       3.027   1.850   2.768  0.00  0.00    +0.041 C 
BRANCH  33  36
ATOM     36  O   UNL     1       4.509   3.596   1.999  0.00  0.00    -0.389 OA
ATOM     37  H   UNL     1       5.263   2.995   1.922  0.00  0.00    +0.210 HD
ENDBRANCH  33  36
ENDBRANCH  32  33
ENDBRANCH  31  32
ENDBRANCH  30  31
ENDBRANCH  28  30
ENDBRANCH  26  28
ENDBRANCH   5  24
TORSDOF 9
