REMARK  Name = ZINC14352924
REMARK  12 active torsions:
REMARK  status: ('A' for Active; 'I' for Inactive)
REMARK    1  A    between atoms: C_1  and  C_2
REMARK    2  A    between atoms: C_3  and  C_24
REMARK    3  A    between atoms: C_4  and  C_23
REMARK    4  A    between atoms: C_7  and  C_8
REMARK    5  A    between atoms: C_8  and  C_10
REMARK    6  A    between atoms: C_10  and  N_11
REMARK    7  A    between atoms: N_11  and  C_12
REMARK    8  A    between atoms: N_11  and  S_15
REMARK    9  A    between atoms: C_12  and  C_13
REMARK   10  A    between atoms: S_15  and  C_18
REMARK   11  A    between atoms: C_24  and  O_26
REMARK   12  A    between atoms: O_26  and  C_27
REMARK                            x       y       z     vdW  Elec       q    Type
REMARK                         _______ _______ _______ _____ _____    ______ ____
ROOT
ATOM      1  C   UNL     1       5.375   2.014  -2.244  0.00  0.00    +0.195 C 
ATOM      2  O   UNL     1       5.873   1.066  -1.671  0.00  0.00    -0.289 OA
ENDROOT
BRANCH   1   9
ATOM      3  C   UNL     1       8.483   1.951  -2.242  0.00  0.00    +0.047 C 
ATOM      4  C   UNL     1       7.581   2.983  -2.868  0.00  0.00    -0.008 A 
ATOM      5  C   UNL     1       7.984   4.130  -3.584  0.00  0.00    +0.083 A 
ATOM      6  C   UNL     1       6.834   4.796  -3.973  0.00  0.00    +0.028 A 
ATOM      7  N   UNL     1       5.771   4.107  -3.533  0.00  0.00    -0.355 N 
ATOM      8  H   UNL     1       4.844   4.358  -3.671  0.00  0.00    +0.166 HD
ATOM      9  C   UNL     1       6.202   2.986  -2.854  0.00  0.00    +0.088 A 
ATOM     10  C   UNL     1       6.786   6.081  -4.758  0.00  0.00    +0.064 C 
BRANCH   5  11
ATOM     11  C   UNL     1       9.370   4.545  -3.861  0.00  0.00    +0.341 C 
ATOM     12  O   UNL     1       9.957   5.266  -3.079  0.00  0.00    -0.245 OA
BRANCH  11  13
ATOM     13  O   UNL     1       9.988   4.125  -4.983  0.00  0.00    -0.464 OA
ATOM     14  C   UNL     1      11.353   4.573  -5.191  0.00  0.00    +0.280 C 
ENDBRANCH  11  13
ENDBRANCH   5  11
ENDBRANCH   1   9
BRANCH   1  15
ATOM     15  C   UNL     1       3.876   2.154  -2.305  0.00  0.00    +0.190 C 
BRANCH  15  16
ATOM     16  N   UNL     1       3.251   1.029  -1.605  0.00  0.00    -0.165 NA
BRANCH  16  17
ATOM     17  S   UNL     1       2.805   1.186  -0.018  0.00  0.00    +0.068 S 
ATOM     18  O   UNL     1       3.612   2.219   0.531  0.00  0.00    -0.152 OA
ATOM     19  O   UNL     1       2.773  -0.126   0.527  0.00  0.00    -0.152 OA
BRANCH  17  20
ATOM     20  C   UNL     1       1.146   1.780   0.001  0.00  0.00    +0.143 A 
ATOM     21  C   UNL     1      -0.013   1.076   0.008  0.00  0.00    +0.036 A 
ATOM     22  C   UNL     1      -1.213   1.761   0.017  0.00  0.00    +0.010 A 
ATOM     23  C   UNL     1      -1.196   3.116   0.030  0.00  0.00    +0.047 A 
ATOM     24  S   UNL     1       0.555   3.464   0.015  0.00  0.00    -0.077 S 
ENDBRANCH  17  20
ENDBRANCH  16  17
BRANCH  16  25
ATOM     25  C   UNL     1       3.021  -0.235  -2.309  0.00  0.00    +0.136 C 
BRANCH  25  26
ATOM     26  C   UNL     1       1.714  -0.163  -3.057  0.00  0.00    -0.018 C 
ATOM     27  C   UNL     1       1.683  -0.404  -4.345  0.00  0.00    +0.005 C 
ENDBRANCH  25  26
ENDBRANCH  16  25
ENDBRANCH  15  16
ENDBRANCH   1  15
TORSDOF 9
