REMARK  Name = ZINC39596354
REMARK  7 active torsions:
REMARK  status: ('A' for Active; 'I' for Inactive)
REMARK    1  A    between atoms: C_1  and  C_2
REMARK    2  A    between atoms: C_2  and  C_4
REMARK    3  A    between atoms: C_2  and  O_32
REMARK    4  A    between atoms: C_4  and  N_5
REMARK    5  A    between atoms: C_6  and  C_8
REMARK    6  A    between atoms: C_19  and  C_21
REMARK    7  A    between atoms: O_32  and  C_33
REMARK                            x       y       z     vdW  Elec       q    Type
REMARK                         _______ _______ _______ _____ _____    ______ ____
ROOT
ATOM      1  C   UNL     1       1.646  -4.299  -2.655  0.00  0.00    +0.100 C 
ATOM      2  C   UNL     1       0.277  -4.933  -2.989  0.00  0.00    +0.121 C 
ATOM      3  N   UNL     1       0.272  -5.059  -4.465  0.00  0.00    -0.297 N 
ATOM      4  C   UNL     1       1.655  -5.472  -4.804  0.00  0.00    +0.115 C 
ATOM      5  C   UNL     1       2.548  -4.657  -3.848  0.00  0.00    -0.004 C 
ATOM      6  C   UNL     1       3.040  -3.389  -4.538  0.00  0.00    -0.010 C 
ATOM      7  C   UNL     1       3.981  -3.770  -5.685  0.00  0.00    -0.082 C 
ATOM      8  N   UNL     1       5.116  -4.535  -5.156  0.00  0.00    +0.379 N 
ATOM      9  C   UNL     1       4.643  -5.797  -4.575  0.00  0.00    -0.082 C 
ATOM     10  C   UNL     1       3.730  -5.502  -3.381  0.00  0.00    -0.010 C 
ATOM     11  C   UNL     1      -0.757  -4.846  -5.309  0.00  0.00    +0.260 C 
ATOM     12  O   UNL     1      -0.602  -4.992  -6.503  0.00  0.00    -0.271 OA
ATOM     13  H   UNL     1       5.765  -4.732  -5.903  0.00  0.00    -0.086 HD
ATOM     14  H   UNL     1       5.582  -3.993  -4.444  0.00  0.00    -0.086 HD
ENDROOT
BRANCH  11  15
ATOM     15  C   UNL     1      -2.100  -4.426  -4.769  0.00  0.00    +0.296 C 
ATOM     16  C   UNL     1      -2.692  -5.558  -3.919  0.00  0.00    +0.283 C 
ATOM     17  O   UNL     1      -3.971  -5.133  -3.434  0.00  0.00    -0.484 OA
ATOM     18  C   UNL     1      -4.805  -4.552  -4.339  0.00  0.00    +0.162 A 
ATOM     19  C   UNL     1      -6.158  -4.449  -4.049  0.00  0.00    +0.049 A 
ATOM     20  C   UNL     1      -7.017  -3.859  -4.956  0.00  0.00    +0.004 A 
ATOM     21  C   UNL     1      -6.532  -3.371  -6.155  0.00  0.00    +0.004 A 
ATOM     22  C   UNL     1      -5.186  -3.472  -6.451  0.00  0.00    +0.049 A 
ATOM     23  C   UNL     1      -4.318  -4.064  -5.545  0.00  0.00    +0.163 A 
ATOM     24  O   UNL     1      -2.996  -4.163  -5.854  0.00  0.00    -0.473 OA
ENDBRANCH  11  15
BRANCH   1  26
ATOM     25  N   UNL     1       2.347  -2.119  -1.718  0.00  0.00    -0.312 N 
ATOM     26  C   UNL     1       1.514  -2.803  -2.528  0.00  0.00    +0.218 C 
ATOM     27  O   UNL     1       0.658  -2.214  -3.155  0.00  0.00    -0.275 OA
ATOM     28  H   UNL     1       3.031  -2.590  -1.217  0.00  0.00    +0.149 HD
BRANCH  25  29
ATOM     29  C   UNL     1       2.219  -0.665  -1.595  0.00  0.00    +0.148 C 
BRANCH  29  31
ATOM     30  C   UNL     1       3.063   1.357  -0.396  0.00  0.00    +0.053 C 
ATOM     31  C   UNL     1       3.276  -0.141  -0.621  0.00  0.00    +0.187 C 
BRANCH  31  32
ATOM     32  O   UNL     1       4.578  -0.360  -1.168  0.00  0.00    -0.488 OA
BRANCH  32  33
ATOM     33  C   UNL     1       5.612  -0.438  -0.289  0.00  0.00    +0.121 A 
ATOM     34  C   UNL     1       5.395  -0.200   1.060  0.00  0.00    +0.048 A 
ATOM     35  C   UNL     1       6.446  -0.280   1.953  0.00  0.00    +0.042 A 
ATOM     36  C   UNL     1       7.716  -0.596   1.501  0.00  0.00    +0.124 A 
ATOM     37  C   UNL     1       7.934  -0.833   0.155  0.00  0.00    +0.042 A 
ATOM     38  C   UNL     1       6.883  -0.761  -0.739  0.00  0.00    +0.048 A 
ATOM     39  F   UNL     1       8.743  -0.673   2.375  0.00  0.00    -0.205 F 
ENDBRANCH  32  33
ENDBRANCH  31  32
ENDBRANCH  29  31
ENDBRANCH  25  29
ENDBRANCH   1  26
TORSDOF 6
