REMARK  Name = ZINC24880368
REMARK  5 active torsions:
REMARK  status: ('A' for Active; 'I' for Inactive)
REMARK    1  A    between atoms: C_1  and  C_2
REMARK    2  A    between atoms: N_11  and  C_12
REMARK    3  A    between atoms: C_12  and  C_13
REMARK    4  A    between atoms: C_13  and  C_14
REMARK    5  A    between atoms: N_16  and  N_17
REMARK                            x       y       z     vdW  Elec       q    Type
REMARK                         _______ _______ _______ _____ _____    ______ ____
ROOT
ATOM      1  C   UNL     1      -1.822   6.078  -2.933  0.00  0.00    +0.231 C 
ATOM      2  O   UNL     1      -1.956   7.146  -2.374  0.00  0.00    -0.274 OA
ATOM      3  N   UNL     1      -1.541   6.038  -4.251  0.00  0.00    -0.224 N 
ATOM      4  H   UNL     1      -1.419   5.070  -4.758  0.00  0.00    +0.174 HD
ENDROOT
BRANCH   3   5
ATOM      5  N   UNL     1      -1.405   7.230  -4.975  0.00  0.00    -0.137 N 
ATOM      6  C   UNL     1      -0.223   7.739  -5.382  0.00  0.00    +0.263 C 
ATOM      7  O   UNL     1       0.880   7.270  -5.199  0.00  0.00    -0.271 OA
ATOM      8  C   UNL     1      -0.565   9.016  -6.115  0.00  0.00    +0.114 C 
ATOM      9  C   UNL     1      -0.114   8.931  -7.569  0.00  0.00    +0.035 C 
ATOM     10  C   UNL     1      -0.494  10.221  -8.300  0.00  0.00    +0.003 C 
ATOM     11  C   UNL     1       0.175  11.412  -7.610  0.00  0.00    +0.000 C 
ATOM     12  C   UNL     1      -0.306  11.499  -6.160  0.00  0.00    +0.003 C 
ATOM     13  C   UNL     1       0.074  10.214  -5.420  0.00  0.00    +0.035 C 
ATOM     14  N   UNL     1      -2.029   9.094  -6.032  0.00  0.00    -0.284 N 
ATOM     15  C   UNL     1      -2.430   8.003  -5.353  0.00  0.00    +0.326 C 
ATOM     16  O   UNL     1      -3.594   7.750  -5.107  0.00  0.00    -0.251 OA
ATOM     17  H   UNL     1      -2.561   9.942  -6.487  0.00  0.00    +0.151 HD
ENDBRANCH   3   5
BRANCH   1  18
ATOM     18  C   UNL     1      -1.969   4.796  -2.155  0.00  0.00    +0.116 C 
BRANCH  18  19
ATOM     19  C   UNL     1      -2.284   5.120  -0.693  0.00  0.00    +0.114 C 
BRANCH  19  30
ATOM     20  C   UNL     1      -3.319   5.077   5.539  0.00  0.00    +0.044 C 
ATOM     21  C   UNL     1      -3.072   4.747   4.090  0.00  0.00    -0.050 A 
ATOM     22  C   UNL     1      -3.561   5.577   3.097  0.00  0.00    +0.005 A 
ATOM     23  C   UNL     1      -3.336   5.271   1.772  0.00  0.00    +0.023 A 
ATOM     24  C   UNL     1      -2.614   4.129   1.423  0.00  0.00    +0.033 A 
ATOM     25  C   UNL     1      -2.117   3.308   2.420  0.00  0.00    -0.026 A 
ATOM     26  C   UNL     1      -2.356   3.616   3.750  0.00  0.00    +0.008 A 
ATOM     27  C   UNL     1      -1.319   2.067   2.110  0.00  0.00    +0.038 C 
ATOM     28  C   UNL     1      -1.497   1.693   0.637  0.00  0.00    +0.024 C 
ATOM     29  C   UNL     1      -1.308   2.965  -0.200  0.00  0.00    +0.105 C 
ATOM     30  N   UNL     1      -2.428   3.871   0.065  0.00  0.00    -0.329 N 
ENDBRANCH  19  30
ENDBRANCH  18  19
ENDBRANCH   1  18
TORSDOF 4
