REMARK  Name = ZINC57731529
REMARK  11 active torsions:
REMARK  status: ('A' for Active; 'I' for Inactive)
REMARK    1  A    between atoms: C_1  and  C_2
REMARK    2  A    between atoms: C_6  and  N_8
REMARK    3  A    between atoms: N_8  and  C_9
REMARK    4  A    between atoms: N_8  and  C_14
REMARK    5  A    between atoms: C_9  and  C_10
REMARK    6  A    between atoms: C_10  and  C_11
REMARK    7  A    between atoms: C_11  and  C_12
REMARK    8  A    between atoms: C_12  and  O_13
REMARK    9  A    between atoms: C_14  and  C_15
REMARK   10  A    between atoms: N_22  and  C_25
REMARK   11  A    between atoms: C_25  and  C_26
REMARK                            x       y       z     vdW  Elec       q    Type
REMARK                         _______ _______ _______ _____ _____    ______ ____
ROOT
ATOM      1  C   UNL     1       0.666   1.215  -0.032  0.00  0.00    +0.086 C 
ATOM      2  C   UNL     1       0.641  -0.288   0.071  0.00  0.00    +0.106 A 
ATOM      3  N   UNL     1       0.840  -1.008  -1.014  0.00  0.00    -0.347 N 
ATOM      4  C   UNL     1       0.828  -2.336  -0.967  0.00  0.00    +0.020 A 
ATOM      5  C   UNL     1       0.605  -2.962   0.237  0.00  0.00    -0.005 A 
ATOM      6  C   UNL     1       0.397  -2.170   1.371  0.00  0.00    +0.127 A 
ATOM      7  N   UNL     1       0.428  -0.847   1.245  0.00  0.00    -0.219 NA
ATOM      8  C   UNL     1       0.586  -4.459   0.366  0.00  0.00    -0.037 C 
ATOM      9  N   UNL     1       0.389  -5.085  -0.945  0.00  0.00    +0.385 N 
ATOM     10  C   UNL     1       1.401  -4.571  -1.880  0.00  0.00    -0.072 C 
ATOM     11  C   UNL     1       1.054  -3.122  -2.231  0.00  0.00    +0.035 C 
ATOM     12  H   UNL     1       0.997  -0.562  -1.861  0.00  0.00    +0.167 HD
ATOM     13  H   UNL     1      -0.532  -4.863  -1.290  0.00  0.00    -0.081 HD
ENDROOT
BRANCH   6  14
ATOM     14  N   UNL     1       0.166  -2.755   2.605  0.00  0.00    -0.311 N 
BRANCH  14  15
ATOM     15  C   UNL     1       1.295  -3.190   3.432  0.00  0.00    +0.107 C 
BRANCH  15  16
ATOM     16  C   UNL     1       1.731  -2.041   4.344  0.00  0.00    +0.021 C 
BRANCH  16  17
ATOM     17  C   UNL     1       2.910  -2.495   5.207  0.00  0.00    +0.029 C 
BRANCH  17  18
ATOM     18  C   UNL     1       3.346  -1.347   6.119  0.00  0.00    +0.156 C 
BRANCH  18  19
ATOM     19  O   UNL     1       4.447  -1.771   6.926  0.00  0.00    -0.395 OA
ATOM     20  H   UNL     1       4.776  -1.092   7.530  0.00  0.00    +0.209 HD
ENDBRANCH  18  19
ENDBRANCH  17  18
ENDBRANCH  16  17
ENDBRANCH  15  16
ENDBRANCH  14  15
BRANCH  14  21
ATOM     21  C   UNL     1      -1.206  -2.939   3.084  0.00  0.00    +0.141 C 
BRANCH  21  22
ATOM     22  C   UNL     1      -1.683  -4.323   2.724  0.00  0.00    -0.030 A 
ATOM     23  C   UNL     1      -2.424  -4.521   1.574  0.00  0.00    +0.005 A 
ATOM     24  C   UNL     1      -2.861  -5.790   1.244  0.00  0.00    +0.000 A 
ATOM     25  C   UNL     1      -2.556  -6.861   2.063  0.00  0.00    +0.000 A 
ATOM     26  C   UNL     1      -1.814  -6.663   3.212  0.00  0.00    +0.000 A 
ATOM     27  C   UNL     1      -1.373  -5.394   3.540  0.00  0.00    +0.005 A 
ENDBRANCH  21  22
ENDBRANCH  14  21
ENDBRANCH   6  14
BRANCH   9  28
ATOM     28  C   UNL     1       0.531  -6.542  -0.820  0.00  0.00    -0.043 C 
BRANCH  28  29
ATOM     29  C   UNL     1       0.209  -7.193  -2.141  0.00  0.00    -0.064 A 
ATOM     30  C   UNL     1      -1.090  -7.571  -2.426  0.00  0.00    +0.002 A 
ATOM     31  C   UNL     1      -1.385  -8.168  -3.637  0.00  0.00    +0.000 A 
ATOM     32  C   UNL     1      -0.383  -8.387  -4.563  0.00  0.00    +0.000 A 
ATOM     33  C   UNL     1       0.916  -8.008  -4.278  0.00  0.00    +0.000 A 
ATOM     34  C   UNL     1       1.211  -7.407  -3.069  0.00  0.00    +0.002 A 
ENDBRANCH  28  29
ENDBRANCH   9  28
TORSDOF 10
