REMARK  Name = ZINC20806864
REMARK  14 active torsions:
REMARK  status: ('A' for Active; 'I' for Inactive)
REMARK    1  A    between atoms: C_1  and  C_2
REMARK    2  A    between atoms: C_2  and  C_3
REMARK    3  A    between atoms: C_3  and  C_4
REMARK    4  A    between atoms: C_4  and  C_5
REMARK    5  A    between atoms: C_5  and  C_6
REMARK    6  A    between atoms: C_6  and  C_8
REMARK    7  A    between atoms: C_6  and  C_9
REMARK    8  A    between atoms: C_9  and  C_11
REMARK    9  A    between atoms: C_9  and  C_12
REMARK   10  A    between atoms: C_14  and  O_32
REMARK   11  A    between atoms: C_19  and  C_30
REMARK   12  A    between atoms: C_19  and  C_31
REMARK   13  A    between atoms: N_23  and  C_26
REMARK   14  A    between atoms: C_26  and  C_27
REMARK                            x       y       z     vdW  Elec       q    Type
REMARK                         _______ _______ _______ _____ _____    ______ ____
ROOT
ATOM      1  C   UNL     1      -0.749   3.086   1.275  0.00  0.00    -0.037 A 
ATOM      2  C   UNL     1      -1.364   3.769   0.241  0.00  0.00    +0.050 A 
ATOM      3  C   UNL     1      -1.395   5.156   0.240  0.00  0.00    +0.128 A 
ATOM      4  C   UNL     1      -0.792   5.854   1.286  0.00  0.00    +0.060 A 
ATOM      5  C   UNL     1      -0.164   5.157   2.325  0.00  0.00    +0.133 A 
ATOM      6  C   UNL     1      -0.148   3.774   2.314  0.00  0.00    +0.050 A 
ATOM      7  O   UNL     1       0.423   5.866   3.323  0.00  0.00    -0.481 OA
ATOM      8  C   UNL     1       1.017   7.113   2.962  0.00  0.00    +0.126 C 
ATOM      9  C   UNL     1       0.054   7.941   2.142  0.00  0.00    -0.027 C 
ATOM     10  C   UNL     1      -0.800   7.335   1.330  0.00  0.00    -0.047 C 
ATOM     11  C   UNL     1      -1.764   8.085   0.454  0.00  0.00    -0.041 C 
ATOM     12  N   UNL     1      -1.919   9.468   0.920  0.00  0.00    +0.388 N 
ATOM     13  C   UNL     1      -0.597  10.096   1.081  0.00  0.00    -0.073 C 
ATOM     14  C   UNL     1       0.105   9.441   2.270  0.00  0.00    +0.016 C 
ATOM     15  C   UNL     1       2.282   6.851   2.142  0.00  0.00    +0.060 C 
ATOM     16  C   UNL     1       1.389   7.881   4.232  0.00  0.00    +0.060 C 
ATOM     17  H   UNL     1      -2.425   9.451   1.897  0.00  0.00    -0.081 HD
ENDROOT
BRANCH   1  18
ATOM     18  C   UNL     1      -0.729   1.579   1.267  0.00  0.00    +0.019 C 
ATOM     19  C   UNL     1      -0.013   1.086   0.008  0.00  0.00    +0.013 C 
BRANCH  18  20
ATOM     20  C   UNL     1      -2.164   1.050   1.278  0.00  0.00    -0.007 C 
ATOM     21  C   UNL     1      -2.143  -0.480   1.269  0.00  0.00    +0.008 C 
BRANCH  20  22
ATOM     22  C   UNL     1      -2.880   1.543   2.537  0.00  0.00    +0.004 C 
BRANCH  22  23
ATOM     23  C   UNL     1      -4.349   1.119   2.487  0.00  0.00    +0.000 C 
BRANCH  23  24
ATOM     24  C   UNL     1      -5.066   1.612   3.746  0.00  0.00    -0.000 C 
BRANCH  24  26
ATOM     25  C   UNL     1      -7.251   1.681   4.955  0.00  0.00    +0.004 C 
ATOM     26  C   UNL     1      -6.535   1.188   3.696  0.00  0.00    -0.003 C 
ENDBRANCH  24  26
ENDBRANCH  23  24
ENDBRANCH  22  23
ENDBRANCH  20  22
ENDBRANCH  18  20
ENDBRANCH   1  18
BRANCH   3  27
ATOM     27  O   UNL     1      -2.004   5.827  -0.772  0.00  0.00    -0.506 OA
ATOM     28  H   UNL     1      -2.025   6.927  -0.767  0.00  0.00    +0.292 HD
ENDBRANCH   3  27
BRANCH  12  29
ATOM     29  C   UNL     1      -2.761  10.242  -0.001  0.00  0.00    +0.019 C 
BRANCH  29  30
ATOM     30  C   UNL     1      -3.100  11.570   0.624  0.00  0.00    +0.194 C 
ATOM     31  O   UNL     1      -2.682  11.845   1.729  0.00  0.00    -0.278 OA
ATOM     32  N   UNL     1      -3.869  12.453  -0.044  0.00  0.00    -0.331 N 
ATOM     33  H   UNL     1      -4.117  13.423   0.413  0.00  0.00    +0.145 HD
ATOM     34  H   UNL     1      -4.249  12.204  -1.046  0.00  0.00    +0.145 HD
ENDBRANCH  29  30
ENDBRANCH  12  29
TORSDOF 9
