REMARK  Name = ZINC40783319
REMARK  5 active torsions:
REMARK  status: ('A' for Active; 'I' for Inactive)
REMARK    1  A    between atoms: C_4  and  C_7
REMARK    2  A    between atoms: C_7  and  N_8
REMARK    3  A    between atoms: C_16  and  N_30
REMARK    4  A    between atoms: C_17  and  N_21
REMARK    5  A    between atoms: N_21  and  C_22
REMARK                            x       y       z     vdW  Elec       q    Type
REMARK                         _______ _______ _______ _____ _____    ______ ____
ROOT
ATOM      1  N   UNL     1       4.225  -1.123   1.459  0.00  0.00    -0.264 N 
ATOM      2  C   UNL     1       3.929  -2.310   2.121  0.00  0.00    +0.127 A 
ATOM      3  C   UNL     1       3.162  -3.282   1.486  0.00  0.00    +0.044 A 
ATOM      4  C   UNL     1       2.875  -4.457   2.156  0.00  0.00    +0.005 A 
ATOM      5  C   UNL     1       3.366  -4.622   3.444  0.00  0.00    +0.020 A 
ATOM      6  C   UNL     1       4.121  -3.617   4.014  0.00  0.00    +0.113 A 
ATOM      7  N   UNL     1       4.384  -2.508   3.349  0.00  0.00    -0.240 NA
ATOM      8  C   UNL     1       5.139  -0.230   2.007  0.00  0.00    +0.153 A 
ATOM      9  C   UNL     1       6.482  -0.266   1.625  0.00  0.00    +0.104 A 
ATOM     10  C   UNL     1       7.357   0.653   2.206  0.00  0.00    +0.126 A 
ATOM     11  N   UNL     1       6.883   1.522   3.096  0.00  0.00    -0.333 N 
ATOM     12  C   UNL     1       5.608   1.522   3.429  0.00  0.00    +0.200 A 
ATOM     13  N   UNL     1       4.747   0.675   2.900  0.00  0.00    -0.220 NA
ATOM     14  H   UNL     1       7.484   2.163   3.506  0.00  0.00    +0.168 HD
ENDROOT
BRANCH   9  15
ATOM     15  N   UNL     1       6.938  -1.200   0.682  0.00  0.00    -0.353 N 
ATOM     16  H   UNL     1       6.307  -1.780   0.229  0.00  0.00    +0.143 HD
ATOM     17  H   UNL     1       7.886  -1.266   0.484  0.00  0.00    +0.143 HD
ENDBRANCH   9  15
BRANCH  10  18
ATOM     18  N   UNL     1       8.704   0.660   1.862  0.00  0.00    -0.298 N 
ATOM     19  H   UNL     1       9.048   0.006   1.234  0.00  0.00    +0.154 HD
BRANCH  18  20
ATOM     20  C   UNL     1       9.564   1.612   2.420  0.00  0.00    +0.051 A 
ATOM     21  C   UNL     1      10.029   2.668   1.648  0.00  0.00    +0.026 A 
ATOM     22  C   UNL     1      10.877   3.607   2.202  0.00  0.00    +0.022 A 
ATOM     23  C   UNL     1      11.265   3.495   3.526  0.00  0.00    +0.042 A 
ATOM     24  C   UNL     1      10.804   2.444   4.298  0.00  0.00    +0.041 A 
ATOM     25  C   UNL     1       9.950   1.505   3.751  0.00  0.00    +0.063 A 
ATOM     26 CL   UNL     1       9.366   0.191   4.723  0.00  0.00    -0.082 Cl
ATOM     27 CL   UNL     1      12.332   4.677   4.218  0.00  0.00    -0.083 Cl
ENDBRANCH  18  20
ENDBRANCH  10  18
BRANCH   1  28
ATOM     28  C   UNL     1       3.573  -0.814   0.183  0.00  0.00    +0.149 C 
BRANCH  28  32
ATOM     29  C   UNL     1      -0.046   1.333   0.915  0.00  0.00    +0.000 A 
ATOM     30  C   UNL     1       1.141   2.019   0.741  0.00  0.00    +0.000 A 
ATOM     31  C   UNL     1       2.312   1.324   0.505  0.00  0.00    +0.005 A 
ATOM     32  C   UNL     1       2.296  -0.056   0.443  0.00  0.00    -0.030 A 
ATOM     33  C   UNL     1       1.109  -0.743   0.617  0.00  0.00    +0.005 A 
ATOM     34  C   UNL     1      -0.062  -0.048   0.853  0.00  0.00    +0.000 A 
ENDBRANCH  28  32
ENDBRANCH   1  28
TORSDOF 5
