REMARK  Name = ZINC24453650
REMARK  7 active torsions:
REMARK  status: ('A' for Active; 'I' for Inactive)
REMARK    1  A    between atoms: C_1  and  C_2
REMARK    2  A    between atoms: C_5  and  C_8
REMARK    3  A    between atoms: C_9  and  C_20
REMARK    4  A    between atoms: N_11  and  C_13
REMARK    5  A    between atoms: N_22  and  N_23
REMARK    6  A    between atoms: C_24  and  C_26
REMARK    7  A    between atoms: C_26  and  C_27
REMARK                            x       y       z     vdW  Elec       q    Type
REMARK                         _______ _______ _______ _____ _____    ______ ____
ROOT
ATOM      1  C   UNL     1      -5.947   5.172   5.100  0.00  0.00    +0.105 A 
ATOM      2  C   UNL     1      -4.791   4.388   4.655  0.00  0.00    +0.084 A 
ATOM      3  C   UNL     1      -4.225   3.849   5.792  0.00  0.00    +0.128 A 
ATOM      4  N   UNL     1      -4.948   4.261   6.847  0.00  0.00    -0.239 N 
ATOM      5  N   UNL     1      -6.002   5.068   6.409  0.00  0.00    -0.166 NA
ENDROOT
BRANCH   1  10
ATOM      6  C   UNL     1      -9.566   8.143   1.748  0.00  0.00    +0.044 C 
ATOM      7  C   UNL     1      -8.619   7.365   2.625  0.00  0.00    -0.050 A 
ATOM      8  C   UNL     1      -9.093   6.732   3.760  0.00  0.00    +0.004 A 
ATOM      9  C   UNL     1      -8.231   6.019   4.567  0.00  0.00    +0.010 A 
ATOM     10  C   UNL     1      -6.879   5.937   4.237  0.00  0.00    +0.003 A 
ATOM     11  C   UNL     1      -6.405   6.582   3.095  0.00  0.00    +0.010 A 
ATOM     12  C   UNL     1      -7.278   7.288   2.293  0.00  0.00    +0.004 A 
ENDBRANCH   1  10
BRANCH   4  13
ATOM     13  C   UNL     1      -4.688   3.928   8.184  0.00  0.00    +0.066 A 
ATOM     14  C   UNL     1      -3.611   3.111   8.500  0.00  0.00    +0.030 A 
ATOM     15  C   UNL     1      -3.353   2.788   9.818  0.00  0.00    +0.040 A 
ATOM     16  C   UNL     1      -4.175   3.270  10.823  0.00  0.00    +0.124 A 
ATOM     17  C   UNL     1      -5.254   4.080  10.509  0.00  0.00    +0.040 A 
ATOM     18  C   UNL     1      -5.511   4.410   9.193  0.00  0.00    +0.030 A 
ATOM     19  F   UNL     1      -3.925   2.949  12.111  0.00  0.00    -0.205 F 
ENDBRANCH   4  13
BRANCH   2  20
ATOM     20  C   UNL     1      -4.328   4.207   3.268  0.00  0.00    +0.264 C 
ATOM     21  O   UNL     1      -4.928   4.739   2.353  0.00  0.00    -0.269 OA
ATOM     22  N   UNL     1      -3.241   3.453   3.014  0.00  0.00    -0.230 N 
ATOM     23  H   UNL     1      -2.700   2.971   3.841  0.00  0.00    +0.173 HD
BRANCH  22  24
ATOM     24  N   UNL     1      -2.801   3.280   1.694  0.00  0.00    -0.234 N 
ATOM     25  C   UNL     1      -1.714   2.526   1.440  0.00  0.00    +0.233 C 
ATOM     26  O   UNL     1      -1.117   1.995   2.352  0.00  0.00    -0.274 OA
ATOM     27  H   UNL     1      -3.343   3.762   0.867  0.00  0.00    +0.173 HD
BRANCH  25  28
ATOM     28  C   UNL     1      -1.241   2.341   0.021  0.00  0.00    +0.134 C 
BRANCH  28  29
ATOM     29  C   UNL     1      -0.018   1.461   0.010  0.00  0.00    -0.014 A 
ATOM     30  C   UNL     1       1.260   1.871   0.000  0.00  0.00    +0.087 A 
ATOM     31  N   UNL     1       2.097   0.788  -0.014  0.00  0.00    -0.360 N 
ATOM     32  H   UNL     1       3.187   0.936  -0.023  0.00  0.00    +0.165 HD
ATOM     33  C   UNL     1       1.359  -0.374  -0.013  0.00  0.00    +0.047 A 
ATOM     34  C   UNL     1       0.002  -0.004   0.002  0.00  0.00    +0.003 A 
ATOM     35  C   UNL     1      -0.988  -0.988   0.007  0.00  0.00    +0.010 A 
ATOM     36  C   UNL     1      -0.633  -2.308  -0.003  0.00  0.00    +0.001 A 
ATOM     37  C   UNL     1       0.704  -2.678  -0.018  0.00  0.00    +0.002 A 
ATOM     38  C   UNL     1       1.698  -1.723  -0.023  0.00  0.00    +0.026 A 
ENDBRANCH  28  29
ENDBRANCH  25  28
ENDBRANCH  22  24
ENDBRANCH   2  20
TORSDOF 6
