REMARK  Name = ZINC08837729
REMARK  8 active torsions:
REMARK  status: ('A' for Active; 'I' for Inactive)
REMARK    1  A    between atoms: N_13  and  C_16
REMARK    2  A    between atoms: C_16  and  C_17
REMARK    3  A    between atoms: C_17  and  N_60
REMARK    4  A    between atoms: C_22  and  C_23
REMARK    5  A    between atoms: C_22  and  N_62
REMARK    6  A    between atoms: C_23  and  C_25
REMARK    7  A    between atoms: C_23  and  O_34
REMARK    8  A    between atoms: C_28  and  N_31
REMARK                            x       y       z     vdW  Elec       q    Type
REMARK                         _______ _______ _______ _____ _____    ______ ____
ROOT
ATOM      1  C   UNL     1       5.175   8.387  -0.891  0.00  0.00    -0.098 C 
ATOM      2  C   UNL     1       6.528   9.101  -0.844  0.00  0.00    -0.098 C 
ATOM      3  C   UNL     1       7.268   7.825  -2.763  0.00  0.00    -0.098 C 
ATOM      4  C   UNL     1       5.915   7.111  -2.810  0.00  0.00    -0.098 C 
ATOM      5  N   UNL     1       5.372   7.028  -1.438  0.00  0.00    +0.378 N 
ATOM      6  H   UNL     1       6.040   6.523  -0.844  0.00  0.00    -0.082 HD
ATOM      7  N   UNL     1       7.071   9.184  -2.216  0.00  0.00    +0.379 N 
ATOM      8  H   UNL     1       6.402   9.689  -2.810  0.00  0.00    -0.082 HD
ENDROOT
BRANCH   5   9
ATOM      9  C   UNL     1       4.088   6.295  -1.446  0.00  0.00    -0.059 C 
BRANCH   9  10
ATOM     10  C   UNL     1       3.662   6.029  -0.001  0.00  0.00    +0.098 C 
BRANCH  10  23
ATOM     11  C   UNL     1      -0.013   1.076   0.008  0.00  0.00    +0.001 A 
ATOM     12  C   UNL     1      -1.213   1.726   0.017  0.00  0.00    +0.008 A 
ATOM     13  C   UNL     1      -1.253   3.131   0.030  0.00  0.00    -0.016 A 
ATOM     14  C   UNL     1      -2.463   3.846   0.044  0.00  0.00    +0.008 A 
ATOM     15  C   UNL     1      -2.450   5.211   0.051  0.00  0.00    +0.001 A 
ATOM     16  C   UNL     1      -1.260   5.928   0.044  0.00  0.00    +0.014 A 
ATOM     17  C   UNL     1      -0.044   5.261   0.030  0.00  0.00    +0.046 A 
ATOM     18  C   UNL     1      -0.038   3.847   0.023  0.00  0.00    +0.006 A 
ATOM     19  C   UNL     1       1.196   3.157   0.008  0.00  0.00    +0.046 A 
ATOM     20  C   UNL     1       1.191   1.770   0.000  0.00  0.00    +0.014 A 
ATOM     21  C   UNL     1       2.441   3.939  -0.000  0.00  0.00    +0.254 C 
ATOM     22  O   UNL     1       3.514   3.366  -0.013  0.00  0.00    -0.270 OA
ATOM     23  N   UNL     1       2.400   5.285   0.007  0.00  0.00    -0.236 N 
ATOM     24  C   UNL     1       1.242   5.972   0.022  0.00  0.00    +0.254 C 
ATOM     25  O   UNL     1       1.261   7.188   0.029  0.00  0.00    -0.270 OA
ENDBRANCH  10  23
ENDBRANCH   9  10
ENDBRANCH   5   9
BRANCH   7  26
ATOM     26  C   UNL     1       8.355   9.917  -2.208  0.00  0.00    -0.042 C 
BRANCH  26  27
ATOM     27  C   UNL     1       8.193  11.204  -1.397  0.00  0.00    +0.128 C 
BRANCH  27  28
ATOM     28  C   UNL     1       9.491  11.970  -1.406  0.00  0.00    -0.021 A 
ATOM     29  C   UNL     1       9.786  12.819  -2.456  0.00  0.00    +0.008 A 
ATOM     30  C   UNL     1      10.975  13.524  -2.461  0.00  0.00    +0.033 A 
ATOM     31  C   UNL     1      11.873  13.373  -1.421  0.00  0.00    +0.126 A 
ATOM     32  C   UNL     1      11.580  12.520  -0.374  0.00  0.00    +0.033 A 
ATOM     33  C   UNL     1      10.389  11.818  -0.366  0.00  0.00    +0.008 A 
BRANCH  31  34
ATOM     34  N   UNL     1      13.149  14.124  -1.430  0.00  0.00    +0.056 N 
ATOM     35  O   UNL     1      13.940  13.991  -0.514  0.00  0.00    -0.126 OA
ATOM     36  O   UNL     1      13.406  14.876  -2.353  0.00  0.00    -0.126 OA
ENDBRANCH  31  34
ENDBRANCH  27  28
BRANCH  27  37
ATOM     37  O   UNL     1       7.163  12.007  -1.978  0.00  0.00    -0.389 OA
ATOM     38  H   UNL     1       7.336  12.266  -2.894  0.00  0.00    +0.210 HD
ENDBRANCH  27  37
ENDBRANCH  26  27
ENDBRANCH   7  26
TORSDOF 8
