REMARK  Name = ZINC39655094
REMARK  5 active torsions:
REMARK  status: ('A' for Active; 'I' for Inactive)
REMARK    1  A    between atoms: C_3  and  C_6
REMARK    2  A    between atoms: C_6  and  N_7
REMARK    3  A    between atoms: C_8  and  C_10
REMARK    4  A    between atoms: C_21  and  C_23
REMARK    5  A    between atoms: C_26  and  C_28
REMARK                            x       y       z     vdW  Elec       q    Type
REMARK                         _______ _______ _______ _____ _____    ______ ____
ROOT
ATOM      1  C   UNL     1       5.944   0.555   2.996  0.00  0.00    +0.100 C 
ATOM      2  C   UNL     1       5.649   1.902   3.694  0.00  0.00    +0.121 C 
ATOM      3  N   UNL     1       6.840   2.154   4.539  0.00  0.00    -0.294 N 
ATOM      4  C   UNL     1       7.983   1.709   3.706  0.00  0.00    +0.115 C 
ATOM      5  C   UNL     1       7.477   0.433   3.005  0.00  0.00    -0.004 C 
ATOM      6  C   UNL     1       8.011   0.369   1.577  0.00  0.00    -0.010 C 
ATOM      7  C   UNL     1       9.531   0.189   1.613  0.00  0.00    -0.082 C 
ATOM      8  N   UNL     1       9.863  -1.044   2.336  0.00  0.00    +0.379 N 
ATOM      9  C   UNL     1       9.428  -0.937   3.734  0.00  0.00    -0.082 C 
ATOM     10  C   UNL     1       7.903  -0.804   3.788  0.00  0.00    -0.010 C 
ATOM     11  C   UNL     1       6.876   2.671   5.783  0.00  0.00    +0.282 C 
ATOM     12  O   UNL     1       7.942   2.819   6.350  0.00  0.00    -0.267 OA
ATOM     13  H   UNL     1       9.396  -1.825   1.899  0.00  0.00    -0.086 HD
ATOM     14  H   UNL     1      10.860  -1.192   2.306  0.00  0.00    -0.086 HD
ENDROOT
BRANCH  11  15
ATOM     15  C   UNL     1       5.631   3.056   6.452  0.00  0.00    +0.190 A 
ATOM     16  C   UNL     1       5.525   3.598   7.714  0.00  0.00    +0.055 A 
ATOM     17  C   UNL     1       4.163   3.809   7.950  0.00  0.00    +0.050 A 
ATOM     18  C   UNL     1       3.493   3.392   6.836  0.00  0.00    +0.136 A 
ATOM     19  O   UNL     1       4.388   2.946   5.938  0.00  0.00    -0.450 OA
BRANCH  18  20
ATOM     20  C   UNL     1       2.029   3.430   6.646  0.00  0.00    +0.017 A 
ATOM     21  C   UNL     1       1.205   3.931   7.657  0.00  0.00    +0.014 A 
ATOM     22  C   UNL     1      -0.162   3.965   7.474  0.00  0.00    +0.039 A 
ATOM     23  C   UNL     1      -0.717   3.503   6.291  0.00  0.00    +0.123 A 
ATOM     24  C   UNL     1       0.096   3.006   5.285  0.00  0.00    +0.039 A 
ATOM     25  C   UNL     1       1.464   2.972   5.454  0.00  0.00    +0.014 A 
ATOM     26  F   UNL     1      -2.057   3.539   6.117  0.00  0.00    -0.205 F 
ENDBRANCH  18  20
ENDBRANCH  11  15
BRANCH   1  28
ATOM     27  N   UNL     1       5.046  -0.574   0.986  0.00  0.00    -0.308 N 
ATOM     28  C   UNL     1       5.428   0.575   1.580  0.00  0.00    +0.219 C 
ATOM     29  O   UNL     1       5.356   1.623   0.975  0.00  0.00    -0.275 OA
ATOM     30  H   UNL     1       5.104  -1.412   1.470  0.00  0.00    +0.149 HD
BRANCH  27  31
ATOM     31  C   UNL     1       4.545  -0.555  -0.390  0.00  0.00    +0.178 C 
BRANCH  31  34
ATOM     32  C   UNL     1       3.100  -3.849  -1.196  0.00  0.00    +0.041 A 
ATOM     33  C   UNL     1       2.989  -2.544  -0.663  0.00  0.00    +0.046 A 
ATOM     34  C   UNL     1       4.189  -1.957  -0.814  0.00  0.00    +0.122 A 
ATOM     35  O   UNL     1       5.018  -2.832  -1.407  0.00  0.00    -0.466 OA
ATOM     36  C   UNL     1       4.363  -3.981  -1.641  0.00  0.00    +0.195 A 
ENDBRANCH  31  34
ENDBRANCH  27  31
ENDBRANCH   1  28
TORSDOF 5
