REMARK  Name = ZINC15675925
REMARK  10 active torsions:
REMARK  status: ('A' for Active; 'I' for Inactive)
REMARK    1  A    between atoms: C_1  and  C_2
REMARK    2  A    between atoms: C_2  and  C_3
REMARK    3  A    between atoms: C_9  and  C_10
REMARK    4  A    between atoms: C_9  and  N_80
REMARK    5  A    between atoms: C_10  and  C_11
REMARK    6  A    between atoms: C_11  and  N_12
REMARK    7  A    between atoms: C_21  and  C_22
REMARK    8  A    between atoms: C_21  and  C_23
REMARK    9  A    between atoms: N_25  and  C_26
REMARK   10  A    between atoms: C_34  and  C_36
REMARK                            x       y       z     vdW  Elec       q    Type
REMARK                         _______ _______ _______ _____ _____    ______ ____
ROOT
ATOM      1  N   UNL     1      -1.390   0.413   3.640  0.00  0.00    -0.281 N 
ATOM      2  C   UNL     1      -2.427  -0.438   3.822  0.00  0.00    +0.264 C 
ATOM      3  O   UNL     1      -2.537  -1.463   3.175  0.00  0.00    -0.268 OA
ATOM      4  C   UNL     1      -3.413  -0.058   4.842  0.00  0.00    +0.109 A 
ATOM      5  C   UNL     1      -4.451  -0.759   5.380  0.00  0.00    +0.079 A 
ATOM      6  C   UNL     1      -5.075   0.070   6.324  0.00  0.00    +0.154 A 
ATOM      7  C   UNL     1      -4.399   1.290   6.327  0.00  0.00    +0.088 A 
ATOM      8  N   UNL     1      -3.394   1.214   5.410  0.00  0.00    -0.331 N 
ATOM      9  C   UNL     1      -2.413   2.223   5.000  0.00  0.00    +0.157 C 
ATOM     10  C   UNL     1      -1.128   1.518   4.555  0.00  0.00    +0.128 C 
ATOM     11  C   UNL     1      -0.223   2.535   3.857  0.00  0.00    +0.043 C 
ATOM     12  C   UNL     1      -5.051   2.098   7.289  0.00  0.00    +0.071 A 
ATOM     13  C   UNL     1      -6.056   1.370   7.806  0.00  0.00    +0.105 A 
ATOM     14  O   UNL     1      -6.074   0.157   7.229  0.00  0.00    -0.458 OA
ATOM     15  C   UNL     1      -7.014   1.842   8.870  0.00  0.00    +0.086 C 
ENDROOT
BRANCH  10  16
ATOM     16  C   UNL     1      -0.413   0.986   5.770  0.00  0.00    +0.238 C 
ATOM     17  O   UNL     1       0.429   1.662   6.322  0.00  0.00    -0.273 OA
ATOM     18  N   UNL     1      -0.708  -0.242   6.242  0.00  0.00    -0.311 N 
ATOM     19  H   UNL     1      -1.381  -0.782   5.800  0.00  0.00    +0.149 HD
BRANCH  18  20
ATOM     20  C   UNL     1      -0.012  -0.759   7.423  0.00  0.00    +0.073 C 
ATOM     21  C   UNL     1       1.333  -1.372   6.981  0.00  0.00    +0.022 C 
ATOM     22  C   UNL     1       2.246  -1.429   8.177  0.00  0.00    +0.002 C 
ATOM     23  C   UNL     1       2.190  -2.791   8.895  0.00  0.00    +0.000 C 
ATOM     24  C   UNL     1       0.757  -3.343   9.017  0.00  0.00    +0.000 C 
ATOM     25  C   UNL     1      -0.241  -2.279   9.384  0.00  0.00    +0.002 C 
ATOM     26  C   UNL     1      -0.870  -1.729   8.088  0.00  0.00    +0.022 C 
ENDBRANCH  18  20
ENDBRANCH  10  16
BRANCH   1  27
ATOM     27  C   UNL     1      -0.501   0.214   2.493  0.00  0.00    +0.107 C 
BRANCH  27  28
ATOM     28  C   UNL     1      -1.034   1.000   1.293  0.00  0.00    +0.000 C 
BRANCH  28  29
ATOM     29  C   UNL     1      -0.105   0.793   0.095  0.00  0.00    -0.077 C 
BRANCH  29  35
ATOM     30  C   UNL     1       0.303   1.453  -2.198  0.00  0.00    -0.069 C 
ATOM     31  C   UNL     1      -0.327   2.125  -3.420  0.00  0.00    -0.015 C 
ATOM     32  C   UNL     1      -0.619   3.593  -3.095  0.00  0.00    -0.003 C 
ATOM     33  C   UNL     1      -1.541   3.663  -1.875  0.00  0.00    -0.019 C 
ATOM     34  C   UNL     1      -0.875   2.947  -0.697  0.00  0.00    -0.078 C 
ATOM     35  N   UNL     1      -0.643   1.534  -1.065  0.00  0.00    +0.382 N 
ATOM     36  H   UNL     1      -1.536   1.112  -1.346  0.00  0.00    -0.081 HD
BRANCH  30  38
ATOM     37  C   UNL     1       1.637  -0.117  -3.612  0.00  0.00    +0.002 C 
ATOM     38  C   UNL     1       0.579  -0.019  -2.511  0.00  0.00    -0.019 C 
ENDBRANCH  30  38
ENDBRANCH  29  35
ENDBRANCH  28  29
ENDBRANCH  27  28
ENDBRANCH   1  27
TORSDOF 7
