REMARK  Name = ZINC08816384
REMARK  7 active torsions:
REMARK  status: ('A' for Active; 'I' for Inactive)
REMARK    1  A    between atoms: C_1  and  C_2
REMARK    2  A    between atoms: C_5  and  N_8
REMARK    3  A    between atoms: C_9  and  C_11
REMARK    4  A    between atoms: C_11  and  N_12
REMARK    5  A    between atoms: C_16  and  C_17
REMARK    6  A    between atoms: C_20  and  S_22
REMARK    7  A    between atoms: S_22  and  C_23
REMARK                            x       y       z     vdW  Elec       q    Type
REMARK                         _______ _______ _______ _____ _____    ______ ____
ROOT
ATOM      1  N   UNL     1      -5.078   1.554  -0.283  0.00  0.00    -0.212 N 
ATOM      2  C   UNL     1      -5.759   1.282  -1.414  0.00  0.00    +0.269 C 
ATOM      3  O   UNL     1      -5.337   1.380  -2.553  0.00  0.00    -0.268 OA
ATOM      4  C   UNL     1      -7.054   0.860  -1.030  0.00  0.00    +0.101 C 
ATOM      5  C   UNL     1      -8.083   0.480  -1.865  0.00  0.00    +0.075 C 
ATOM      6  N   UNL     1      -7.080   0.914   0.371  0.00  0.00    -0.265 N 
ATOM      7  C   UNL     1      -5.869   1.336   0.781  0.00  0.00    +0.314 C 
ATOM      8  O   UNL     1      -5.540   1.498   1.941  0.00  0.00    -0.252 OA
ATOM      9  H   UNL     1      -7.832   0.688   0.941  0.00  0.00    +0.157 HD
ENDROOT
BRANCH   5  10
ATOM     10  C   UNL     1      -7.973   0.678  -3.253  0.00  0.00    +0.131 A 
ATOM     11  C   UNL     1      -8.863   0.227  -4.214  0.00  0.00    +0.050 A 
ATOM     12  C   UNL     1      -8.367   0.647  -5.449  0.00  0.00    +0.057 A 
ATOM     13  C   UNL     1      -7.209   1.331  -5.208  0.00  0.00    +0.167 A 
ATOM     14  O   UNL     1      -6.984   1.349  -3.885  0.00  0.00    -0.449 OA
BRANCH  13  15
ATOM     15  S   UNL     1      -6.183   2.072  -6.434  0.00  0.00    -0.052 S 
BRANCH  15  16
ATOM     16  C   UNL     1      -5.000   0.786  -6.662  0.00  0.00    +0.016 A 
ATOM     17  C   UNL     1      -5.161  -0.431  -6.010  0.00  0.00    +0.016 A 
ATOM     18  C   UNL     1      -4.235  -1.439  -6.195  0.00  0.00    +0.021 A 
ATOM     19  C   UNL     1      -3.143  -1.234  -7.020  0.00  0.00    +0.041 A 
ATOM     20  C   UNL     1      -2.978  -0.021  -7.666  0.00  0.00    +0.021 A 
ATOM     21  C   UNL     1      -3.902   0.988  -7.489  0.00  0.00    +0.016 A 
ATOM     22 CL   UNL     1      -1.977  -2.501  -7.244  0.00  0.00    -0.084 Cl
ENDBRANCH  15  16
ENDBRANCH  13  15
ENDBRANCH   5  10
BRANCH   1  23
ATOM     23  C   UNL     1      -3.691   2.020  -0.224  0.00  0.00    +0.214 C 
BRANCH  23  25
ATOM     24  N   UNL     1      -1.429   1.021  -0.143  0.00  0.00    -0.284 N 
ATOM     25  C   UNL     1      -2.763   0.833  -0.198  0.00  0.00    +0.235 C 
ATOM     26  O   UNL     1      -3.216  -0.292  -0.226  0.00  0.00    -0.274 OA
ATOM     27  H   UNL     1      -1.070   1.916  -0.038  0.00  0.00    +0.155 HD
BRANCH  24  32
ATOM     28  C   UNL     1       2.081  -3.420  -0.522  0.00  0.00    +0.044 C 
ATOM     29  C   UNL     1       1.148  -2.240  -0.421  0.00  0.00    -0.050 A 
ATOM     30  C   UNL     1       1.478  -1.167   0.386  0.00  0.00    +0.005 A 
ATOM     31  C   UNL     1       0.624  -0.086   0.484  0.00  0.00    +0.023 A 
ATOM     32  C   UNL     1      -0.564  -0.074  -0.236  0.00  0.00    +0.033 A 
ATOM     33  C   UNL     1      -0.892  -1.154  -1.046  0.00  0.00    +0.023 A 
ATOM     34  C   UNL     1      -0.035  -2.233  -1.136  0.00  0.00    +0.005 A 
ENDBRANCH  24  32
ENDBRANCH  23  25
ENDBRANCH   1  23
TORSDOF 6
