REMARK  Name = ZINC15018579
REMARK  10 active torsions:
REMARK  status: ('A' for Active; 'I' for Inactive)
REMARK    1  A    between atoms: C_1  and  C_2
REMARK    2  A    between atoms: C_5  and  N_9
REMARK    3  A    between atoms: C_6  and  C_8
REMARK    4  A    between atoms: C_15  and  C_16
REMARK    5  A    between atoms: C_19  and  O_22
REMARK    6  A    between atoms: O_22  and  C_23
REMARK    7  A    between atoms: C_23  and  C_24
REMARK    8  A    between atoms: N_26  and  C_27
REMARK    9  A    between atoms: C_30  and  C_34
REMARK   10  A    between atoms: C_31  and  C_33
REMARK                            x       y       z     vdW  Elec       q    Type
REMARK                         _______ _______ _______ _____ _____    ______ ____
ROOT
ATOM      1  C   UNL     1      -9.998   4.045  -1.225  0.00  0.00    -0.024 A 
ATOM      2  C   UNL     1      -9.934   2.664  -1.007  0.00  0.00    +0.011 A 
ATOM      3  C   UNL     1      -8.738   2.000  -1.161  0.00  0.00    +0.046 A 
ATOM      4  C   UNL     1      -7.596   2.698  -1.533  0.00  0.00    +0.121 A 
ATOM      5  C   UNL     1      -7.652   4.070  -1.746  0.00  0.00    +0.046 A 
ATOM      6  C   UNL     1      -8.844   4.744  -1.600  0.00  0.00    +0.011 A 
ENDROOT
BRANCH   1  13
ATOM      7  N   UNL     1     -14.639   1.882   1.897  0.00  0.00    -0.225 NA
ATOM      8  C   UNL     1     -13.995   2.736   1.132  0.00  0.00    +0.166 C 
ATOM      9  N   UNL     1     -14.473   3.884   0.539  0.00  0.00    -0.260 N 
ATOM     10  C   UNL     1     -13.681   4.640  -0.202  0.00  0.00    +0.256 C 
ATOM     11  O   UNL     1     -14.085   5.660  -0.729  0.00  0.00    -0.269 OA
ATOM     12  C   UNL     1     -12.285   4.188  -0.365  0.00  0.00    +0.078 C 
ATOM     13  C   UNL     1     -11.271   4.759  -1.063  0.00  0.00    +0.028 C 
ATOM     14  S   UNL     1     -12.288   2.691   0.611  0.00  0.00    -0.049 S 
ATOM     15  H   UNL     1     -15.399   4.142   0.669  0.00  0.00    +0.157 HD
BRANCH   7  20
ATOM     16  C   UNL     1     -11.910  -2.533   4.117  0.00  0.00    +0.044 C 
ATOM     17  C   UNL     1     -12.638  -1.354   3.524  0.00  0.00    -0.050 A 
ATOM     18  C   UNL     1     -12.125  -0.078   3.680  0.00  0.00    +0.005 A 
ATOM     19  C   UNL     1     -12.787   1.005   3.140  0.00  0.00    +0.028 A 
ATOM     20  C   UNL     1     -13.977   0.812   2.435  0.00  0.00    +0.069 A 
ATOM     21  C   UNL     1     -14.492  -0.478   2.287  0.00  0.00    -0.025 A 
ATOM     22  C   UNL     1     -13.816  -1.553   2.827  0.00  0.00    +0.008 A 
ATOM     23  C   UNL     1     -15.779  -0.696   1.534  0.00  0.00    +0.046 C 
ENDBRANCH   7  20
ENDBRANCH   1  13
BRANCH   4  24
ATOM     24  O   UNL     1      -6.419   2.038  -1.684  0.00  0.00    -0.483 OA
BRANCH  24  25
ATOM     25  C   UNL     1      -5.283   2.815  -2.068  0.00  0.00    +0.324 C 
BRANCH  25  26
ATOM     26  C   UNL     1      -4.077   1.919  -2.186  0.00  0.00    +0.255 C 
ATOM     27  O   UNL     1      -4.180   0.732  -1.963  0.00  0.00    -0.272 OA
ATOM     28  N   UNL     1      -2.884   2.438  -2.539  0.00  0.00    -0.283 N 
ATOM     29  H   UNL     1      -2.787   3.396  -2.655  0.00  0.00    +0.155 HD
BRANCH  28  30
ATOM     30  C   UNL     1      -1.786   1.594  -2.740  0.00  0.00    +0.034 A 
ATOM     31  C   UNL     1      -1.963   0.351  -3.333  0.00  0.00    +0.023 A 
ATOM     32  C   UNL     1      -0.878  -0.482  -3.524  0.00  0.00    +0.005 A 
ATOM     33  C   UNL     1       0.385  -0.075  -3.135  0.00  0.00    -0.047 A 
ATOM     34  C   UNL     1       0.565   1.165  -2.550  0.00  0.00    -0.046 A 
ATOM     35  C   UNL     1      -0.517   2.000  -2.351  0.00  0.00    +0.027 A 
ATOM     36  C   UNL     1       1.944   1.605  -2.128  0.00  0.00    +0.044 C 
ATOM     37  C   UNL     1       1.567  -0.984  -3.350  0.00  0.00    +0.044 C 
ENDBRANCH  28  30
ENDBRANCH  25  26
ENDBRANCH  24  25
ENDBRANCH   4  24
TORSDOF 6
