REMARK  Name = ZINC14461578
REMARK  7 active torsions:
REMARK  status: ('A' for Active; 'I' for Inactive)
REMARK    1  A    between atoms: C_1  and  C_2
REMARK    2  A    between atoms: C_2  and  N_3
REMARK    3  A    between atoms: N_3  and  C_4
REMARK    4  A    between atoms: N_3  and  C_6
REMARK    5  A    between atoms: C_4  and  C_5
REMARK    6  A    between atoms: C_9  and  C_12
REMARK    7  A    between atoms: C_25  and  N_28
REMARK                            x       y       z     vdW  Elec       q    Type
REMARK                         _______ _______ _______ _____ _____    ______ ____
ROOT
ATOM      1  C   UNL     1      -0.999  -7.157   0.866  0.00  0.00    +0.105 C 
ATOM      2  C   UNL     1      -0.247  -7.504   2.138  0.00  0.00    +0.029 C 
ATOM      3  C   UNL     1       1.262  -7.224   2.159  0.00  0.00    +0.033 C 
ATOM      4  C   UNL     1       1.505  -6.958   3.646  0.00  0.00    -0.030 C 
ATOM      5  C   UNL     1       0.389  -6.520   4.217  0.00  0.00    -0.023 C 
ATOM      6  C   UNL     1      -0.692  -6.441   3.187  0.00  0.00    +0.049 C 
ATOM      7  C   UNL     1      -2.118  -6.680   3.497  0.00  0.00    -0.017 A 
ATOM      8  C   UNL     1      -2.646  -6.481   4.754  0.00  0.00    +0.006 A 
ATOM      9  C   UNL     1      -3.989  -6.706   4.990  0.00  0.00    +0.003 A 
ATOM     10  C   UNL     1      -4.810  -7.132   3.962  0.00  0.00    +0.034 A 
ATOM     11  C   UNL     1      -4.290  -7.340   2.701  0.00  0.00    +0.147 A 
ATOM     12  C   UNL     1      -2.940  -7.123   2.454  0.00  0.00    +0.062 A 
ATOM     13  N   UNL     1      -2.429  -7.376   1.172  0.00  0.00    -0.335 N 
ATOM     14  H   UNL     1      -3.021  -7.700   0.476  0.00  0.00    +0.147 HD
ENDROOT
BRANCH   1  18
ATOM     15  C   UNL     1      -0.324  -3.070  -0.180  0.00  0.00    +0.013 A 
ATOM     16  C   UNL     1       0.536  -4.051  -0.636  0.00  0.00    +0.022 A 
ATOM     17  C   UNL     1       0.318  -5.374  -0.298  0.00  0.00    +0.007 A 
ATOM     18  C   UNL     1      -0.760  -5.715   0.497  0.00  0.00    -0.027 A 
ATOM     19  C   UNL     1      -1.620  -4.733   0.955  0.00  0.00    +0.007 A 
ATOM     20  C   UNL     1      -1.399  -3.410   0.620  0.00  0.00    +0.022 A 
BRANCH  15  21
ATOM     21  N   UNL     1      -0.103  -1.733  -0.522  0.00  0.00    -0.394 NA
ATOM     22  H   UNL     1      -0.818  -1.156  -0.104  0.00  0.00    +0.126 HD
BRANCH  21  24
ATOM     23  C   UNL     1       1.210  -1.304   1.499  0.00  0.00    +0.022 C 
ATOM     24  C   UNL     1       1.215  -1.312  -0.031  0.00  0.00    +0.081 C 
ENDBRANCH  21  24
BRANCH  21  25
ATOM     25  C   UNL     1      -0.151  -1.587  -1.983  0.00  0.00    +0.081 C 
ATOM     26  C   UNL     1      -1.570  -1.873  -2.479  0.00  0.00    +0.022 C 
ENDBRANCH  21  25
ENDBRANCH  15  21
ENDBRANCH   1  18
BRANCH  11  27
ATOM     27  N   UNL     1      -5.175  -7.795   1.606  0.00  0.00    +0.058 N 
ATOM     28  O   UNL     1      -5.025  -7.362   0.487  0.00  0.00    -0.126 OA
ATOM     29  O   UNL     1      -6.049  -8.601   1.830  0.00  0.00    -0.126 OA
ENDBRANCH  11  27
TORSDOF 5
