REMARK  Name = ZINC00718068
REMARK  5 active torsions:
REMARK  status: ('A' for Active; 'I' for Inactive)
REMARK    1  A    between atoms: C_1  and  O_2
REMARK    2  A    between atoms: O_2  and  C_3
REMARK    3  A    between atoms: C_6  and  C_10
REMARK    4  A    between atoms: C_8  and  O_9
REMARK    5  A    between atoms: C_15  and  C_20
REMARK                            x       y       z     vdW  Elec       q    Type
REMARK                         _______ _______ _______ _____ _____    ______ ____
ROOT
ATOM      1  C   UNL     1       5.761  -1.742   0.011  0.00  0.00    +0.136 C 
ATOM      2  C   UNL     1       4.503  -0.909   0.082  0.00  0.00    +0.036 C 
ATOM      3  C   UNL     1       3.798  -0.454  -0.967  0.00  0.00    +0.017 C 
ATOM      4  C   UNL     1       2.531   0.358  -0.749  0.00  0.00    +0.059 C 
ATOM      5  C   UNL     1       2.659   1.190   0.526  0.00  0.00    +0.033 C 
ATOM      6  C   UNL     1       2.877   0.222   1.695  0.00  0.00    +0.088 C 
ATOM      7  C   UNL     1       4.085  -0.617   1.402  0.00  0.00    +0.163 C 
ATOM      8  O   UNL     1       4.729  -1.062   2.332  0.00  0.00    -0.292 OA
ATOM      9  N   UNL     1       4.122  -0.660  -2.268  0.00  0.00    -0.316 N 
ATOM     10  C   UNL     1       4.491  -1.887  -2.808  0.00  0.00    +0.052 A 
ATOM     11  C   UNL     1       3.755  -2.507  -3.803  0.00  0.00    +0.025 A 
ATOM     12  C   UNL     1       4.235  -3.673  -4.375  0.00  0.00    +0.002 A 
ATOM     13  C   UNL     1       5.436  -4.213  -3.954  0.00  0.00    +0.002 A 
ATOM     14  C   UNL     1       6.163  -3.606  -2.945  0.00  0.00    +0.025 A 
ATOM     15  C   UNL     1       5.677  -2.447  -2.359  0.00  0.00    +0.049 A 
ATOM     16  N   UNL     1       6.350  -1.825  -1.309  0.00  0.00    -0.331 N 
ATOM     17  H   UNL     1       4.094   0.104  -2.865  0.00  0.00    +0.152 HD
ATOM     18  H   UNL     1       7.227  -1.442  -1.465  0.00  0.00    +0.147 HD
ENDROOT
BRANCH   5  19
ATOM     19  C   UNL     1       1.397   1.982   0.747  0.00  0.00    -0.025 A 
ATOM     20  C   UNL     1       0.189   1.329   0.901  0.00  0.00    +0.005 A 
ATOM     21  C   UNL     1      -0.970   2.056   1.099  0.00  0.00    +0.000 A 
ATOM     22  C   UNL     1      -0.920   3.437   1.155  0.00  0.00    +0.001 A 
ATOM     23  C   UNL     1       0.288   4.091   1.001  0.00  0.00    +0.020 A 
ATOM     24  C   UNL     1       1.447   3.364   0.797  0.00  0.00    +0.044 A 
ATOM     25 CL   UNL     1       2.964   4.185   0.604  0.00  0.00    -0.083 Cl
ENDBRANCH   5  19
BRANCH   1  29
ATOM     26  C   UNL     1       4.838  -5.702   1.335  0.00  0.00    +0.161 A 
ATOM     27  C   UNL     1       4.240  -5.193   0.194  0.00  0.00    +0.050 A 
ATOM     28  C   UNL     1       4.537  -3.911  -0.229  0.00  0.00    +0.009 A 
ATOM     29  C   UNL     1       5.437  -3.137   0.479  0.00  0.00    -0.019 A 
ATOM     30  C   UNL     1       6.037  -3.639   1.619  0.00  0.00    +0.055 A 
ATOM     31  C   UNL     1       5.740  -4.921   2.051  0.00  0.00    +0.159 A 
BRANCH  26  33
ATOM     32  C   UNL     1       3.609  -7.705   0.971  0.00  0.00    +0.277 C 
ATOM     33  O   UNL     1       4.544  -6.962   1.755  0.00  0.00    -0.491 OA
ENDBRANCH  26  33
BRANCH  31  34
ATOM     34  O   UNL     1       6.330  -5.416   3.173  0.00  0.00    -0.503 OA
ATOM     35  H   UNL     1       5.836  -5.241   3.986  0.00  0.00    +0.292 HD
ENDBRANCH  31  34
ENDBRANCH   1  29
TORSDOF 4
