REMARK  Name = ZINC36206608
REMARK  16 active torsions:
REMARK  status: ('A' for Active; 'I' for Inactive)
REMARK    1  A    between atoms: C_1  and  C_2
REMARK    2  A    between atoms: C_2  and  C_3
REMARK    3  A    between atoms: C_2  and  C_4
REMARK    4  A    between atoms: C_4  and  O_5
REMARK    5  A    between atoms: O_5  and  C_6
REMARK    6  A    between atoms: C_6  and  C_7
REMARK    7  A    between atoms: C_7  and  C_9
REMARK    8  A    between atoms: C_7  and  O_34
REMARK    9  A    between atoms: C_9  and  N_10
REMARK   10  A    between atoms: N_10  and  C_11
REMARK   11  A    between atoms: N_10  and  C_14
REMARK   12  A    between atoms: C_11  and  C_12
REMARK   13  A    between atoms: C_14  and  C_15
REMARK   14  A    between atoms: C_21  and  C_26
REMARK   15  A    between atoms: C_31  and  O_32
REMARK   16  A    between atoms: O_32  and  C_33
REMARK                            x       y       z     vdW  Elec       q    Type
REMARK                         _______ _______ _______ _____ _____    ______ ____
ROOT
ATOM      1  C   UNL     1       1.089   0.504   8.702  0.00  0.00    +0.094 A 
ATOM      2  N   UNL     1       1.750   0.414   9.884  0.00  0.00    -0.312 N 
ATOM      3  H   UNL     1       1.513  -0.288  10.509  0.00  0.00    +0.170 HD
ATOM      4  C   UNL     1       2.729   1.281  10.206  0.00  0.00    +0.260 A 
ATOM      5  O   UNL     1       3.313   1.186  11.271  0.00  0.00    -0.267 OA
ATOM      6  C   UNL     1       3.073   2.314   9.278  0.00  0.00    +0.080 A 
ATOM      7  C   UNL     1       4.083   3.360   9.393  0.00  0.00    +0.007 A 
ATOM      8  C   UNL     1       4.231   4.239   8.373  0.00  0.00    +0.056 A 
ATOM      9  S   UNL     1       3.009   3.706   7.189  0.00  0.00    -0.076 S 
ATOM     10  C   UNL     1       2.335   2.329   8.082  0.00  0.00    +0.116 A 
ATOM     11  N   UNL     1       1.383   1.434   7.833  0.00  0.00    -0.229 NA
ENDROOT
BRANCH   7  12
ATOM     12  C   UNL     1       4.932   3.459  10.604  0.00  0.00    +0.025 A 
ATOM     13  C   UNL     1       4.829   4.568  11.442  0.00  0.00    +0.012 A 
ATOM     14  C   UNL     1       5.621   4.655  12.569  0.00  0.00    +0.001 A 
ATOM     15  C   UNL     1       6.518   3.645  12.870  0.00  0.00    +0.004 A 
ATOM     16  C   UNL     1       6.628   2.541  12.046  0.00  0.00    +0.046 A 
ATOM     17  C   UNL     1       5.835   2.437  10.915  0.00  0.00    +0.128 A 
BRANCH  17  18
ATOM     18  O   UNL     1       5.938   1.349  10.107  0.00  0.00    -0.495 OA
ATOM     19  C   UNL     1       6.882   0.346  10.488  0.00  0.00    +0.277 C 
ENDBRANCH  17  18
ENDBRANCH   7  12
BRANCH   1  20
ATOM     20  C   UNL     1       0.000  -0.488   8.385  0.00  0.00    -0.003 C 
BRANCH  20  21
ATOM     21  N   UNL     1      -0.467  -0.279   7.008  0.00  0.00    +0.388 N 
ATOM     22  H   UNL     1      -0.726   0.688   6.884  0.00  0.00    -0.081 HD
BRANCH  21  23
ATOM     23  C   UNL     1       0.609  -0.623   6.068  0.00  0.00    -0.044 C 
BRANCH  23  24
ATOM     24  C   UNL     1       0.167  -0.288   4.642  0.00  0.00    +0.124 C 
BRANCH  24  25
ATOM     25  O   UNL     1      -0.007   1.125   4.517  0.00  0.00    -0.391 OA
ATOM     26  H   UNL     1       0.793   1.637   4.696  0.00  0.00    +0.210 HD
ENDBRANCH  24  25
BRANCH  24  27
ATOM     27  C   UNL     1       1.234  -0.760   3.653  0.00  0.00    +0.189 C 
BRANCH  27  28
ATOM     28  O   UNL     1       0.771  -0.553   2.317  0.00  0.00    -0.377 OA
BRANCH  28  29
ATOM     29  C   UNL     1       1.698  -0.962   1.310  0.00  0.00    +0.163 C 
BRANCH  29  31
ATOM     30  C   UNL     1       0.927   0.811  -0.271  0.00  0.00    +0.009 C 
ATOM     31  C   UNL     1       1.101  -0.696  -0.072  0.00  0.00    +0.009 C 
ATOM     32  C   UNL     1       2.038  -1.247  -1.148  0.00  0.00    +0.009 C 
ENDBRANCH  29  31
ENDBRANCH  28  29
ENDBRANCH  27  28
ENDBRANCH  24  27
ENDBRANCH  23  24
ENDBRANCH  21  23
BRANCH  21  33
ATOM     33  C   UNL     1      -1.633  -1.135   6.751  0.00  0.00    -0.051 C 
BRANCH  33  34
ATOM     34  C   UNL     1      -2.783  -0.689   7.617  0.00  0.00    -0.053 C 
ATOM     35  C   UNL     1      -3.937  -0.394   7.072  0.00  0.00    +0.002 C 
ENDBRANCH  33  34
ENDBRANCH  21  33
ENDBRANCH  20  21
ENDBRANCH   1  20
TORSDOF 13
