REMARK  Name = ZINC06824325
REMARK  6 active torsions:
REMARK  status: ('A' for Active; 'I' for Inactive)
REMARK    1  A    between atoms: C_1  and  C_2
REMARK    2  A    between atoms: C_4  and  C_13
REMARK    3  A    between atoms: C_14  and  C_15
REMARK    4  A    between atoms: C_14  and  N_19
REMARK    5  A    between atoms: N_17  and  C_18
REMARK    6  A    between atoms: C_20  and  C_22
REMARK                            x       y       z     vdW  Elec       q    Type
REMARK                         _______ _______ _______ _____ _____    ______ ____
ROOT
ATOM      1  C   UNL     1      -0.056  -0.885  -2.418  0.00  0.00    +0.035 C 
ATOM      2  C   UNL     1      -1.400  -0.667  -2.389  0.00  0.00    +0.096 C 
ENDROOT
BRANCH   1   5
ATOM      3  C   UNL     1       3.151  -0.940  -1.547  0.00  0.00    +0.057 C 
ATOM      4  C   UNL     1       1.984  -0.011  -1.207  0.00  0.00    +0.201 C 
ATOM      5  C   UNL     1       0.699  -0.796  -1.231  0.00  0.00    -0.005 C 
ATOM      6  C   UNL     1       0.270  -1.419  -0.100  0.00  0.00    +0.018 C 
ATOM      7  C   UNL     1       1.086  -1.275   1.115  0.00  0.00    +0.017 A 
ATOM      8  C   UNL     1       0.920  -2.124   2.208  0.00  0.00    +0.011 A 
ATOM      9  C   UNL     1       1.708  -1.954   3.328  0.00  0.00    +0.001 A 
ATOM     10  C   UNL     1       2.659  -0.947   3.367  0.00  0.00    +0.004 A 
ATOM     11  C   UNL     1       2.833  -0.098   2.288  0.00  0.00    +0.046 A 
ATOM     12  C   UNL     1       2.052  -0.254   1.157  0.00  0.00    +0.128 A 
ATOM     13  O   UNL     1       2.194   0.558   0.086  0.00  0.00    -0.484 OA
ENDBRANCH   1   5
BRANCH   2  14
ATOM     14  C   UNL     1      -2.205  -0.889  -3.593  0.00  0.00    +0.258 C 
ATOM     15  O   UNL     1      -3.385  -0.591  -3.600  0.00  0.00    -0.269 OA
ATOM     16  N   UNL     1      -1.639  -1.424  -4.693  0.00  0.00    -0.313 N 
ATOM     17  C   UNL     1      -2.444  -1.646  -5.897  0.00  0.00    +0.128 C 
ATOM     18  H   UNL     1      -0.698  -1.662  -4.688  0.00  0.00    +0.149 HD
ENDBRANCH   2  14
BRANCH   2  19
ATOM     19  N   UNL     1      -2.012  -0.232  -1.209  0.00  0.00    -0.277 N 
ATOM     20  C   UNL     1      -3.014  -0.950  -0.665  0.00  0.00    +0.248 C 
ATOM     21  O   UNL     1      -3.327  -2.020  -1.150  0.00  0.00    -0.270 OA
ATOM     22  H   UNL     1      -1.715   0.588  -0.783  0.00  0.00    +0.155 HD
BRANCH  20  23
ATOM     23  C   UNL     1      -3.731  -0.437   0.521  0.00  0.00    +0.037 A 
ATOM     24  C   UNL     1      -3.376   0.794   1.076  0.00  0.00    +0.014 A 
ATOM     25  C   UNL     1      -4.049   1.267   2.183  0.00  0.00    +0.021 A 
ATOM     26  C   UNL     1      -5.074   0.524   2.744  0.00  0.00    +0.041 A 
ATOM     27  C   UNL     1      -5.430  -0.698   2.198  0.00  0.00    +0.021 A 
ATOM     28  C   UNL     1      -4.769  -1.179   1.087  0.00  0.00    +0.014 A 
ATOM     29 CL   UNL     1      -5.916   1.126   4.137  0.00  0.00    -0.084 Cl
ENDBRANCH  20  23
ENDBRANCH   2  19
TORSDOF 4
