REMARK  Name = ZINC35564813
REMARK  8 active torsions:
REMARK  status: ('A' for Active; 'I' for Inactive)
REMARK    1  A    between atoms: C_1  and  O_2
REMARK    2  A    between atoms: O_2  and  C_3
REMARK    3  A    between atoms: C_7  and  C_11
REMARK    4  A    between atoms: C_8  and  O_9
REMARK    5  A    between atoms: O_9  and  C_10
REMARK    6  A    between atoms: C_11  and  N_12
REMARK    7  A    between atoms: C_25  and  C_27
REMARK    8  A    between atoms: C_27  and  N_28
REMARK                            x       y       z     vdW  Elec       q    Type
REMARK                         _______ _______ _______ _____ _____    ______ ____
ROOT
ATOM      1  N   UNL     1       2.433  -4.659   1.240  0.00  0.00    +0.384 N 
ATOM      2  C   UNL     1       2.376  -6.119   1.225  0.00  0.00    -0.077 C 
ATOM      3  C   UNL     1       2.773  -6.620  -0.145  0.00  0.00    +0.000 C 
ATOM      4  C   UNL     1       4.281  -6.931  -0.160  0.00  0.00    +0.106 C 
ATOM      5  N   UNL     1       5.040  -5.914   0.595  0.00  0.00    -0.303 N 
ATOM      6  C   UNL     1       4.742  -4.499   0.504  0.00  0.00    +0.089 C 
ATOM      7  C   UNL     1       3.693  -4.115   1.574  0.00  0.00    -0.059 C 
ATOM      8  C   UNL     1       6.063  -6.322   1.408  0.00  0.00    +0.198 A 
ATOM      9  N   UNL     1       6.693  -5.411   2.197  0.00  0.00    -0.295 N 
ATOM     10  H   UNL     1       6.419  -4.481   2.182  0.00  0.00    +0.172 HD
ATOM     11  C   UNL     1       7.703  -5.806   3.003  0.00  0.00    +0.253 A 
ATOM     12  O   UNL     1       8.279  -5.002   3.717  0.00  0.00    -0.268 OA
ATOM     13  C   UNL     1       8.076  -7.162   3.002  0.00  0.00    +0.094 A 
ATOM     14  C   UNL     1       7.407  -8.030   2.190  0.00  0.00    +0.064 A 
ATOM     15  N   UNL     1       6.416  -7.592   1.417  0.00  0.00    -0.219 NA
ATOM     16  H   UNL     1       2.174  -4.323   0.324  0.00  0.00    -0.081 HD
ENDROOT
BRANCH   1  17
ATOM     17  C   UNL     1       1.444  -4.166   2.208  0.00  0.00    -0.039 C 
BRANCH  17  22
ATOM     18  C   UNL     1       0.430  -0.793   0.821  0.00  0.00    +0.162 A 
ATOM     19  C   UNL     1       0.989   0.064   1.755  0.00  0.00    +0.049 A 
ATOM     20  C   UNL     1       1.691  -0.449   2.830  0.00  0.00    +0.004 A 
ATOM     21  C   UNL     1       1.837  -1.816   2.975  0.00  0.00    +0.005 A 
ATOM     22  C   UNL     1       1.282  -2.676   2.046  0.00  0.00    -0.019 A 
ATOM     23  C   UNL     1       0.572  -2.169   0.970  0.00  0.00    +0.163 A 
BRANCH  18  25
ATOM     24  C   UNL     1      -0.367   1.132  -0.326  0.00  0.00    +0.277 C 
ATOM     25  O   UNL     1      -0.262  -0.290  -0.237  0.00  0.00    -0.491 OA
ENDBRANCH  18  25
BRANCH  23  26
ATOM     26  O   UNL     1       0.020  -3.014   0.059  0.00  0.00    -0.491 OA
ATOM     27  C   UNL     1      -1.352  -3.366   0.248  0.00  0.00    +0.277 C 
ENDBRANCH  23  26
ENDBRANCH  17  22
ENDBRANCH   1  17
BRANCH  14  28
ATOM     28  C   UNL     1       7.788  -9.488   2.171  0.00  0.00    +0.140 C 
BRANCH  28  29
ATOM     29  N   UNL     1       6.673 -10.292   2.686  0.00  0.00    -0.292 NA
ATOM     30  C   UNL     1       7.080 -11.692   2.885  0.00  0.00    +0.090 C 
ATOM     31  C   UNL     1       6.026 -12.386   3.749  0.00  0.00    +0.051 C 
ATOM     32  C   UNL     1       4.652 -12.138   3.183  0.00  0.00    -0.042 A 
ATOM     33  C   UNL     1       3.609 -12.955   3.594  0.00  0.00    +0.004 A 
ATOM     34  C   UNL     1       2.334 -12.759   3.103  0.00  0.00    +0.000 A 
ATOM     35  C   UNL     1       2.095 -11.743   2.196  0.00  0.00    +0.000 A 
ATOM     36  C   UNL     1       3.132 -10.931   1.785  0.00  0.00    +0.005 A 
ATOM     37  C   UNL     1       4.415 -11.128   2.276  0.00  0.00    -0.030 A 
ATOM     38  C   UNL     1       5.515 -10.222   1.788  0.00  0.00    +0.120 C 
ENDBRANCH  28  29
ENDBRANCH  14  28
TORSDOF 6
