REMARK  Name = ZINC63328814
REMARK  7 active torsions:
REMARK  status: ('A' for Active; 'I' for Inactive)
REMARK    1  A    between atoms: C_1  and  C_2
REMARK    2  A    between atoms: C_2  and  C_4
REMARK    3  A    between atoms: C_2  and  N_12
REMARK    4  A    between atoms: C_21  and  C_23
REMARK    5  A    between atoms: C_23  and  C_24
REMARK    6  A    between atoms: C_24  and  C_25
REMARK    7  A    between atoms: C_25  and  C_26
REMARK                            x       y       z     vdW  Elec       q    Type
REMARK                         _______ _______ _______ _____ _____    ______ ____
ROOT
ATOM      1  N   UNL     1       2.745  -0.265   0.066  0.00  0.00    -0.288 N 
ATOM      2  C   UNL     1       2.054  -0.600   1.174  0.00  0.00    +0.303 C 
ATOM      3  O   UNL     1       0.853  -0.414   1.220  0.00  0.00    -0.253 OA
ATOM      4  N   UNL     1       2.694  -1.141   2.229  0.00  0.00    -0.283 N 
ATOM      5  C   UNL     1       1.939  -1.618   3.397  0.00  0.00    +0.128 C 
ATOM      6  C   UNL     1       2.307  -3.085   3.651  0.00  0.00    +0.127 C 
ATOM      7  N   UNL     1       3.771  -3.209   3.655  0.00  0.00    -0.298 N 
ATOM      8  C   UNL     1       4.526  -2.731   2.488  0.00  0.00    +0.127 C 
ATOM      9  C   UNL     1       4.158  -1.269   2.231  0.00  0.00    +0.128 C 
ATOM     10  C   UNL     1       4.411  -3.750   4.711  0.00  0.00    +0.216 C 
ATOM     11  O   UNL     1       3.778  -4.140   5.669  0.00  0.00    -0.276 OA
ATOM     12  H   UNL     1       3.712  -0.344   0.055  0.00  0.00    +0.151 HD
ENDROOT
BRANCH   1  14
ATOM     13  C   UNL     1       1.563  -0.974  -1.954  0.00  0.00    +0.038 C 
ATOM     14  C   UNL     1       2.036   0.219  -1.121  0.00  0.00    +0.158 C 
BRANCH  14  15
ATOM     15  C   UNL     1       2.964   1.072  -1.947  0.00  0.00    +0.239 C 
ATOM     16  O   UNL     1       4.105   1.258  -1.580  0.00  0.00    -0.273 OA
ATOM     17  N   UNL     1       2.526   1.629  -3.094  0.00  0.00    -0.263 N 
ATOM     18  C   UNL     1       3.381   2.417  -3.855  0.00  0.00    +0.164 A 
ATOM     19  N   UNL     1       4.639   2.720  -3.620  0.00  0.00    -0.233 NA
ATOM     20  C   UNL     1       5.323   3.488  -4.448  0.00  0.00    +0.120 A 
ATOM     21  C   UNL     1       4.670   3.944  -5.545  0.00  0.00    +0.068 A 
ATOM     22  S   UNL     1       3.061   3.207  -5.306  0.00  0.00    -0.061 S 
ATOM     23  H   UNL     1       1.613   1.481  -3.387  0.00  0.00    +0.157 HD
ENDBRANCH  14  15
ENDBRANCH   1  14
BRANCH  10  24
ATOM     24  C   UNL     1       5.913  -3.870   4.701  0.00  0.00    +0.096 C 
BRANCH  24  25
ATOM     25  C   UNL     1       6.382  -4.512   6.008  0.00  0.00    +0.014 C 
BRANCH  25  26
ATOM     26  C   UNL     1       7.907  -4.634   5.998  0.00  0.00    +0.033 C 
BRANCH  26  27
ATOM     27  C   UNL     1       8.369  -5.267   7.285  0.00  0.00    -0.042 C 
ATOM     28  C   UNL     1       8.632  -6.577   7.499  0.00  0.00    -0.001 A 
ATOM     29  C   UNL     1       8.568  -7.758   6.630  0.00  0.00    +0.010 A 
ATOM     30  C   UNL     1       8.899  -8.966   7.141  0.00  0.00    +0.001 A 
ATOM     31  C   UNL     1       9.300  -9.118   8.475  0.00  0.00    +0.002 A 
ATOM     32  C   UNL     1       9.383  -8.080   9.334  0.00  0.00    +0.026 A 
ATOM     33  C   UNL     1       9.059  -6.763   8.904  0.00  0.00    +0.043 A 
ATOM     34  N   UNL     1       9.060  -5.614   9.534  0.00  0.00    -0.380 N 
ATOM     35  C   UNL     1       8.639  -4.566   8.598  0.00  0.00    +0.144 C 
ATOM     36  H   UNL     1       9.302  -5.479  10.464  0.00  0.00    +0.160 HD
ENDBRANCH  26  27
ENDBRANCH  25  26
ENDBRANCH  24  25
ENDBRANCH  10  24
TORSDOF 6
