REMARK  Name = ZINC46623665
REMARK  4 active torsions:
REMARK  status: ('A' for Active; 'I' for Inactive)
REMARK    1  A    between atoms: C_3  and  C_8
REMARK    2  A    between atoms: C_10  and  C_13
REMARK    3  A    between atoms: N_15  and  N_16
REMARK    4  A    between atoms: C_17  and  C_19
REMARK                            x       y       z     vdW  Elec       q    Type
REMARK                         _______ _______ _______ _____ _____    ______ ____
ROOT
ATOM      1  C   UNL     1       7.312   2.553  -0.062  0.00  0.00    +0.282 C 
ATOM      2  O   UNL     1       7.822   1.450  -0.078  0.00  0.00    -0.267 OA
ATOM      3  N   UNL     1       8.089   3.655  -0.062  0.00  0.00    -0.229 N 
ATOM      4  H   UNL     1       7.682   4.535  -0.049  0.00  0.00    +0.173 HD
ENDROOT
BRANCH   1   7
ATOM      5  C   UNL     1       3.657   2.162  -0.022  0.00  0.00    +0.168 A 
ATOM      6  C   UNL     1       4.905   1.625  -0.042  0.00  0.00    +0.086 A 
ATOM      7  C   UNL     1       5.835   2.687  -0.044  0.00  0.00    +0.170 A 
ATOM      8  N   UNL     1       5.163   3.814  -0.025  0.00  0.00    -0.073 NA
ATOM      9  O   UNL     1       3.782   3.502  -0.017  0.00  0.00    -0.354 OA
BRANCH   5  12
ATOM     10  C   UNL     1      -0.017   1.379   0.010  0.00  0.00    +0.002 A 
ATOM     11  C   UNL     1       1.167   2.088   0.002  0.00  0.00    +0.012 A 
ATOM     12  C   UNL     1       2.385   1.408  -0.013  0.00  0.00    +0.021 A 
ATOM     13  C   UNL     1       2.398   0.012  -0.021  0.00  0.00    +0.031 A 
ATOM     14  C   UNL     1       1.207  -0.686  -0.013  0.00  0.00    +0.042 A 
ATOM     15  C   UNL     1       0.002  -0.004   0.002  0.00  0.00    +0.020 A 
ATOM     16 CL   UNL     1       1.221  -2.422  -0.023  0.00  0.00    -0.084 Cl
ENDBRANCH   5  12
ENDBRANCH   1   7
BRANCH   3  17
ATOM     17  N   UNL     1       9.484   3.528  -0.079  0.00  0.00    -0.234 N 
ATOM     18  C   UNL     1      10.261   4.629  -0.079  0.00  0.00    +0.235 C 
ATOM     19  O   UNL     1       9.752   5.730  -0.063  0.00  0.00    -0.274 OA
ATOM     20  H   UNL     1       9.891   2.647  -0.092  0.00  0.00    +0.173 HD
BRANCH  18  21
ATOM     21  C   UNL     1      11.762   4.493  -0.097  0.00  0.00    +0.049 C 
ATOM     22  C   UNL     1      12.219   3.717   1.140  0.00  0.00    +0.019 C 
ATOM     23  C   UNL     1      13.743   3.579   1.120  0.00  0.00    -0.009 C 
ATOM     24  C   UNL     1      14.381   4.969   1.125  0.00  0.00    +0.007 C 
ATOM     25  C   UNL     1      13.924   5.745  -0.112  0.00  0.00    -0.009 C 
ATOM     26  C   UNL     1      12.400   5.883  -0.093  0.00  0.00    +0.019 C 
ATOM     27  C   UNL     1      14.352   4.992  -1.373  0.00  0.00    +0.007 C 
ATOM     28  C   UNL     1      13.713   3.601  -1.378  0.00  0.00    -0.009 C 
ATOM     29  C   UNL     1      14.170   2.826  -0.141  0.00  0.00    +0.007 C 
ATOM     30  C   UNL     1      12.190   3.740  -1.359  0.00  0.00    +0.019 C 
ENDBRANCH  18  21
ENDBRANCH   3  17
TORSDOF 4
