REMARK  Name = ZINC20832144
REMARK  9 active torsions:
REMARK  status: ('A' for Active; 'I' for Inactive)
REMARK    1  A    between atoms: C_4  and  N_7
REMARK    2  A    between atoms: N_7  and  S_8
REMARK    3  A    between atoms: S_8  and  C_11
REMARK    4  A    between atoms: C_14  and  N_17
REMARK    5  A    between atoms: C_18  and  C_20
REMARK    6  A    between atoms: C_20  and  S_21
REMARK    7  A    between atoms: S_21  and  C_22
REMARK    8  A    between atoms: N_27  and  N_28
REMARK    9  A    between atoms: C_29  and  C_30
REMARK                            x       y       z     vdW  Elec       q    Type
REMARK                         _______ _______ _______ _____ _____    ______ ____
ROOT
ATOM      1  N   UNL     1      -1.901   6.281  -0.351  0.00  0.00    -0.285 N 
ATOM      2  C   UNL     1      -2.203   4.971  -0.444  0.00  0.00    +0.227 C 
ATOM      3  O   UNL     1      -3.362   4.615  -0.458  0.00  0.00    -0.275 OA
ATOM      4  H   UNL     1      -0.852   6.599  -0.261  0.00  0.00    +0.155 HD
ENDROOT
BRANCH   1   8
ATOM      5  C   UNL     1      -4.942   9.128  -0.405  0.00  0.00    +0.109 A 
ATOM      6  C   UNL     1      -5.151   7.907   0.210  0.00  0.00    +0.030 A 
ATOM      7  C   UNL     1      -4.145   6.961   0.229  0.00  0.00    +0.025 A 
ATOM      8  C   UNL     1      -2.923   7.237  -0.369  0.00  0.00    +0.034 A 
ATOM      9  C   UNL     1      -2.714   8.467  -0.980  0.00  0.00    +0.025 A 
ATOM     10  C   UNL     1      -3.726   9.407  -1.001  0.00  0.00    +0.030 A 
BRANCH   5  11
ATOM     11  S   UNL     1      -6.229  10.332  -0.427  0.00  0.00    +0.072 S 
ATOM     12  O   UNL     1      -6.035  11.112  -1.599  0.00  0.00    -0.150 OA
ATOM     13  O   UNL     1      -7.440   9.637  -0.166  0.00  0.00    -0.150 OA
BRANCH  11  14
ATOM     14  N   UNL     1      -5.976  11.343   0.860  0.00  0.00    -0.216 N 
ATOM     15  H   UNL     1      -6.720  11.401   1.668  0.00  0.00    +0.174 HD
BRANCH  14  19
ATOM     16  C   UNL     1      -2.525  13.665   1.040  0.00  0.00    +0.000 A 
ATOM     17  C   UNL     1      -3.545  14.012   0.174  0.00  0.00    +0.002 A 
ATOM     18  C   UNL     1      -4.691  13.244   0.112  0.00  0.00    +0.024 A 
ATOM     19  C   UNL     1      -4.818  12.121   0.920  0.00  0.00    +0.048 A 
ATOM     20  C   UNL     1      -3.793  11.778   1.793  0.00  0.00    +0.024 A 
ATOM     21  C   UNL     1      -2.647  12.548   1.846  0.00  0.00    +0.002 A 
ENDBRANCH  14  19
ENDBRANCH  11  14
ENDBRANCH   5  11
ENDBRANCH   1   8
BRANCH   2  22
ATOM     22  C   UNL     1      -1.100   3.948  -0.531  0.00  0.00    +0.173 C 
BRANCH  22  23
ATOM     23  S   UNL     1      -1.822   2.288  -0.645  0.00  0.00    -0.075 S 
BRANCH  23  24
ATOM     24  C   UNL     1      -0.424   1.220  -0.739  0.00  0.00    +0.211 A 
ATOM     25  N   UNL     1      -0.459  -0.142  -0.839  0.00  0.00    -0.186 NA
ATOM     26  C   UNL     1       0.830  -0.595  -0.892  0.00  0.00    +0.232 A 
ATOM     27  N   UNL     1       1.628   0.444  -0.828  0.00  0.00    -0.245 N 
ATOM     28  N   UNL     1       0.834   1.594  -0.731  0.00  0.00    -0.144 NA
ATOM     29  N   UNL     1       1.225  -1.921  -0.995  0.00  0.00    -0.205 N 
ATOM     30  H   UNL     1       0.468  -2.718  -1.041  0.00  0.00    +0.177 HD
ATOM     31  H   UNL     1       2.718   0.302  -0.855  0.00  0.00    +0.192 HD
BRANCH  29  32
ATOM     32  N   UNL     1       2.587  -2.245  -1.040  0.00  0.00    -0.187 NA
ATOM     33  C   UNL     1       2.956  -3.486  -1.136  0.00  0.00    +0.139 C 
BRANCH  33  34
ATOM     34  C   UNL     1       4.390  -3.827  -1.184  0.00  0.00    +0.013 A 
ATOM     35  C   UNL     1       4.802  -5.163  -1.282  0.00  0.00    +0.012 A 
ATOM     36  C   UNL     1       6.158  -5.429  -1.329  0.00  0.00    +0.020 A 
ATOM     37  C   UNL     1       7.057  -4.378  -1.267  0.00  0.00    +0.111 A 
ATOM     38  N   UNL     1       6.641  -3.130  -1.169  0.00  0.00    -0.263 NA
ATOM     39  C   UNL     1       5.361  -2.825  -1.126  0.00  0.00    +0.120 A 
ENDBRANCH  33  34
ENDBRANCH  29  32
ENDBRANCH  23  24
ENDBRANCH  22  23
ENDBRANCH   2  22
TORSDOF 9
