REMARK  Name = ZINC63494331
REMARK  9 active torsions:
REMARK  status: ('A' for Active; 'I' for Inactive)
REMARK    1  A    between atoms: C_1  and  C_2
REMARK    2  A    between atoms: C_2  and  C_3
REMARK    3  A    between atoms: C_3  and  N_4
REMARK    4  A    between atoms: N_4  and  C_5
REMARK    5  A    between atoms: C_8  and  C_11
REMARK    6  A    between atoms: C_11  and  C_12
REMARK    7  A    between atoms: C_11  and  C_13
REMARK    8  A    between atoms: C_14  and  C_16
REMARK    9  A    between atoms: C_23  and  C_30
REMARK                            x       y       z     vdW  Elec       q    Type
REMARK                         _______ _______ _______ _____ _____    ______ ____
ROOT
ATOM      1  C   UNL     1      -1.593  -1.865  -2.469  0.00  0.00    +0.161 C 
ATOM      2  C   UNL     1      -2.391  -2.586  -3.532  0.00  0.00    +0.011 C 
ATOM      3  C   UNL     1      -1.698  -2.941  -4.631  0.00  0.00    +0.049 C 
ATOM      4  C   UNL     1      -0.269  -2.592  -4.670  0.00  0.00    +0.030 C 
ATOM      5  C   UNL     1       0.502  -2.939  -5.792  0.00  0.00    +0.011 A 
ATOM      6  C   UNL     1       1.867  -2.619  -5.857  0.00  0.00    +0.014 A 
ATOM      7  C   UNL     1       2.595  -2.967  -6.956  0.00  0.00    -0.050 A 
ATOM      8  C   UNL     1       1.998  -3.637  -8.020  0.00  0.00    +0.005 A 
ATOM      9  C   UNL     1       0.674  -3.962  -7.989  0.00  0.00    +0.024 A 
ATOM     10  C   UNL     1      -0.109  -3.621  -6.875  0.00  0.00    +0.042 A 
ATOM     11  N   UNL     1      -1.409  -3.941  -6.844  0.00  0.00    -0.281 N 
ATOM     12  C   UNL     1      -2.213  -3.660  -5.839  0.00  0.00    +0.249 C 
ATOM     13  O   UNL     1      -3.388  -3.989  -5.893  0.00  0.00    -0.270 OA
ATOM     14  C   UNL     1       4.060  -2.622  -7.021  0.00  0.00    +0.044 C 
ATOM     15  S   UNL     1       0.074  -1.807  -3.235  0.00  0.00    -0.107 S 
ATOM     16  H   UNL     1      -1.781  -4.409  -7.608  0.00  0.00    +0.155 HD
ENDROOT
BRANCH   1  18
ATOM     17  N   UNL     1      -1.411  -2.015  -0.006  0.00  0.00    -0.270 N 
ATOM     18  C   UNL     1      -1.571  -2.652  -1.184  0.00  0.00    +0.237 C 
ATOM     19  O   UNL     1      -1.695  -3.858  -1.209  0.00  0.00    -0.274 OA
BRANCH  17  20
ATOM     20  C   UNL     1      -1.259  -2.753   1.173  0.00  0.00    +0.036 A 
ATOM     21  C   UNL     1      -1.263  -2.108   2.402  0.00  0.00    +0.024 A 
ATOM     22  C   UNL     1      -1.113  -2.839   3.565  0.00  0.00    +0.006 A 
ATOM     23  C   UNL     1      -0.957  -4.211   3.505  0.00  0.00    -0.045 A 
ATOM     24  C   UNL     1      -0.952  -4.857   2.282  0.00  0.00    +0.006 A 
ATOM     25  C   UNL     1      -1.107  -4.132   1.116  0.00  0.00    +0.024 A 
BRANCH  23  26
ATOM     26  C   UNL     1      -0.792  -5.006   4.775  0.00  0.00    +0.013 C 
ATOM     27  C   UNL     1      -1.927  -6.025   4.889  0.00  0.00    +0.012 C 
ATOM     28  C   UNL     1       0.551  -5.738   4.747  0.00  0.00    +0.012 C 
ENDBRANCH  23  26
ENDBRANCH  17  20
BRANCH  17  29
ATOM     29  C   UNL     1      -1.399  -0.551   0.039  0.00  0.00    +0.113 C 
BRANCH  29  31
ATOM     30  C   UNL     1       0.060   1.478   0.034  0.00  0.00    +0.005 C 
ATOM     31  C   UNL     1       0.046  -0.052  -0.013  0.00  0.00    +0.016 C 
ENDBRANCH  29  31
ENDBRANCH  17  29
ENDBRANCH   1  18
TORSDOF 5
