REMARK  Name = ZINC09942256
REMARK  10 active torsions:
REMARK  status: ('A' for Active; 'I' for Inactive)
REMARK    1  A    between atoms: C_1  and  C_2
REMARK    2  A    between atoms: C_2  and  O_3
REMARK    3  A    between atoms: O_3  and  C_4
REMARK    4  A    between atoms: C_4  and  C_6
REMARK    5  A    between atoms: C_7  and  C_35
REMARK    6  A    between atoms: C_11  and  S_33
REMARK    7  A    between atoms: C_14  and  C_16
REMARK    8  A    between atoms: C_19  and  C_22
REMARK    9  A    between atoms: C_25  and  C_27
REMARK   10  A    between atoms: S_33  and  C_34
REMARK                            x       y       z     vdW  Elec       q    Type
REMARK                         _______ _______ _______ _____ _____    ______ ____
ROOT
ATOM      1  C   UNL     1       1.651  -2.380   2.322  0.00  0.00    +0.082 C 
ATOM      2  C   UNL     1       1.478  -3.684   2.590  0.00  0.00    +0.020 C 
ATOM      3  N   UNL     1       1.932  -4.259   3.751  0.00  0.00    -0.287 N 
ATOM      4  C   UNL     1       2.809  -3.517   4.531  0.00  0.00    +0.219 A 
ATOM      5  N   UNL     1       3.551  -3.884   5.540  0.00  0.00    -0.187 NA
ATOM      6  C   UNL     1       4.249  -2.830   5.989  0.00  0.00    +0.210 A 
ATOM      7  N   UNL     1       3.948  -1.776   5.262  0.00  0.00    -0.141 NA
ATOM      8  N   UNL     1       3.016  -2.195   4.314  0.00  0.00    -0.220 N 
ATOM      9  C   UNL     1       2.348  -1.434   3.264  0.00  0.00    +0.179 C 
ATOM     10  C   UNL     1       0.761  -4.545   1.583  0.00  0.00    +0.061 C 
ATOM     11  H   UNL     1       1.651  -5.149   4.016  0.00  0.00    +0.155 HD
ENDROOT
BRANCH   9  12
ATOM     12  C   UNL     1       1.334  -0.509   3.887  0.00  0.00    -0.018 A 
ATOM     13  C   UNL     1       0.301  -1.031   4.645  0.00  0.00    +0.007 A 
ATOM     14  C   UNL     1      -0.631  -0.190   5.218  0.00  0.00    +0.013 A 
ATOM     15  C   UNL     1      -0.529   1.190   5.032  0.00  0.00    +0.037 A 
ATOM     16  C   UNL     1       0.516   1.710   4.266  0.00  0.00    +0.013 A 
ATOM     17  C   UNL     1       1.444   0.858   3.703  0.00  0.00    +0.007 A 
BRANCH  15  18
ATOM     18  C   UNL     1      -1.523   2.096   5.642  0.00  0.00    +0.228 A 
ATOM     19  N   UNL     1      -2.542   1.726   6.384  0.00  0.00    -0.217 NA
ATOM     20  C   UNL     1      -3.222   2.814   6.760  0.00  0.00    +0.161 A 
ATOM     21  C   UNL     1      -2.595   3.898   6.227  0.00  0.00    +0.156 A 
ATOM     22  O   UNL     1      -1.530   3.437   5.534  0.00  0.00    -0.435 OA
BRANCH  21  23
ATOM     23  C   UNL     1      -2.998   5.310   6.382  0.00  0.00    +0.019 A 
ATOM     24  C   UNL     1      -4.123   5.640   7.142  0.00  0.00    +0.011 A 
ATOM     25  C   UNL     1      -4.494   6.961   7.282  0.00  0.00    +0.001 A 
ATOM     26  C   UNL     1      -3.755   7.959   6.671  0.00  0.00    +0.000 A 
ATOM     27  C   UNL     1      -2.640   7.640   5.917  0.00  0.00    +0.001 A 
ATOM     28  C   UNL     1      -2.254   6.323   5.774  0.00  0.00    +0.011 A 
ENDBRANCH  21  23
ENDBRANCH  15  18
ENDBRANCH   9  12
BRANCH   1  29
ATOM     29  C   UNL     1       1.163  -1.874   1.097  0.00  0.00    +0.339 C 
ATOM     30  O   UNL     1       1.921  -1.718   0.158  0.00  0.00    -0.245 OA
BRANCH  29  31
ATOM     31  O   UNL     1      -0.144  -1.563   0.969  0.00  0.00    -0.462 OA
BRANCH  31  33
ATOM     32  C   UNL     1      -2.070  -0.762  -0.252  0.00  0.00    +0.048 C 
ATOM     33  C   UNL     1      -0.569  -1.055  -0.297  0.00  0.00    +0.229 C 
ENDBRANCH  31  33
ENDBRANCH  29  31
ENDBRANCH   1  29
BRANCH   6  34
ATOM     34  S   UNL     1       5.383  -2.854   7.337  0.00  0.00    -0.088 S 
ATOM     35  C   UNL     1       5.351  -4.576   7.908  0.00  0.00    +0.093 C 
ENDBRANCH   6  34
TORSDOF 7
