REMARK  Name = ZINC16921000
REMARK  7 active torsions:
REMARK  status: ('A' for Active; 'I' for Inactive)
REMARK    1  A    between atoms: C_1  and  C_2
REMARK    2  A    between atoms: C_6  and  C_8
REMARK    3  A    between atoms: N_12  and  C_16
REMARK    4  A    between atoms: C_16  and  C_17
REMARK    5  A    between atoms: N_19  and  C_20
REMARK    6  A    between atoms: C_23  and  N_27
REMARK    7  A    between atoms: C_25  and  O_26
REMARK                            x       y       z     vdW  Elec       q    Type
REMARK                         _______ _______ _______ _____ _____    ______ ____
ROOT
ATOM      1  C   UNL     1       2.394  -1.451  -0.020  0.00  0.00    +0.213 C 
ENDROOT
BRANCH   1   6
ATOM      2  C   UNL     1       2.459   3.509   0.019  0.00  0.00    +0.028 C 
ATOM      3  C   UNL     1       1.918   2.266   0.039  0.00  0.00    +0.080 C 
ATOM      4  C   UNL     1       2.584   0.947  -0.010  0.00  0.00    +0.261 C 
ATOM      5  O   UNL     1       3.794   0.844  -0.079  0.00  0.00    -0.269 OA
ATOM      6  N   UNL     1       1.796  -0.115   0.026  0.00  0.00    -0.219 N 
ATOM      7  C   UNL     1       0.455   0.004   0.103  0.00  0.00    +0.286 C 
ATOM      8  O   UNL     1      -0.380  -0.879   0.143  0.00  0.00    -0.262 OA
ATOM      9  S   UNL     1       0.203   1.772   0.133  0.00  0.00    -0.026 S 
BRANCH   2  15
ATOM     10  C   UNL     1      -1.900   5.582  -1.229  0.00  0.00    +0.044 C 
ATOM     11  C   UNL     1      -0.513   5.695  -0.649  0.00  0.00    -0.050 A 
ATOM     12  C   UNL     1      -0.059   6.915  -0.179  0.00  0.00    +0.003 A 
ATOM     13  C   UNL     1       1.213   7.030   0.354  0.00  0.00    +0.001 A 
ATOM     14  C   UNL     1       2.038   5.927   0.422  0.00  0.00    +0.008 A 
ATOM     15  C   UNL     1       1.586   4.690  -0.050  0.00  0.00    -0.024 A 
ATOM     16  C   UNL     1       0.301   4.584  -0.594  0.00  0.00    +0.011 A 
ENDBRANCH   2  15
ENDBRANCH   1   6
BRANCH   1  17
ATOM     17  C   UNL     1       2.519  -1.897  -1.455  0.00  0.00    +0.235 C 
ATOM     18  O   UNL     1       2.145  -1.170  -2.350  0.00  0.00    -0.274 OA
ATOM     19  N   UNL     1       3.046  -3.104  -1.742  0.00  0.00    -0.281 N 
ATOM     20  H   UNL     1       3.266  -3.720  -1.026  0.00  0.00    +0.155 HD
BRANCH  19  21
ATOM     21  C   UNL     1       3.277  -3.468  -3.075  0.00  0.00    +0.076 A 
ATOM     22  C   UNL     1       3.463  -2.490  -4.041  0.00  0.00    +0.029 A 
ATOM     23  C   UNL     1       3.690  -2.851  -5.356  0.00  0.00    +0.035 A 
ATOM     24  C   UNL     1       3.733  -4.187  -5.711  0.00  0.00    +0.130 A 
ATOM     25  C   UNL     1       3.548  -5.167  -4.754  0.00  0.00    +0.080 A 
ATOM     26  C   UNL     1       3.325  -4.813  -3.433  0.00  0.00    +0.140 A 
BRANCH  24  27
ATOM     27  N   UNL     1       3.978  -4.568  -7.120  0.00  0.00    +0.057 N 
ATOM     28  O   UNL     1       4.141  -3.705  -7.965  0.00  0.00    -0.126 OA
ATOM     29  O   UNL     1       4.016  -5.744  -7.436  0.00  0.00    -0.126 OA
ENDBRANCH  24  27
BRANCH  26  30
ATOM     30  O   UNL     1       3.149  -5.776  -2.490  0.00  0.00    -0.505 OA
ATOM     31  H   UNL     1       2.228  -6.046  -2.370  0.00  0.00    +0.292 HD
ENDBRANCH  26  30
ENDBRANCH  19  21
ENDBRANCH   1  17
TORSDOF 6
