REMARK  Name = ZINC22807541
REMARK  12 active torsions:
REMARK  status: ('A' for Active; 'I' for Inactive)
REMARK    1  A    between atoms: C_1  and  C_2
REMARK    2  A    between atoms: C_2  and  O_3
REMARK    3  A    between atoms: O_3  and  C_4
REMARK    4  A    between atoms: C_4  and  C_6
REMARK    5  A    between atoms: C_10  and  N_11
REMARK    6  A    between atoms: C_12  and  C_14
REMARK    7  A    between atoms: C_14  and  N_15
REMARK    8  A    between atoms: N_18  and  C_21
REMARK    9  A    between atoms: C_21  and  C_23
REMARK   10  A    between atoms: C_21  and  C_24
REMARK   11  A    between atoms: N_26  and  C_27
REMARK   12  A    between atoms: C_31  and  C_35
REMARK                            x       y       z     vdW  Elec       q    Type
REMARK                         _______ _______ _______ _____ _____    ______ ____
ROOT
ATOM      1  N   UNL     1      -0.430  -2.889  -2.498  0.00  0.00    -0.278 N 
ATOM      2  C   UNL     1      -1.337  -2.944  -3.493  0.00  0.00    +0.232 C 
ATOM      3  O   UNL     1      -2.456  -3.355  -3.272  0.00  0.00    -0.274 OA
ATOM      4  H   UNL     1       0.585  -2.516  -2.698  0.00  0.00    +0.155 HD
ENDROOT
BRANCH   1   9
ATOM      5  C   UNL     1       0.010  -3.322  -0.077  0.00  0.00    +0.091 A 
ATOM      6  C   UNL     1      -0.602  -3.803   1.151  0.00  0.00    -0.021 A 
ATOM      7  C   UNL     1      -1.891  -4.190   1.037  0.00  0.00    -0.004 A 
ATOM      8  S   UNL     1      -2.295  -3.925  -0.666  0.00  0.00    -0.077 S 
ATOM      9  C   UNL     1      -0.776  -3.303  -1.221  0.00  0.00    +0.086 A 
ATOM     10  C   UNL     1      -2.772  -4.725   2.124  0.00  0.00    +0.046 C 
ATOM     11  C   UNL     1      -1.886  -5.124   3.313  0.00  0.00    -0.009 C 
ATOM     12  C   UNL     1      -0.912  -3.980   3.607  0.00  0.00    +0.008 C 
ATOM     13  C   UNL     1       0.126  -3.878   2.487  0.00  0.00    +0.037 C 
ATOM     14  C   UNL     1      -2.762  -5.384   4.540  0.00  0.00    +0.008 C 
BRANCH   5  15
ATOM     15  C   UNL     1       1.403  -2.870  -0.105  0.00  0.00    +0.342 C 
ATOM     16  O   UNL     1       2.295  -3.662  -0.343  0.00  0.00    -0.245 OA
BRANCH  15  17
ATOM     17  O   UNL     1       1.696  -1.575   0.134  0.00  0.00    -0.461 OA
BRANCH  17  19
ATOM     18  C   UNL     1       3.232   0.298   0.384  0.00  0.00    +0.048 C 
ATOM     19  C   UNL     1       3.097  -1.198   0.090  0.00  0.00    +0.229 C 
ENDBRANCH  17  19
ENDBRANCH  15  17
ENDBRANCH   5  15
ENDBRANCH   1   9
BRANCH   2  20
ATOM     20  C   UNL     1      -0.961  -2.494  -4.881  0.00  0.00    +0.180 C 
BRANCH  20  21
ATOM     21  N   UNL     1      -2.114  -2.651  -5.777  0.00  0.00    -0.298 NA
ATOM     22  C   UNL     1      -2.454  -4.070  -5.953  0.00  0.00    +0.066 C 
ATOM     23  C   UNL     1      -3.706  -4.187  -6.826  0.00  0.00    -0.062 C 
ATOM     24  N   UNL     1      -3.457  -3.543  -8.123  0.00  0.00    +0.389 N 
ATOM     25  C   UNL     1      -3.117  -2.124  -7.947  0.00  0.00    -0.062 C 
ATOM     26  C   UNL     1      -1.865  -2.007  -7.074  0.00  0.00    +0.066 C 
ATOM     27  H   UNL     1      -2.597  -4.043  -8.591  0.00  0.00    -0.081 HD
BRANCH  24  28
ATOM     28  C   UNL     1      -4.611  -3.700  -9.019  0.00  0.00    +0.016 C 
ATOM     29  C   UNL     1      -5.722  -2.737  -8.594  0.00  0.00    -0.004 C 
BRANCH  28  30
ATOM     30  C   UNL     1      -4.194  -3.393 -10.434  0.00  0.00    +0.199 C 
ATOM     31  O   UNL     1      -3.135  -2.842 -10.648  0.00  0.00    -0.278 OA
ATOM     32  N   UNL     1      -4.998  -3.730 -11.462  0.00  0.00    -0.314 N 
ATOM     33  H   UNL     1      -5.958  -4.230 -11.268  0.00  0.00    +0.149 HD
BRANCH  32  34
ATOM     34  C   UNL     1      -4.592  -3.431 -12.838  0.00  0.00    +0.073 C 
ATOM     35  C   UNL     1      -5.653  -2.853 -13.777  0.00  0.00    +0.024 C 
ATOM     36  C   UNL     1      -5.182  -4.298 -13.952  0.00  0.00    +0.024 C 
ENDBRANCH  32  34
ENDBRANCH  28  30
ENDBRANCH  24  28
ENDBRANCH  20  21
ENDBRANCH   2  20
TORSDOF 9
