REMARK  Name = ZINC04905358
REMARK  7 active torsions:
REMARK  status: ('A' for Active; 'I' for Inactive)
REMARK    1  A    between atoms: C_1  and  C_2
REMARK    2  A    between atoms: C_10  and  O_27
REMARK    3  A    between atoms: C_13  and  C_26
REMARK    4  A    between atoms: N_14  and  C_18
REMARK    5  A    between atoms: C_22  and  S_24
REMARK    6  A    between atoms: S_24  and  C_25
REMARK    7  A    between atoms: O_27  and  C_28
REMARK                            x       y       z     vdW  Elec       q    Type
REMARK                         _______ _______ _______ _____ _____    ______ ____
ROOT
ATOM      1  C   UNL     1      -0.931  -5.049   0.785  0.00  0.00    +0.015 C 
ATOM      2  C   UNL     1       0.323  -4.177   0.699  0.00  0.00    +0.074 C 
ATOM      3  C   UNL     1       1.349  -4.824  -0.245  0.00  0.00    +0.114 C 
ATOM      4  C   UNL     1       0.769  -4.832  -1.642  0.00  0.00    +0.019 A 
ATOM      5  C   UNL     1       1.227  -5.761  -2.555  0.00  0.00    +0.009 A 
ATOM      6  C   UNL     1       0.717  -5.788  -3.839  0.00  0.00    +0.004 A 
ATOM      7  C   UNL     1      -0.262  -4.886  -4.212  0.00  0.00    +0.049 A 
ATOM      8  C   UNL     1      -0.733  -3.959  -3.300  0.00  0.00    +0.162 A 
ATOM      9  C   UNL     1      -0.220  -3.931  -2.001  0.00  0.00    +0.170 A 
ATOM     10  O   UNL     1      -0.711  -3.012  -1.129  0.00  0.00    -0.464 OA
ATOM     11  C   UNL     1      -0.030  -2.807   0.106  0.00  0.00    +0.186 C 
ATOM     12  N   UNL     1       1.193  -2.035  -0.095  0.00  0.00    -0.244 N 
ATOM     13  C   UNL     1       2.392  -2.622  -0.227  0.00  0.00    +0.141 C 
ATOM     14  S   UNL     1       3.785  -1.635  -0.347  0.00  0.00    -0.018 S 
ATOM     15  N   UNL     1       2.539  -3.957  -0.269  0.00  0.00    -0.319 N 
ATOM     16  C   UNL     1      -0.953  -2.057   1.068  0.00  0.00    +0.079 C 
ATOM     17  H   UNL     1       3.425  -4.348  -0.316  0.00  0.00    +0.148 HD
ENDROOT
BRANCH  12  18
ATOM     18  C   UNL     1       1.112  -0.639  -0.146  0.00  0.00    +0.040 A 
ATOM     19  C   UNL     1       1.341   0.113   1.000  0.00  0.00    +0.024 A 
ATOM     20  C   UNL     1       1.262   1.491   0.952  0.00  0.00    +0.003 A 
ATOM     21  C   UNL     1       0.956   2.127  -0.236  0.00  0.00    +0.015 A 
ATOM     22  C   UNL     1       0.727   1.381  -1.386  0.00  0.00    +0.009 A 
ATOM     23  C   UNL     1       0.805  -0.004  -1.340  0.00  0.00    +0.038 A 
BRANCH  22  24
ATOM     24  S   UNL     1       0.337   2.193  -2.901  0.00  0.00    -0.129 S 
ATOM     25  C   UNL     1       0.350   3.955  -2.470  0.00  0.00    +0.090 C 
ENDBRANCH  22  24
ENDBRANCH  12  18
BRANCH   8  26
ATOM     26  O   UNL     1      -1.696  -3.072  -3.668  0.00  0.00    -0.491 OA
ATOM     27  C   UNL     1      -2.176  -3.156  -5.012  0.00  0.00    +0.277 C 
ENDBRANCH   8  26
TORSDOF 3
