REMARK  Name = ZINC58912319
REMARK  12 active torsions:
REMARK  status: ('A' for Active; 'I' for Inactive)
REMARK    1  A    between atoms: C_1  and  C_2
REMARK    2  A    between atoms: C_4  and  C_7
REMARK    3  A    between atoms: C_7  and  O_8
REMARK    4  A    between atoms: O_8  and  C_9
REMARK    5  A    between atoms: C_13  and  C_15
REMARK    6  A    between atoms: C_16  and  C_17
REMARK    7  A    between atoms: N_19  and  C_20
REMARK    8  A    between atoms: C_20  and  C_22
REMARK    9  A    between atoms: C_20  and  C_23
REMARK   10  A    between atoms: C_28  and  N_29
REMARK   11  A    between atoms: N_29  and  S_30
REMARK   12  A    between atoms: S_30  and  C_33
REMARK                            x       y       z     vdW  Elec       q    Type
REMARK                         _______ _______ _______ _____ _____    ______ ____
ROOT
ATOM      1  C   UNL     1      -3.090 -11.563  -0.023  0.00  0.00    +0.237 C 
ATOM      2  O   UNL     1      -1.906 -11.847  -0.024  0.00  0.00    -0.271 OA
ATOM      3  N   UNL     1      -4.017 -12.541  -0.023  0.00  0.00    -0.305 N 
ATOM      4  H   UNL     1      -4.960 -12.316  -0.021  0.00  0.00    +0.150 HD
ENDROOT
BRANCH   1   6
ATOM      5  C   UNL     1      -2.579  -9.181  -0.021  0.00  0.00    +0.013 C 
ATOM      6  C   UNL     1      -3.507 -10.159  -0.021  0.00  0.00    +0.068 C 
BRANCH   5  11
ATOM      7  C   UNL     1      -2.442  -5.429  -0.015  0.00  0.00    +0.122 A 
ATOM      8  C   UNL     1      -3.795  -5.113  -0.013  0.00  0.00    +0.046 A 
ATOM      9  C   UNL     1      -4.745  -6.117  -0.014  0.00  0.00    +0.004 A 
ATOM     10  C   UNL     1      -4.357  -7.441  -0.017  0.00  0.00    +0.008 A 
ATOM     11  C   UNL     1      -2.998  -7.770  -0.019  0.00  0.00    -0.021 A 
ATOM     12  C   UNL     1      -2.039  -6.753  -0.024  0.00  0.00    +0.053 A 
BRANCH   7  13
ATOM     13  O   UNL     1      -1.513  -4.437  -0.015  0.00  0.00    -0.486 OA
BRANCH  13  14
ATOM     14  C   UNL     1      -1.999  -3.093  -0.006  0.00  0.00    +0.285 C 
BRANCH  14  18
ATOM     15  C   UNL     1      -0.018   1.503   0.010  0.00  0.00    +0.073 C 
ATOM     16  C   UNL     1       0.002  -0.004   0.002  0.00  0.00    +0.076 A 
ATOM     17  N   UNL     1      -1.013  -0.832   0.002  0.00  0.00    -0.246 NA
ATOM     18  C   UNL     1      -0.834  -2.137  -0.006  0.00  0.00    +0.086 A 
ATOM     19  C   UNL     1       0.449  -2.582  -0.014  0.00  0.00    +0.073 A 
ATOM     20  S   UNL     1       1.335  -1.032  -0.017  0.00  0.00    -0.080 S 
ENDBRANCH  14  18
ENDBRANCH  13  14
ENDBRANCH   7  13
ENDBRANCH   5  11
ENDBRANCH   1   6
BRANCH   3  21
ATOM     21  C   UNL     1      -3.600 -13.946  -0.025  0.00  0.00    +0.102 C 
ATOM     22  C   UNL     1      -3.336 -14.397  -1.462  0.00  0.00    +0.033 C 
BRANCH  21  23
ATOM     23  C   UNL     1      -4.691 -14.794   0.576  0.00  0.00    -0.003 A 
ATOM     24  C   UNL     1      -6.002 -14.361   0.543  0.00  0.00    +0.007 A 
ATOM     25  C   UNL     1      -7.003 -15.139   1.095  0.00  0.00    +0.000 A 
ATOM     26  C   UNL     1      -6.696 -16.353   1.681  0.00  0.00    +0.002 A 
ATOM     27  C   UNL     1      -5.388 -16.793   1.716  0.00  0.00    +0.027 A 
ATOM     28  C   UNL     1      -4.380 -16.017   1.159  0.00  0.00    +0.079 A 
BRANCH  28  29
ATOM     29  N   UNL     1      -3.056 -16.461   1.188  0.00  0.00    -0.103 NA
BRANCH  29  30
ATOM     30  S   UNL     1      -2.687 -17.918   1.883  0.00  0.00    +0.059 S 
ATOM     31  O   UNL     1      -3.026 -17.762   3.255  0.00  0.00    -0.154 OA
ATOM     32  O   UNL     1      -3.352 -18.882   1.079  0.00  0.00    -0.154 OA
ATOM     33  C   UNL     1      -0.890 -18.082   1.698  0.00  0.00    +0.220 C 
ENDBRANCH  29  30
ENDBRANCH  28  29
ENDBRANCH  21  23
ENDBRANCH   3  21
TORSDOF 9
