REMARK  Name = ZINC27755443
REMARK  8 active torsions:
REMARK  status: ('A' for Active; 'I' for Inactive)
REMARK    1  A    between atoms: C_1  and  C_2
REMARK    2  A    between atoms: C_2  and  C_4
REMARK    3  A    between atoms: C_7  and  C_10
REMARK    4  A    between atoms: C_13  and  C_15
REMARK    5  A    between atoms: C_17  and  C_29
REMARK    6  A    between atoms: C_19  and  C_24
REMARK    7  A    between atoms: C_19  and  O_28
REMARK    8  A    between atoms: C_29  and  C_31
REMARK                            x       y       z     vdW  Elec       q    Type
REMARK                         _______ _______ _______ _____ _____    ______ ____
ROOT
ATOM      1  C   UNL     1       0.489   3.509   1.327  0.00  0.00    +0.156 C 
ATOM      2  C   UNL     1       1.146   3.088   0.008  0.00  0.00    +0.147 C 
ATOM      3  C   UNL     1       1.286   1.562  -0.002  0.00  0.00    +0.243 C 
ATOM      4  N   UNL     1       2.028   1.140   1.188  0.00  0.00    -0.264 N 
ATOM      5  C   UNL     1       1.983   1.849   2.325  0.00  0.00    +0.302 C 
ATOM      6  O   UNL     1       2.610   1.449   3.288  0.00  0.00    -0.253 OA
ATOM      7  N   UNL     1       1.274   2.982   2.444  0.00  0.00    -0.289 N 
ATOM      8  H   UNL     1       2.638   0.225   1.160  0.00  0.00    +0.153 HD
ATOM      9  H   UNL     1       1.291   3.516   3.405  0.00  0.00    +0.151 HD
ENDROOT
BRANCH   1  13
ATOM     10  C   UNL     1      -2.582   1.561   1.675  0.00  0.00    +0.135 A 
ATOM     11  C   UNL     1      -3.117   2.757   1.303  0.00  0.00    +0.050 A 
ATOM     12  C   UNL     1      -2.040   3.645   1.123  0.00  0.00    +0.047 A 
ATOM     13  C   UNL     1      -0.911   2.957   1.391  0.00  0.00    +0.127 A 
ATOM     14  O   UNL     1      -1.242   1.698   1.718  0.00  0.00    -0.458 OA
BRANCH  10  18
ATOM     15  C   UNL     1      -4.751  -1.979   2.530  0.00  0.00    +0.017 A 
ATOM     16  C   UNL     1      -3.352  -1.974   2.621  0.00  0.00    +0.012 A 
ATOM     17  C   UNL     1      -2.655  -0.834   2.346  0.00  0.00    +0.012 A 
ATOM     18  C   UNL     1      -3.336   0.330   1.973  0.00  0.00    +0.017 A 
ATOM     19  C   UNL     1      -4.733   0.328   1.887  0.00  0.00    +0.012 A 
ATOM     20  C   UNL     1      -5.432  -0.813   2.156  0.00  0.00    +0.012 A 
BRANCH  15  22
ATOM     21  C   UNL     1      -7.006  -3.210   2.729  0.00  0.00    +0.091 C 
ATOM     22  C   UNL     1      -5.502  -3.205   2.827  0.00  0.00    +0.160 C 
ATOM     23  O   UNL     1      -4.912  -4.215   3.151  0.00  0.00    -0.292 OA
ENDBRANCH  15  22
ENDBRANCH  10  18
ENDBRANCH   1  13
BRANCH   3  24
ATOM     24  C   UNL     1       2.042   1.126  -1.259  0.00  0.00    +0.436 C 
ATOM     25  F   UNL     1       1.333   1.533  -2.394  0.00  0.00    -0.166 F 
ATOM     26  F   UNL     1       3.312   1.712  -1.266  0.00  0.00    -0.166 F 
ATOM     27  F   UNL     1       2.172  -0.267  -1.265  0.00  0.00    -0.166 F 
ENDBRANCH   3  24
BRANCH   3  28
ATOM     28  O   UNL     1      -0.011   0.963   0.007  0.00  0.00    -0.364 OA
ATOM     29  H   UNL     1      -0.111  -0.133   0.002  0.00  0.00    +0.212 HD
ENDBRANCH   3  28
BRANCH   2  30
ATOM     30  C   UNL     1       2.509   3.722  -0.104  0.00  0.00    +0.173 C 
ATOM     31  O   UNL     1       3.492   3.114   0.261  0.00  0.00    -0.292 OA
BRANCH  30  32
ATOM     32  C   UNL     1       2.645   5.079  -0.658  0.00  0.00    +0.018 A 
ATOM     33  C   UNL     1       1.514   5.780  -1.086  0.00  0.00    +0.011 A 
ATOM     34  C   UNL     1       1.650   7.053  -1.599  0.00  0.00    +0.001 A 
ATOM     35  C   UNL     1       2.903   7.632  -1.700  0.00  0.00    +0.000 A 
ATOM     36  C   UNL     1       4.028   6.942  -1.284  0.00  0.00    +0.001 A 
ATOM     37  C   UNL     1       3.908   5.671  -0.764  0.00  0.00    +0.011 A 
ENDBRANCH  30  32
ENDBRANCH   2  30
TORSDOF 7
