REMARK  Name = ZINC39674207
REMARK  7 active torsions:
REMARK  status: ('A' for Active; 'I' for Inactive)
REMARK    1  A    between atoms: C_1  and  C_2
REMARK    2  A    between atoms: C_4  and  C_9
REMARK    3  A    between atoms: C_5  and  C_8
REMARK    4  A    between atoms: C_9  and  C_11
REMARK    5  A    between atoms: C_9  and  N_12
REMARK    6  A    between atoms: C_13  and  C_15
REMARK    7  A    between atoms: C_26  and  C_28
REMARK                            x       y       z     vdW  Elec       q    Type
REMARK                         _______ _______ _______ _____ _____    ______ ____
ROOT
ATOM      1  C   UNL     1       0.140   2.936  -4.215  0.00  0.00    +0.100 C 
ATOM      2  C   UNL     1      -1.246   3.523  -3.867  0.00  0.00    +0.121 C 
ATOM      3  N   UNL     1      -1.533   4.479  -4.962  0.00  0.00    -0.296 N 
ATOM      4  C   UNL     1      -1.031   3.803  -6.182  0.00  0.00    +0.115 C 
ATOM      5  C   UNL     1       0.277   3.121  -5.735  0.00  0.00    -0.004 C 
ATOM      6  C   UNL     1       1.473   4.013  -6.054  0.00  0.00    -0.010 C 
ATOM      7  C   UNL     1       1.622   4.136  -7.573  0.00  0.00    -0.082 C 
ATOM      8  N   UNL     1       1.812   2.803  -8.157  0.00  0.00    +0.379 N 
ATOM      9  C   UNL     1       0.618   1.980  -7.926  0.00  0.00    -0.082 C 
ATOM     10  C   UNL     1       0.426   1.767  -6.422  0.00  0.00    -0.010 C 
ATOM     11  C   UNL     1      -2.119   5.689  -4.870  0.00  0.00    +0.247 C 
ATOM     12  O   UNL     1      -2.375   6.319  -5.878  0.00  0.00    -0.270 OA
ATOM     13  H   UNL     1       1.971   2.892  -9.149  0.00  0.00    -0.086 HD
ATOM     14  H   UNL     1       2.611   2.361  -7.729  0.00  0.00    -0.086 HD
ENDROOT
BRANCH  11  15
ATOM     15  C   UNL     1      -2.451   6.250  -3.544  0.00  0.00    +0.045 A 
ATOM     16  C   UNL     1      -3.181   5.491  -2.623  0.00  0.00    +0.014 A 
ATOM     17  C   UNL     1      -3.492   6.011  -1.385  0.00  0.00    +0.001 A 
ATOM     18  C   UNL     1      -3.085   7.291  -1.039  0.00  0.00    +0.012 A 
ATOM     19  C   UNL     1      -2.359   8.061  -1.940  0.00  0.00    +0.031 A 
ATOM     20  C   UNL     1      -2.030   7.542  -3.202  0.00  0.00    +0.006 A 
ATOM     21  C   UNL     1      -1.254   8.562  -3.950  0.00  0.00    -0.006 A 
ATOM     22  C   UNL     1      -0.702   8.556  -5.224  0.00  0.00    +0.009 A 
ATOM     23  C   UNL     1      -0.011   9.665  -5.685  0.00  0.00    +0.001 A 
ATOM     24  C   UNL     1       0.134  10.782  -4.886  0.00  0.00    +0.001 A 
ATOM     25  C   UNL     1      -0.412  10.804  -3.612  0.00  0.00    +0.012 A 
ATOM     26  C   UNL     1      -1.107   9.699  -3.138  0.00  0.00    +0.030 A 
ATOM     27  C   UNL     1      -1.801   9.432  -1.854  0.00  0.00    +0.194 C 
ATOM     28  O   UNL     1      -1.883  10.187  -0.907  0.00  0.00    -0.287 OA
ENDBRANCH  11  15
BRANCH   1  30
ATOM     29  N   UNL     1       1.380   0.889  -3.588  0.00  0.00    -0.309 N 
ATOM     30  C   UNL     1       0.195   1.473  -3.857  0.00  0.00    +0.219 C 
ATOM     31  O   UNL     1      -0.826   0.821  -3.812  0.00  0.00    -0.275 OA
ATOM     32  H   UNL     1       2.197   1.410  -3.625  0.00  0.00    +0.149 HD
BRANCH  29  33
ATOM     33  C   UNL     1       1.433  -0.533  -3.241  0.00  0.00    +0.100 C 
ATOM     34  C   UNL     1       1.111  -0.708  -1.755  0.00  0.00    +0.033 C 
BRANCH  33  37
ATOM     35  C   UNL     1       4.389   0.881  -3.421  0.00  0.00    +0.039 C 
ATOM     36  C   UNL     1       4.140  -0.563  -2.981  0.00  0.00    +0.154 C 
ATOM     37  C   UNL     1       2.814  -1.068  -3.522  0.00  0.00    -0.001 C 
ATOM     38  C   UNL     1       3.155  -2.095  -4.303  0.00  0.00    +0.063 C 
ATOM     39  N   UNL     1       4.495  -2.273  -4.304  0.00  0.00    -0.159 NA
ATOM     40  N   UNL     1       5.121  -1.472  -3.599  0.00  0.00    -0.180 NA
ATOM     41  C   UNL     1       2.179  -2.941  -5.079  0.00  0.00    +0.067 C 
ENDBRANCH  33  37
ENDBRANCH  29  33
ENDBRANCH   1  30
TORSDOF 4
