REMARK  Name = ZINC33222561
REMARK  3 active torsions:
REMARK  status: ('A' for Active; 'I' for Inactive)
REMARK    1  A    between atoms: C_3  and  C_9
REMARK    2  A    between atoms: N_11  and  N_12
REMARK    3  A    between atoms: C_13  and  C_15
REMARK                            x       y       z     vdW  Elec       q    Type
REMARK                         _______ _______ _______ _____ _____    ______ ____
ROOT
ATOM      1  C   UNL     1       5.030   5.224  -0.015  0.00  0.00    +0.261 C 
ATOM      2  O   UNL     1       5.523   4.112  -0.026  0.00  0.00    -0.269 OA
ATOM      3  N   UNL     1       3.690   5.366  -0.002  0.00  0.00    -0.230 N 
ATOM      4  H   UNL     1       3.244   6.372   0.008  0.00  0.00    +0.173 HD
ENDROOT
BRANCH   1   7
ATOM      5  C   UNL     1       6.154   8.806  -0.005  0.00  0.00    +0.021 A 
ATOM      6  C   UNL     1       5.337   7.695  -0.004  0.00  0.00    +0.015 A 
ATOM      7  C   UNL     1       5.900   6.418  -0.016  0.00  0.00    +0.051 A 
ATOM      8  C   UNL     1       7.289   6.273  -0.024  0.00  0.00    +0.027 A 
ATOM      9  C   UNL     1       8.096   7.392  -0.030  0.00  0.00    +0.035 A 
ATOM     10  C   UNL     1       7.531   8.657  -0.017  0.00  0.00    +0.042 A 
ATOM     11 CL   UNL     1       8.552  10.060  -0.018  0.00  0.00    -0.084 Cl
ATOM     12  I   UNL     1       8.146   4.362  -0.034  0.00  0.00    -0.043 I 
ENDBRANCH   1   7
BRANCH   3  13
ATOM     13  N   UNL     1       2.865   4.234  -0.001  0.00  0.00    -0.229 N 
ATOM     14  C   UNL     1       1.525   4.376   0.012  0.00  0.00    +0.276 C 
ATOM     15  O   UNL     1       1.031   5.489   0.022  0.00  0.00    -0.267 OA
ATOM     16  H   UNL     1       3.311   3.228  -0.011  0.00  0.00    +0.173 HD
BRANCH  14  17
ATOM     17  C   UNL     1       0.661   3.191   0.013  0.00  0.00    +0.104 A 
ATOM     18  C   UNL     1      -0.718   3.187   0.026  0.00  0.00    +0.047 A 
ATOM     19  C   UNL     1      -1.125   1.849   0.017  0.00  0.00    +0.036 A 
ATOM     20  C   UNL     1      -0.013   1.076   0.008  0.00  0.00    +0.098 A 
ATOM     21  N   UNL     1       1.079   1.880   0.002  0.00  0.00    -0.356 N 
ATOM     22  H   UNL     1       2.154   1.645  -0.010  0.00  0.00    +0.166 HD
ATOM     23 BR   UNL     1      -2.912   1.229   0.020  0.00  0.00    -0.049 Br
ENDBRANCH  14  17
ENDBRANCH   3  13
TORSDOF 3
