REMARK  Name = ZINC14549502
REMARK  7 active torsions:
REMARK  status: ('A' for Active; 'I' for Inactive)
REMARK    1  A    between atoms: C_1  and  O_2
REMARK    2  A    between atoms: O_2  and  C_3
REMARK    3  A    between atoms: C_3  and  C_4
REMARK    4  A    between atoms: C_4  and  C_5
REMARK    5  A    between atoms: C_5  and  N_6
REMARK    6  A    between atoms: C_7  and  C_9
REMARK    7  A    between atoms: C_22  and  C_25
REMARK                            x       y       z     vdW  Elec       q    Type
REMARK                         _______ _______ _______ _____ _____    ______ ____
ROOT
ATOM      1  C   UNL     1       6.215   0.512  -1.403  0.00  0.00    +0.037 A 
ATOM      2  C   UNL     1       6.598   1.835  -1.158  0.00  0.00    +0.015 A 
ATOM      3  C   UNL     1       5.643   2.794  -0.921  0.00  0.00    +0.024 A 
ATOM      4  C   UNL     1       4.290   2.462  -0.923  0.00  0.00    +0.031 A 
ATOM      5  C   UNL     1       3.905   1.143  -1.159  0.00  0.00    -0.019 A 
ATOM      6  C   UNL     1       4.859   0.176  -1.412  0.00  0.00    +0.019 A 
ATOM      7  C   UNL     1       2.458   0.837  -1.193  0.00  0.00    +0.049 C 
ATOM      8  C   UNL     1       1.934  -0.516  -0.877  0.00  0.00    -0.023 C 
ATOM      9  C   UNL     1       0.739  -0.387  -0.311  0.00  0.00    -0.030 C 
ATOM     10  C   UNL     1       0.384   1.095  -0.173  0.00  0.00    +0.033 C 
ATOM     11  C   UNL     1       1.774   1.742  -0.125  0.00  0.00    +0.029 C 
ATOM     12  C   UNL     1       1.899   3.159  -0.657  0.00  0.00    +0.106 C 
ATOM     13  N   UNL     1       3.347   3.456  -0.663  0.00  0.00    -0.336 N 
ATOM     14  H   UNL     1       3.648   4.361  -0.482  0.00  0.00    +0.147 HD
ENDROOT
BRANCH  12  15
ATOM     15  C   UNL     1       1.345   3.239  -2.057  0.00  0.00    -0.012 A 
ATOM     16  C   UNL     1       2.198   3.465  -3.136  0.00  0.00    -0.012 A 
ATOM     17  C   UNL     1       3.588   3.623  -2.946  0.00  0.00    +0.009 A 
ATOM     18  C   UNL     1       4.389   3.841  -4.019  0.00  0.00    +0.001 A 
ATOM     19  C   UNL     1       3.877   3.916  -5.315  0.00  0.00    +0.001 A 
ATOM     20  C   UNL     1       2.553   3.762  -5.569  0.00  0.00    +0.008 A 
ATOM     21  C   UNL     1       1.660   3.537  -4.499  0.00  0.00    -0.017 A 
ATOM     22  C   UNL     1       0.292   3.392  -4.721  0.00  0.00    +0.017 A 
ATOM     23  C   UNL     1      -0.561   3.172  -3.641  0.00  0.00    -0.017 A 
ATOM     24  C   UNL     1      -0.023   3.094  -2.280  0.00  0.00    -0.012 A 
ATOM     25  C   UNL     1      -0.915   2.869  -1.209  0.00  0.00    +0.009 A 
ATOM     26  C   UNL     1      -2.242   2.732  -1.461  0.00  0.00    +0.001 A 
ATOM     27  C   UNL     1      -2.754   2.806  -2.757  0.00  0.00    +0.001 A 
ATOM     28  C   UNL     1      -1.952   3.020  -3.831  0.00  0.00    +0.008 A 
ENDBRANCH  12  15
BRANCH   1  30
ATOM     29  N   UNL     1       8.544  -0.194  -1.640  0.00  0.00    -0.311 N 
ATOM     30  C   UNL     1       7.237  -0.522  -1.650  0.00  0.00    +0.244 C 
ATOM     31  O   UNL     1       6.901  -1.671  -1.862  0.00  0.00    -0.270 OA
ATOM     32  H   UNL     1       8.813   0.723  -1.470  0.00  0.00    +0.149 HD
BRANCH  29  33
ATOM     33  C   UNL     1       9.560  -1.221  -1.885  0.00  0.00    +0.107 C 
BRANCH  33  34
ATOM     34  C   UNL     1      10.951  -0.588  -1.819  0.00  0.00    +0.047 C 
BRANCH  34  35
ATOM     35  C   UNL     1      12.012  -1.661  -2.075  0.00  0.00    +0.161 C 
BRANCH  35  37
ATOM     36  C   UNL     1      14.380  -1.992  -2.240  0.00  0.00    +0.193 C 
ATOM     37  O   UNL     1      13.312  -1.071  -2.013  0.00  0.00    -0.383 OA
ENDBRANCH  35  37
ENDBRANCH  34  35
ENDBRANCH  33  34
ENDBRANCH  29  33
ENDBRANCH   1  30
TORSDOF 6
