REMARK  Name = ZINC19947973
REMARK  2 active torsions:
REMARK  status: ('A' for Active; 'I' for Inactive)
REMARK    1  A    between atoms: C_5  and  N_7
REMARK    2  A    between atoms: C_11  and  C_16
REMARK                            x       y       z     vdW  Elec       q    Type
REMARK                         _______ _______ _______ _____ _____    ______ ____
ROOT
ATOM      1  N   UNL     1       2.354   3.893   0.000  0.00  0.00    -0.296 N 
ATOM      2  C   UNL     1       2.498   4.673  -1.255  0.00  0.00    +0.127 C 
ATOM      3  C   UNL     1       3.995   4.493  -1.628  0.00  0.00    +0.129 C 
ATOM      4  N   UNL     1       4.229   3.091  -1.217  0.00  0.00    -0.269 N 
ATOM      5  C   UNL     1       3.510   2.990   0.072  0.00  0.00    +0.208 C 
ATOM      6  C   UNL     1       3.089   1.513   0.160  0.00  0.00    +0.067 C 
ATOM      7  C   UNL     1       4.241   0.829  -0.618  0.00  0.00    +0.100 C 
ATOM      8  C   UNL     1       4.766   1.910  -1.541  0.00  0.00    +0.218 C 
ATOM      9  O   UNL     1       5.559   1.731  -2.441  0.00  0.00    -0.276 OA
ENDROOT
BRANCH   1  14
ATOM     10  C   UNL     1      -0.893   2.537  -1.065  0.00  0.00    +0.002 A 
ATOM     11  C   UNL     1      -1.216   1.745   0.021  0.00  0.00    +0.003 A 
ATOM     12  C   UNL     1      -0.362   1.671   1.105  0.00  0.00    +0.040 A 
ATOM     13  C   UNL     1       0.825   2.381   1.102  0.00  0.00    +0.144 A 
ATOM     14  C   UNL     1       1.155   3.174   0.008  0.00  0.00    +0.067 A 
ATOM     15  C   UNL     1       0.291   3.249  -1.076  0.00  0.00    +0.026 A 
ATOM     16  F   UNL     1       1.662   2.304   2.159  0.00  0.00    -0.204 F 
ENDBRANCH   1  14
BRANCH   5  17
ATOM     17  C   UNL     1       4.412   3.369   1.218  0.00  0.00    +0.397 C 
ATOM     18  O   UNL     1       4.012   4.118   2.079  0.00  0.00    -0.242 OA
ATOM     19  O   UNL     1       5.658   2.877   1.283  0.00  0.00    -0.242 OA
ENDBRANCH   5  17
TORSDOF 2
