REMARK  Name = ZINC06603121
REMARK  3 active torsions:
REMARK  status: ('A' for Active; 'I' for Inactive)
REMARK    1  A    between atoms: C_4  and  N_7
REMARK    2  A    between atoms: N_7  and  N_8
REMARK    3  A    between atoms: C_9  and  C_11
REMARK                            x       y       z     vdW  Elec       q    Type
REMARK                         _______ _______ _______ _____ _____    ______ ____
ROOT
ATOM      1  C   UNL     1      -3.639  -0.927   0.031  0.00  0.00    +0.123 A 
ATOM      2  C   UNL     1      -2.489  -0.147   0.025  0.00  0.00    +0.032 A 
ATOM      3  C   UNL     1      -1.236  -0.788   0.009  0.00  0.00    +0.026 A 
ATOM      4  C   UNL     1       0.002  -0.004   0.002  0.00  0.00    -0.007 A 
ATOM      5  C   UNL     1      -0.017   1.393   0.010  0.00  0.00    +0.009 A 
ATOM      6  C   UNL     1       1.160   2.084   0.002  0.00  0.00    +0.001 A 
ATOM      7  C   UNL     1       2.380   1.415  -0.012  0.00  0.00    +0.001 A 
ATOM      8  C   UNL     1       2.432   0.053  -0.020  0.00  0.00    +0.008 A 
ATOM      9  C   UNL     1       1.240  -0.688  -0.013  0.00  0.00    -0.017 A 
ATOM     10  C   UNL     1       1.254  -2.097  -0.021  0.00  0.00    +0.012 A 
ATOM     11  C   UNL     1       0.101  -2.810  -0.015  0.00  0.00    +0.047 A 
ATOM     12  C   UNL     1      -1.153  -2.187   0.000  0.00  0.00    +0.140 A 
ATOM     13  O   UNL     1      -2.272  -2.942   0.006  0.00  0.00    -0.422 OA
ATOM     14  C   UNL     1      -3.495  -2.386   0.021  0.00  0.00    +0.350 A 
ATOM     15  O   UNL     1      -4.485  -3.094   0.025  0.00  0.00    -0.244 OA
ENDROOT
BRANCH   1  17
ATOM     16  N   UNL     1      -5.086   1.039   0.056  0.00  0.00    -0.232 N 
ATOM     17  C   UNL     1      -4.971  -0.303   0.047  0.00  0.00    +0.267 C 
ATOM     18  O   UNL     1      -5.969  -1.000   0.052  0.00  0.00    -0.268 OA
ATOM     19  H   UNL     1      -4.291   1.594   0.052  0.00  0.00    +0.173 HD
BRANCH  16  20
ATOM     20  N   UNL     1      -6.355   1.633   0.072  0.00  0.00    -0.264 N 
ATOM     21  H   UNL     1      -7.150   1.078   0.076  0.00  0.00    +0.170 HD
BRANCH  20  25
ATOM     22  C   UNL     1      -6.711   5.782   0.101  0.00  0.00    +0.000 A 
ATOM     23  C   UNL     1      -7.846   4.992   0.107  0.00  0.00    +0.002 A 
ATOM     24  C   UNL     1      -7.731   3.616   0.097  0.00  0.00    +0.024 A 
ATOM     25  C   UNL     1      -6.474   3.025   0.081  0.00  0.00    +0.044 A 
ATOM     26  C   UNL     1      -5.336   3.821   0.081  0.00  0.00    +0.024 A 
ATOM     27  C   UNL     1      -5.458   5.197   0.086  0.00  0.00    +0.002 A 
ENDBRANCH  20  25
ENDBRANCH  16  20
ENDBRANCH   1  17
TORSDOF 3
