REMARK  Name = ZINC42356414
REMARK  9 active torsions:
REMARK  status: ('A' for Active; 'I' for Inactive)
REMARK    1  A    between atoms: C_1  and  C_2
REMARK    2  A    between atoms: C_2  and  C_4
REMARK    3  A    between atoms: C_2  and  N_14
REMARK    4  A    between atoms: C_15  and  C_17
REMARK    5  A    between atoms: C_17  and  C_19
REMARK    6  A    between atoms: C_17  and  S_20
REMARK    7  A    between atoms: S_20  and  C_21
REMARK    8  A    between atoms: C_24  and  C_28
REMARK    9  A    between atoms: C_25  and  N_27
REMARK                            x       y       z     vdW  Elec       q    Type
REMARK                         _______ _______ _______ _____ _____    ______ ____
ROOT
ATOM      1  N   UNL     1      -1.372  -0.511   0.012  0.00  0.00    -0.308 N 
ATOM      2  C   UNL     1      -2.051  -0.643  -1.145  0.00  0.00    +0.227 C 
ATOM      3  O   UNL     1      -1.524  -0.341  -2.194  0.00  0.00    -0.275 OA
ATOM      4  H   UNL     1      -1.794  -0.752   0.852  0.00  0.00    +0.149 HD
ENDROOT
BRANCH   1   6
ATOM      5  C   UNL     1      -0.019   1.526   0.010  0.00  0.00    +0.033 C 
ATOM      6  C   UNL     1       0.002  -0.004   0.002  0.00  0.00    +0.100 C 
BRANCH   6   7
ATOM      7  C   UNL     1       0.731  -0.503   1.223  0.00  0.00    -0.027 A 
ATOM      8  C   UNL     1       0.066  -0.555   2.446  0.00  0.00    +0.006 A 
ATOM      9  C   UNL     1       0.695  -1.000   3.568  0.00  0.00    +0.009 A 
ATOM     10  C   UNL     1       2.035  -1.415   3.495  0.00  0.00    -0.018 A 
ATOM     11  C   UNL     1       2.718  -1.881   4.631  0.00  0.00    +0.008 A 
ATOM     12  C   UNL     1       4.016  -2.276   4.523  0.00  0.00    +0.001 A 
ATOM     13  C   UNL     1       4.681  -2.225   3.299  0.00  0.00    +0.001 A 
ATOM     14  C   UNL     1       4.052  -1.779   2.178  0.00  0.00    +0.008 A 
ATOM     15  C   UNL     1       2.712  -1.363   2.251  0.00  0.00    -0.018 A 
ATOM     16  C   UNL     1       2.027  -0.902   1.113  0.00  0.00    +0.014 A 
ENDBRANCH   6   7
ENDBRANCH   1   6
BRANCH   2  17
ATOM     17  C   UNL     1      -3.465  -1.164  -1.134  0.00  0.00    +0.137 C 
ATOM     18  C   UNL     1      -3.445  -2.690  -1.017  0.00  0.00    +0.029 C 
BRANCH  17  19
ATOM     19  S   UNL     1      -4.297  -0.687  -2.674  0.00  0.00    -0.074 S 
BRANCH  19  20
ATOM     20  C   UNL     1      -5.957  -1.232  -2.447  0.00  0.00    +0.191 A 
ATOM     21  N   UNL     1      -6.288  -1.831  -1.309  0.00  0.00    -0.229 NA
ATOM     22  C   UNL     1      -7.520  -2.256  -1.095  0.00  0.00    +0.136 A 
ATOM     23  C   UNL     1      -8.486  -2.069  -2.089  0.00  0.00    +0.109 A 
ATOM     24  C   UNL     1      -8.097  -1.428  -3.286  0.00  0.00    +0.138 A 
ATOM     25  N   UNL     1      -6.838  -1.027  -3.416  0.00  0.00    -0.206 NA
BRANCH  24  26
ATOM     26  N   UNL     1      -9.009  -1.218  -4.300  0.00  0.00    -0.342 N 
ATOM     27  H   UNL     1      -9.928  -1.512  -4.194  0.00  0.00    +0.144 HD
ATOM     28  H   UNL     1      -8.732  -0.777  -5.118  0.00  0.00    +0.144 HD
ENDBRANCH  24  26
BRANCH  23  29
ATOM     29  C   UNL     1      -9.834  -2.515  -1.899  0.00  0.00    +0.104 C 
ATOM     30  N   UNL     1     -10.903  -2.869  -1.748  0.00  0.00    -0.191 NA
ENDBRANCH  23  29
ENDBRANCH  19  20
ENDBRANCH  17  19
ENDBRANCH   2  17
TORSDOF 7
