REMARK  Name = ZINC09526830
REMARK  6 active torsions:
REMARK  status: ('A' for Active; 'I' for Inactive)
REMARK    1  A    between atoms: C_1  and  C_2
REMARK    2  A    between atoms: C_2  and  C_3
REMARK    3  A    between atoms: C_8  and  N_9
REMARK    4  A    between atoms: C_10  and  C_12
REMARK    5  A    between atoms: C_12  and  N_55
REMARK    6  A    between atoms: C_21  and  C_23
REMARK                            x       y       z     vdW  Elec       q    Type
REMARK                         _______ _______ _______ _____ _____    ______ ____
ROOT
ATOM      1  C   UNL     1       2.276  -0.029  -1.181  0.00  0.00    -0.074 C 
ATOM      2  C   UNL     1       3.420  -1.046  -1.165  0.00  0.00    +0.031 C 
ATOM      3  C   UNL     1       4.749  -0.314  -1.355  0.00  0.00    +0.124 C 
ATOM      4  C   UNL     1       4.916   0.746  -0.265  0.00  0.00    +0.031 C 
ATOM      5  C   UNL     1       3.726   1.707  -0.308  0.00  0.00    -0.074 C 
ATOM      6  N   UNL     1       4.789   0.318  -2.677  0.00  0.00    -0.286 N 
ATOM      7  C   UNL     1       5.836  -0.227  -3.332  0.00  0.00    +0.264 C 
ATOM      8  O   UNL     1       6.186   0.048  -4.462  0.00  0.00    -0.268 OA
ATOM      9  C   UNL     1       6.487  -1.219  -2.440  0.00  0.00    +0.130 C 
ATOM     10  N   UNL     1       5.861  -1.266  -1.306  0.00  0.00    -0.253 NA
ATOM     11  H   UNL     1       4.182   0.995  -3.015  0.00  0.00    +0.151 HD
ATOM     12  N   UNL     1       2.482   0.941  -0.083  0.00  0.00    +0.386 N 
ATOM     13  H   UNL     1       2.563   0.428   0.803  0.00  0.00    -0.081 HD
ENDROOT
BRANCH   9  14
ATOM     14  C   UNL     1       7.672  -2.032  -2.792  0.00  0.00    +0.005 A 
ATOM     15  C   UNL     1       8.204  -2.933  -1.868  0.00  0.00    +0.011 A 
ATOM     16  C   UNL     1       9.305  -3.692  -2.204  0.00  0.00    +0.020 A 
ATOM     17  C   UNL     1       9.890  -3.554  -3.452  0.00  0.00    +0.041 A 
ATOM     18  C   UNL     1       9.370  -2.658  -4.371  0.00  0.00    +0.020 A 
ATOM     19  C   UNL     1       8.266  -1.897  -4.048  0.00  0.00    +0.011 A 
ATOM     20 CL   UNL     1      11.281  -4.507  -3.865  0.00  0.00    -0.084 Cl
ENDBRANCH   9  14
BRANCH  12  21
ATOM     21  C   UNL     1       1.330   1.861  -0.001  0.00  0.00    +0.019 C 
BRANCH  21  23
ATOM     22  N   UNL     1       0.565   3.660   1.515  0.00  0.00    -0.287 N 
ATOM     23  C   UNL     1       1.446   2.671   1.264  0.00  0.00    +0.201 C 
ATOM     24  O   UNL     1       2.329   2.430   2.060  0.00  0.00    -0.278 OA
ATOM     25  H   UNL     1      -0.178   3.812   0.911  0.00  0.00    +0.155 HD
BRANCH  22  31
ATOM     26  C   UNL     1       0.347   5.803   2.607  0.00  0.00    -0.026 A 
ATOM     27  C   UNL     1       0.503   6.597   3.727  0.00  0.00    +0.005 A 
ATOM     28  C   UNL     1       1.032   6.062   4.887  0.00  0.00    +0.000 A 
ATOM     29  C   UNL     1       1.407   4.731   4.930  0.00  0.00    +0.002 A 
ATOM     30  C   UNL     1       1.249   3.931   3.816  0.00  0.00    +0.023 A 
ATOM     31  C   UNL     1       0.722   4.467   2.647  0.00  0.00    +0.036 A 
BRANCH  26  33
ATOM     32  C   UNL     1      -1.735   6.115   1.297  0.00  0.00    +0.009 C 
ATOM     33  C   UNL     1      -0.230   6.387   1.343  0.00  0.00    +0.033 C 
ENDBRANCH  26  33
ENDBRANCH  22  31
ENDBRANCH  21  23
ENDBRANCH  12  21
TORSDOF 5
