REMARK  Name = ZINC63187785
REMARK  7 active torsions:
REMARK  status: ('A' for Active; 'I' for Inactive)
REMARK    1  A    between atoms: C_7  and  C_10
REMARK    2  A    between atoms: C_10  and  C_11
REMARK    3  A    between atoms: C_11  and  C_13
REMARK    4  A    between atoms: C_11  and  N_24
REMARK    5  A    between atoms: N_15  and  C_16
REMARK    6  A    between atoms: C_19  and  C_22
REMARK    7  A    between atoms: C_25  and  C_27
REMARK                            x       y       z     vdW  Elec       q    Type
REMARK                         _______ _______ _______ _____ _____    ______ ____
ROOT
ATOM      1  C   UNL     1       0.458  -3.654  -1.468  0.00  0.00    +0.163 C 
ENDROOT
BRANCH   1   2
ATOM      2  C   UNL     1      -0.385  -4.903  -1.450  0.00  0.00    +0.238 C 
ATOM      3  O   UNL     1      -1.576  -4.834  -1.668  0.00  0.00    -0.273 OA
ATOM      4  N   UNL     1       0.185  -6.097  -1.193  0.00  0.00    -0.284 N 
ATOM      5  H   UNL     1       1.147  -6.162  -1.085  0.00  0.00    +0.155 HD
BRANCH   4   6
ATOM      6  C   UNL     1      -0.609  -7.239  -1.081  0.00  0.00    +0.034 A 
ATOM      7  C   UNL     1      -1.737  -7.381  -1.882  0.00  0.00    +0.024 A 
ATOM      8  C   UNL     1      -2.523  -8.507  -1.774  0.00  0.00    +0.020 A 
ATOM      9  C   UNL     1      -2.185  -9.508  -0.859  0.00  0.00    +0.052 A 
ATOM     10  C   UNL     1      -1.051  -9.362  -0.056  0.00  0.00    +0.020 A 
ATOM     11  C   UNL     1      -0.267  -8.236  -0.172  0.00  0.00    +0.024 A 
BRANCH   9  12
ATOM     12  C   UNL     1      -3.000 -10.680  -0.743  0.00  0.00    +0.099 C 
ATOM     13  N   UNL     1      -3.647 -11.609  -0.652  0.00  0.00    -0.191 NA
ENDBRANCH   9  12
ENDBRANCH   4   6
ENDBRANCH   1   2
BRANCH   1  14
ATOM     14  N   UNL     1      -0.241  -2.604  -2.213  0.00  0.00    -0.299 N 
ATOM     15  C   UNL     1      -1.450  -2.175  -1.799  0.00  0.00    +0.251 C 
ATOM     16  O   UNL     1      -1.961  -2.660  -0.807  0.00  0.00    -0.270 OA
ATOM     17  H   UNL     1       0.167  -2.217  -3.004  0.00  0.00    +0.150 HD
BRANCH  15  18
ATOM     18  C   UNL     1      -2.149  -1.124  -2.545  0.00  0.00    +0.074 A 
ATOM     19  C   UNL     1      -3.382  -0.544  -2.288  0.00  0.00    +0.021 A 
ATOM     20  C   UNL     1      -3.780   0.428  -3.175  0.00  0.00    +0.008 A 
ATOM     21  C   UNL     1      -2.966   0.748  -4.211  0.00  0.00    +0.046 A 
ATOM     22  S   UNL     1      -1.633  -0.254  -4.012  0.00  0.00    -0.092 S 
ENDBRANCH  15  18
ENDBRANCH   1  14
BRANCH   1  23
ATOM     23  C   UNL     1       0.704  -3.184  -0.033  0.00  0.00    +0.065 C 
BRANCH  23  30
ATOM     24  C   UNL     1       0.004   1.351  -0.002  0.00  0.00    +0.001 A 
ATOM     25  C   UNL     1       1.187   2.102  -0.020  0.00  0.00    +0.002 A 
ATOM     26  C   UNL     1       2.411   1.534  -0.043  0.00  0.00    +0.026 A 
ATOM     27  C   UNL     1       2.547   0.118  -0.051  0.00  0.00    +0.043 A 
ATOM     28  N   UNL     1       3.603  -0.657  -0.073  0.00  0.00    -0.380 N 
ATOM     29  C   UNL     1       3.158  -2.055  -0.071  0.00  0.00    +0.144 C 
ATOM     30  C   UNL     1       1.646  -2.009  -0.044  0.00  0.00    -0.039 C 
ATOM     31  C   UNL     1       1.312  -0.698  -0.033  0.00  0.00    -0.001 A 
ATOM     32  C   UNL     1       0.020  -0.002  -0.007  0.00  0.00    +0.010 A 
ATOM     33  H   UNL     1       4.526  -0.357  -0.088  0.00  0.00    +0.160 HD
ENDBRANCH  23  30
ENDBRANCH   1  23
TORSDOF 7
