REMARK  Name = ZINC35242800
REMARK  10 active torsions:
REMARK  status: ('A' for Active; 'I' for Inactive)
REMARK    1  A    between atoms: C_1  and  C_2
REMARK    2  A    between atoms: C_7  and  N_12
REMARK    3  A    between atoms: C_9  and  C_11
REMARK    4  A    between atoms: C_13  and  C_15
REMARK    5  A    between atoms: C_23  and  C_33
REMARK    6  A    between atoms: N_29  and  C_30
REMARK    7  A    between atoms: N_35  and  C_36
REMARK    8  A    between atoms: C_39  and  C_42
REMARK    9  A    between atoms: C_42  and  C_43
REMARK   10  A    between atoms: C_42  and  C_44
REMARK                            x       y       z     vdW  Elec       q    Type
REMARK                         _______ _______ _______ _____ _____    ______ ____
ROOT
ATOM      1  C   UNL     1       0.878  -0.486   5.755  0.00  0.00    +0.199 C 
ATOM      2  C   UNL     1       0.251  -1.569   6.577  0.00  0.00    +0.127 C 
ATOM      3  C   UNL     1      -1.233  -1.349   6.809  0.00  0.00    +0.009 C 
ATOM      4  C   UNL     1      -1.640  -2.380   7.535  0.00  0.00    +0.004 C 
ATOM      5  C   UNL     1      -0.374  -3.205   7.798  0.00  0.00    +0.155 C 
ATOM      6  O   UNL     1       0.393  -2.969   6.545  0.00  0.00    -0.358 OA
ATOM      7  C   UNL     1       0.391  -2.312   8.851  0.00  0.00    +0.123 C 
ATOM      8  C   UNL     1       1.022  -1.272   7.926  0.00  0.00    +0.128 C 
ATOM      9  C   UNL     1       0.864   0.192   8.002  0.00  0.00    +0.224 C 
ATOM     10  O   UNL     1       0.740   0.853   9.011  0.00  0.00    -0.275 OA
ATOM     11  N   UNL     1       0.885   0.665   6.712  0.00  0.00    -0.283 N 
ENDROOT
BRANCH   1  13
ATOM     12  N   UNL     1       0.146  -0.931   3.434  0.00  0.00    -0.311 N 
ATOM     13  C   UNL     1       0.037  -0.174   4.544  0.00  0.00    +0.237 C 
ATOM     14  O   UNL     1      -0.739   0.758   4.568  0.00  0.00    -0.274 OA
ATOM     15  H   UNL     1       0.767  -1.677   3.415  0.00  0.00    +0.149 HD
BRANCH  12  21
ATOM     16  C   UNL     1      -1.011   0.674  -0.346  0.00  0.00    +0.008 C 
ATOM     17  C   UNL     1      -0.828  -0.840  -0.228  0.00  0.00    -0.009 C 
ATOM     18  C   UNL     1      -2.196  -1.509  -0.084  0.00  0.00    +0.003 C 
ATOM     19  C   UNL     1      -2.893  -0.981   1.171  0.00  0.00    +0.002 C 
ATOM     20  C   UNL     1      -2.040  -1.297   2.400  0.00  0.00    +0.022 C 
ATOM     21  C   UNL     1      -0.671  -0.628   2.257  0.00  0.00    +0.076 C 
ATOM     22  C   UNL     1       0.026  -1.157   1.002  0.00  0.00    +0.009 C 
ATOM     23  C   UNL     1       1.394  -0.488   0.858  0.00  0.00    +0.009 C 
ENDBRANCH  12  21
ENDBRANCH   1  13
BRANCH   7  24
ATOM     24  C   UNL     1      -0.570  -1.683   9.827  0.00  0.00    +0.224 C 
ATOM     25  O   UNL     1      -0.660  -0.475   9.897  0.00  0.00    -0.275 OA
ATOM     26  N   UNL     1      -1.329  -2.462  10.622  0.00  0.00    -0.285 N 
ATOM     27  H   UNL     1      -1.314  -3.426  10.514  0.00  0.00    +0.155 HD
BRANCH  26  28
ATOM     28  C   UNL     1      -2.139  -1.881  11.604  0.00  0.00    +0.033 A 
ATOM     29  C   UNL     1      -3.353  -2.466  11.941  0.00  0.00    +0.023 A 
ATOM     30  C   UNL     1      -4.150  -1.889  12.910  0.00  0.00    +0.006 A 
ATOM     31  C   UNL     1      -3.741  -0.731  13.545  0.00  0.00    -0.045 A 
ATOM     32  C   UNL     1      -2.533  -0.146  13.212  0.00  0.00    +0.006 A 
ATOM     33  C   UNL     1      -1.728  -0.721  12.248  0.00  0.00    +0.023 A 
BRANCH  31  34
ATOM     34  C   UNL     1      -4.613  -0.105  14.603  0.00  0.00    +0.013 C 
ATOM     35  C   UNL     1      -3.850  -0.052  15.928  0.00  0.00    +0.012 C 
ATOM     36  C   UNL     1      -4.994   1.314  14.175  0.00  0.00    +0.012 C 
ENDBRANCH  31  34
ENDBRANCH  26  28
ENDBRANCH   7  24
BRANCH  11  37
ATOM     37  C   UNL     1       0.911   2.079   6.331  0.00  0.00    +0.077 C 
ATOM     38  C   UNL     1       1.118   3.107   7.445  0.00  0.00    +0.024 C 
ATOM     39  C   UNL     1      -0.256   2.956   6.790  0.00  0.00    +0.024 C 
ENDBRANCH  11  37
TORSDOF 6
