REMARK  Name = ZINC41020473
REMARK  15 active torsions:
REMARK  status: ('A' for Active; 'I' for Inactive)
REMARK    1  A    between atoms: C_1  and  C_2
REMARK    2  A    between atoms: C_2  and  C_3
REMARK    3  A    between atoms: C_3  and  C_4
REMARK    4  A    between atoms: C_4  and  S_5
REMARK    5  A    between atoms: S_5  and  C_6
REMARK    6  A    between atoms: C_11  and  C_29
REMARK    7  A    between atoms: C_13  and  C_17
REMARK    8  A    between atoms: C_14  and  C_16
REMARK    9  A    between atoms: N_19  and  C_20
REMARK   10  A    between atoms: C_25  and  O_26
REMARK   11  A    between atoms: O_26  and  C_27
REMARK   12  A    between atoms: C_27  and  C_28
REMARK   13  A    between atoms: C_32  and  O_37
REMARK   14  A    between atoms: C_33  and  O_35
REMARK   15  A    between atoms: O_35  and  C_36
REMARK                            x       y       z     vdW  Elec       q    Type
REMARK                         _______ _______ _______ _____ _____    ______ ____
ROOT
ATOM      1  C   UNL     1       0.409  -4.236  -1.987  0.00  0.00    +0.210 A 
ATOM      2  N   UNL     1      -0.190  -4.982  -1.047  0.00  0.00    -0.187 NA
ATOM      3  C   UNL     1      -0.029  -6.247  -1.326  0.00  0.00    +0.219 A 
ATOM      4  N   UNL     1       0.693  -6.338  -2.470  0.00  0.00    -0.220 N 
ATOM      5  N   UNL     1       0.956  -5.032  -2.881  0.00  0.00    -0.141 NA
ATOM      6  C   UNL     1       1.077  -7.606  -3.085  0.00  0.00    +0.177 C 
ATOM      7  C   UNL     1       0.311  -8.729  -2.439  0.00  0.00    +0.060 C 
ATOM      8  C   UNL     1      -0.391  -8.579  -1.306  0.00  0.00    +0.018 C 
ATOM      9  N   UNL     1      -0.474  -7.375  -0.650  0.00  0.00    -0.287 N 
ATOM     10  C   UNL     1      -1.113  -9.771  -0.734  0.00  0.00    +0.061 C 
ATOM     11  H   UNL     1      -0.829  -7.315   0.250  0.00  0.00    +0.155 HD
ENDROOT
BRANCH   6  12
ATOM     12  C   UNL     1       2.555  -7.829  -2.894  0.00  0.00    -0.015 A 
ATOM     13  C   UNL     1       3.100  -7.789  -1.624  0.00  0.00    +0.010 A 
ATOM     14  C   UNL     1       4.455  -7.993  -1.444  0.00  0.00    +0.049 A 
ATOM     15  C   UNL     1       5.270  -8.241  -2.537  0.00  0.00    +0.158 A 
ATOM     16  C   UNL     1       4.721  -8.282  -3.815  0.00  0.00    +0.162 A 
ATOM     17  C   UNL     1       3.362  -8.081  -3.988  0.00  0.00    +0.055 A 
BRANCH  16  18
ATOM     18  O   UNL     1       5.517  -8.525  -4.891  0.00  0.00    -0.491 OA
ATOM     19  C   UNL     1       4.901  -8.471  -6.179  0.00  0.00    +0.277 C 
ENDBRANCH  16  18
BRANCH  15  20
ATOM     20  O   UNL     1       6.604  -8.442  -2.361  0.00  0.00    -0.503 OA
ATOM     21  H   UNL     1       6.847  -9.367  -2.220  0.00  0.00    +0.292 HD
ENDBRANCH  15  20
ENDBRANCH   6  12
BRANCH   7  22
ATOM     22  C   UNL     1       0.333 -10.002  -3.055  0.00  0.00    +0.248 C 
ATOM     23  O   UNL     1      -0.432 -10.250  -3.970  0.00  0.00    -0.270 OA
ATOM     24  N   UNL     1       1.201 -10.941  -2.630  0.00  0.00    -0.279 N 
ATOM     25  H   UNL     1       1.864 -10.721  -1.957  0.00  0.00    +0.155 HD
BRANCH  24  26
ATOM     26  C   UNL     1       1.147 -12.237  -3.160  0.00  0.00    +0.076 A 
ATOM     27  C   UNL     1       0.714 -12.437  -4.463  0.00  0.00    +0.027 A 
ATOM     28  C   UNL     1       0.661 -13.716  -4.984  0.00  0.00    +0.002 A 
ATOM     29  C   UNL     1       1.039 -14.798  -4.210  0.00  0.00    +0.004 A 
ATOM     30  C   UNL     1       1.472 -14.606  -2.911  0.00  0.00    +0.047 A 
ATOM     31  C   UNL     1       1.533 -13.326  -2.383  0.00  0.00    +0.142 A 
BRANCH  31  32
ATOM     32  O   UNL     1       1.963 -13.136  -1.107  0.00  0.00    -0.490 OA
BRANCH  32  33
ATOM     33  C   UNL     1       2.395 -14.293  -0.388  0.00  0.00    +0.226 C 
ATOM     34  C   UNL     1       2.870 -13.879   1.006  0.00  0.00    +0.048 C 
ENDBRANCH  32  33
ENDBRANCH  31  32
ENDBRANCH  24  26
ENDBRANCH   7  22
BRANCH   1  35
ATOM     35  S   UNL     1       0.450  -2.475  -2.023  0.00  0.00    -0.084 S 
BRANCH  35  36
ATOM     36  C   UNL     1      -0.467  -1.984  -0.537  0.00  0.00    +0.077 C 
BRANCH  36  37
ATOM     37  C   UNL     1      -0.509  -0.458  -0.444  0.00  0.00    +0.011 C 
BRANCH  37  39
ATOM     38  C   UNL     1      -1.324   1.483   0.902  0.00  0.00    +0.004 C 
ATOM     39  C   UNL     1      -1.282  -0.044   0.809  0.00  0.00    -0.003 C 
ENDBRANCH  37  39
ENDBRANCH  36  37
ENDBRANCH  35  36
ENDBRANCH   1  35
TORSDOF 11
