REMARK  Name = ZINC13719926
REMARK  11 active torsions:
REMARK  status: ('A' for Active; 'I' for Inactive)
REMARK    1  A    between atoms: C_1  and  C_2
REMARK    2  A    between atoms: C_2  and  O_3
REMARK    3  A    between atoms: O_3  and  C_4
REMARK    4  A    between atoms: C_4  and  C_6
REMARK    5  A    between atoms: C_11  and  C_13
REMARK    6  A    between atoms: C_11  and  C_26
REMARK    7  A    between atoms: C_11  and  N_72
REMARK    8  A    between atoms: C_18  and  C_25
REMARK    9  A    between atoms: C_19  and  C_24
REMARK   10  A    between atoms: C_22  and  O_23
REMARK   11  A    between atoms: N_30  and  C_31
REMARK                            x       y       z     vdW  Elec       q    Type
REMARK                         _______ _______ _______ _____ _____    ______ ____
ROOT
ATOM      1  C   UNL     1       1.817  -1.796  -0.025  0.00  0.00    +0.039 C 
ENDROOT
BRANCH   1   2
ATOM      2  C   UNL     1       2.332  -2.154   1.346  0.00  0.00    +0.008 A 
ATOM      3  C   UNL     1       2.664  -1.169   2.228  0.00  0.00    +0.017 A 
ATOM      4  C   UNL     1       3.138  -1.546   3.501  0.00  0.00    +0.001 A 
ATOM      5  C   UNL     1       3.493  -0.586   4.461  0.00  0.00    +0.010 A 
ATOM      6  C   UNL     1       3.950  -0.988   5.679  0.00  0.00    +0.004 A 
ATOM      7  C   UNL     1       4.071  -2.341   5.986  0.00  0.00    -0.045 A 
ATOM      8  C   UNL     1       3.736  -3.299   5.078  0.00  0.00    -0.021 A 
ATOM      9  C   UNL     1       3.260  -2.923   3.810  0.00  0.00    +0.078 A 
ATOM     10  N   UNL     1       2.922  -3.843   2.900  0.00  0.00    -0.213 NA
ATOM     11  C   UNL     1       2.475  -3.497   1.712  0.00  0.00    +0.215 A 
ATOM     12  C   UNL     1       3.875  -4.758   5.432  0.00  0.00    +0.046 C 
ATOM     13  C   UNL     1       4.581  -2.752   7.343  0.00  0.00    +0.044 C 
BRANCH  11  14
ATOM     14  O   UNL     1       2.146  -4.465   0.822  0.00  0.00    -0.492 OA
ATOM     15  H   UNL     1       2.877  -4.742   0.253  0.00  0.00    +0.294 HD
ENDBRANCH  11  14
ENDBRANCH   1   2
BRANCH   1  21
ATOM     16  C   UNL     1       4.769  -1.299  -3.078  0.00  0.00    +0.094 C 
ATOM     17  C   UNL     1       3.480  -2.065  -3.392  0.00  0.00    -0.004 C 
ATOM     18  C   UNL     1       2.406  -1.687  -2.370  0.00  0.00    -0.077 C 
ATOM     19  C   UNL     1       4.085  -1.258  -0.677  0.00  0.00    -0.077 C 
ATOM     20  C   UNL     1       5.210  -1.624  -1.648  0.00  0.00    -0.004 C 
ATOM     21  N   UNL     1       2.882  -2.046  -1.018  0.00  0.00    +0.389 N 
ATOM     22  H   UNL     1       3.122  -3.045  -1.004  0.00  0.00    -0.080 HD
BRANCH  16  23
ATOM     23  C   UNL     1       5.848  -1.712  -4.045  0.00  0.00    +0.310 C 
ATOM     24  O   UNL     1       5.612  -2.533  -4.899  0.00  0.00    -0.251 OA
BRANCH  23  25
ATOM     25  O   UNL     1       7.071  -1.166  -3.958  0.00  0.00    -0.465 OA
BRANCH  25  27
ATOM     26  C   UNL     1       9.383  -0.883  -4.669  0.00  0.00    +0.048 C 
ATOM     27  C   UNL     1       8.061  -1.610  -4.923  0.00  0.00    +0.229 C 
ENDBRANCH  25  27
ENDBRANCH  23  25
ENDBRANCH  16  23
ENDBRANCH   1  21
BRANCH   1  28
ATOM     28  C   UNL     1       1.404  -0.347  -0.044  0.00  0.00    +0.143 A 
ATOM     29  N   UNL     1       2.201   0.693  -0.076  0.00  0.00    -0.115 NA
ATOM     30  N   UNL     1       1.470   1.754  -0.083  0.00  0.00    -0.023 NA
ATOM     31  N   UNL     1       0.228   1.418  -0.055  0.00  0.00    -0.044 NA
ATOM     32  N   UNL     1       0.146   0.131  -0.030  0.00  0.00    -0.227 N 
BRANCH  32  33
ATOM     33  C   UNL     1      -1.085  -0.662   0.005  0.00  0.00    +0.111 C 
ATOM     34  C   UNL     1      -1.927  -0.353  -1.235  0.00  0.00    +0.027 C 
ATOM     35  C   UNL     1      -3.213  -1.181  -1.198  0.00  0.00    +0.002 C 
ATOM     36  C   UNL     1      -4.010  -0.829   0.059  0.00  0.00    +0.000 C 
ATOM     37  C   UNL     1      -3.169  -1.138   1.300  0.00  0.00    +0.002 C 
ATOM     38  C   UNL     1      -1.883  -0.310   1.263  0.00  0.00    +0.027 C 
ENDBRANCH  32  33
ENDBRANCH   1  28
TORSDOF 8
