REMARK  Name = ZINC09347458
REMARK  12 active torsions:
REMARK  status: ('A' for Active; 'I' for Inactive)
REMARK    1  A    between atoms: C_1  and  C_2
REMARK    2  A    between atoms: C_2  and  C_3
REMARK    3  A    between atoms: C_3  and  C_4
REMARK    4  A    between atoms: C_10  and  S_12
REMARK    5  A    between atoms: S_12  and  C_13
REMARK    6  A    between atoms: C_13  and  C_15
REMARK    7  A    between atoms: C_13  and  C_16
REMARK    8  A    between atoms: N_18  and  C_19
REMARK    9  A    between atoms: C_20  and  C_29
REMARK   10  A    between atoms: C_29  and  O_31
REMARK   11  A    between atoms: O_31  and  C_32
REMARK   12  A    between atoms: C_32  and  C_33
REMARK                            x       y       z     vdW  Elec       q    Type
REMARK                         _______ _______ _______ _____ _____    ______ ____
ROOT
ATOM      1  C   UNL     1       1.147   1.655   0.000  0.00  0.00    +0.231 C 
ATOM      2  O   UNL     1       1.130   2.868   0.007  0.00  0.00    -0.274 OA
ATOM      3  N   UNL     1      -0.011   0.966   0.007  0.00  0.00    -0.278 N 
ATOM      4  H   UNL     1       0.002  -0.004   0.002  0.00  0.00    +0.155 HD
ENDROOT
BRANCH   3   5
ATOM      5  C   UNL     1      -1.221   1.643   0.017  0.00  0.00    +0.086 A 
ATOM      6  C   UNL     1      -2.504   1.115   0.014  0.00  0.00    +0.091 A 
ATOM      7  C   UNL     1      -3.620   2.051   0.034  0.00  0.00    -0.021 A 
ATOM      8  C   UNL     1      -3.270   3.355   0.035  0.00  0.00    -0.004 A 
ATOM      9  S   UNL     1      -1.498   3.352   0.027  0.00  0.00    -0.077 S 
ATOM     10  C   UNL     1      -4.177   4.546   0.028  0.00  0.00    +0.043 C 
ATOM     11  C   UNL     1      -5.250   4.372   1.111  0.00  0.00    +0.005 C 
ATOM     12  C   UNL     1      -6.442   3.645   0.496  0.00  0.00    +0.001 C 
ATOM     13  C   UNL     1      -5.964   2.661  -0.570  0.00  0.00    +0.005 C 
ATOM     14  C   UNL     1      -5.073   1.592   0.053  0.00  0.00    +0.037 C 
BRANCH   6  15
ATOM     15  C   UNL     1      -2.728  -0.332  -0.004  0.00  0.00    +0.342 C 
ATOM     16  O   UNL     1      -2.818  -0.946   1.042  0.00  0.00    -0.245 OA
BRANCH  15  17
ATOM     17  O   UNL     1      -2.835  -0.983  -1.180  0.00  0.00    -0.461 OA
BRANCH  17  18
ATOM     18  C   UNL     1      -3.057  -2.417  -1.122  0.00  0.00    +0.229 C 
ATOM     19  C   UNL     1      -3.151  -2.976  -2.542  0.00  0.00    +0.048 C 
ENDBRANCH  17  18
ENDBRANCH  15  17
ENDBRANCH   6  15
ENDBRANCH   3   5
BRANCH   1  20
ATOM     20  C   UNL     1       2.462   0.920  -0.017  0.00  0.00    +0.136 C 
ATOM     21  C   UNL     1       2.798   0.445   1.398  0.00  0.00    +0.029 C 
BRANCH  20  22
ATOM     22  S   UNL     1       3.769   2.030  -0.608  0.00  0.00    -0.084 S 
BRANCH  22  29
ATOM     23  C   UNL     1       9.092  -2.041  -0.941  0.00  0.00    +0.219 C 
ATOM     24  O   UNL     1       8.220  -2.785  -0.545  0.00  0.00    -0.275 OA
ATOM     25  N   UNL     1       8.814  -0.745  -1.186  0.00  0.00    -0.263 N 
ATOM     26  C   UNL     1       7.524  -0.260  -0.983  0.00  0.00    +0.189 A 
ATOM     27  N   UNL     1       6.436  -0.885  -0.563  0.00  0.00    -0.125 NA
ATOM     28  N   UNL     1       5.333  -0.290  -0.428  0.00  0.00    -0.133 NA
ATOM     29  C   UNL     1       5.192   0.997  -0.710  0.00  0.00    +0.161 A 
ATOM     30  S   UNL     1       6.864   1.388  -1.218  0.00  0.00    -0.024 S 
ATOM     31  H   UNL     1       9.511  -0.150  -1.502  0.00  0.00    +0.157 HD
BRANCH  23  32
ATOM     32  C   UNL     1      10.488  -2.566  -1.160  0.00  0.00    +0.096 C 
BRANCH  32  34
ATOM     33  C   UNL     1      11.950  -4.588  -1.034  0.00  0.00    +0.004 C 
ATOM     34  C   UNL     1      10.533  -4.055  -0.811  0.00  0.00    +0.006 C 
ENDBRANCH  32  34
ENDBRANCH  23  32
ENDBRANCH  22  29
ENDBRANCH  20  22
ENDBRANCH   1  20
TORSDOF 9
