REMARK  Name = ZINC40923398
REMARK  11 active torsions:
REMARK  status: ('A' for Active; 'I' for Inactive)
REMARK    1  A    between atoms: C_1  and  C_2
REMARK    2  A    between atoms: C_7  and  C_8
REMARK    3  A    between atoms: C_8  and  O_9
REMARK    4  A    between atoms: O_9  and  C_10
REMARK    5  A    between atoms: C_15  and  C_16
REMARK    6  A    between atoms: C_18  and  C_27
REMARK    7  A    between atoms: C_19  and  C_26
REMARK    8  A    between atoms: C_27  and  O_29
REMARK    9  A    between atoms: O_29  and  C_30
REMARK   10  A    between atoms: C_30  and  C_31
REMARK   11  A    between atoms: C_30  and  C_32
REMARK                            x       y       z     vdW  Elec       q    Type
REMARK                         _______ _______ _______ _____ _____    ______ ____
ROOT
ATOM      1  C   UNL     1       0.190  -2.772   5.703  0.00  0.00    +0.184 C 
ATOM      2  C   UNL     1      -1.048  -3.450   6.226  0.00  0.00    +0.082 C 
ATOM      3  C   UNL     1      -1.080  -4.129   7.384  0.00  0.00    +0.020 C 
ATOM      4  N   UNL     1       0.029  -4.267   8.182  0.00  0.00    -0.286 N 
ATOM      5  C   UNL     1       1.254  -3.907   7.640  0.00  0.00    +0.240 A 
ATOM      6  N   UNL     1       1.346  -3.211   6.477  0.00  0.00    -0.201 N 
ATOM      7  N   UNL     1       2.710  -3.043   6.247  0.00  0.00    -0.042 NA
ATOM      8  N   UNL     1       3.322  -3.613   7.235  0.00  0.00    -0.021 NA
ATOM      9  N   UNL     1       2.468  -4.122   8.059  0.00  0.00    -0.092 NA
ATOM     10  C   UNL     1      -2.376  -4.759   7.823  0.00  0.00    +0.061 C 
ATOM     11  H   UNL     1      -0.042  -4.604   9.089  0.00  0.00    +0.155 HD
ENDROOT
BRANCH   1  17
ATOM     12  C   UNL     1       0.092  -0.476   4.700  0.00  0.00    +0.127 A 
ATOM     13  C   UNL     1      -0.054   0.898   4.820  0.00  0.00    +0.046 A 
ATOM     14  C   UNL     1      -0.248   1.465   6.065  0.00  0.00    +0.004 A 
ATOM     15  C   UNL     1      -0.297   0.663   7.191  0.00  0.00    +0.001 A 
ATOM     16  C   UNL     1      -0.151  -0.706   7.074  0.00  0.00    +0.009 A 
ATOM     17  C   UNL     1       0.038  -1.278   5.830  0.00  0.00    +0.023 A 
BRANCH  12  18
ATOM     18  O   UNL     1       0.282  -1.036   3.476  0.00  0.00    -0.487 OA
BRANCH  18  19
ATOM     19  C   UNL     1       0.327  -0.149   2.357  0.00  0.00    +0.264 C 
BRANCH  19  26
ATOM     20  C   UNL     1       0.492   1.203  -0.191  0.00  0.00    +0.044 C 
ATOM     21  C   UNL     1       0.623  -0.297  -0.124  0.00  0.00    -0.044 A 
ATOM     22  C   UNL     1       0.827  -1.026  -1.281  0.00  0.00    +0.004 A 
ATOM     23  C   UNL     1       0.947  -2.401  -1.220  0.00  0.00    +0.000 A 
ATOM     24  C   UNL     1       0.863  -3.049  -0.001  0.00  0.00    +0.000 A 
ATOM     25  C   UNL     1       0.660  -2.320   1.156  0.00  0.00    +0.007 A 
ATOM     26  C   UNL     1       0.544  -0.944   1.095  0.00  0.00    -0.007 A 
ENDBRANCH  19  26
ENDBRANCH  18  19
ENDBRANCH  12  18
ENDBRANCH   1  17
BRANCH   2  27
ATOM     27  C   UNL     1      -2.234  -3.368   5.462  0.00  0.00    +0.339 C 
ATOM     28  O   UNL     1      -2.401  -4.115   4.516  0.00  0.00    -0.245 OA
BRANCH  27  29
ATOM     29  O   UNL     1      -3.181  -2.462   5.782  0.00  0.00    -0.459 OA
BRANCH  29  30
ATOM     30  C   UNL     1      -4.354  -2.434   4.966  0.00  0.00    +0.171 C 
ATOM     31  C   UNL     1      -5.401  -3.388   5.546  0.00  0.00    +0.052 C 
ATOM     32  C   UNL     1      -4.921  -1.014   4.935  0.00  0.00    +0.052 C 
ENDBRANCH  29  30
ENDBRANCH  27  29
ENDBRANCH   2  27
TORSDOF 7
