REMARK  Name = ZINC63217201
REMARK  10 active torsions:
REMARK  status: ('A' for Active; 'I' for Inactive)
REMARK    1  A    between atoms: C_1  and  C_2
REMARK    2  A    between atoms: C_2  and  O_3
REMARK    3  A    between atoms: O_3  and  C_4
REMARK    4  A    between atoms: C_4  and  C_6
REMARK    5  A    between atoms: C_7  and  C_20
REMARK    6  A    between atoms: C_12  and  C_14
REMARK    7  A    between atoms: C_20  and  O_21
REMARK    8  A    between atoms: O_21  and  C_22
REMARK    9  A    between atoms: C_22  and  C_24
REMARK   10  A    between atoms: C_24  and  C_25
REMARK                            x       y       z     vdW  Elec       q    Type
REMARK                         _______ _______ _______ _____ _____    ______ ____
ROOT
ATOM      1  C   UNL     1       1.330  -2.340  -2.530  0.00  0.00    +0.081 C 
ATOM      2  C   UNL     1       1.628  -3.654  -2.615  0.00  0.00    +0.061 C 
ATOM      3  N   UNL     1       2.352  -4.147  -3.663  0.00  0.00    -0.269 N 
ATOM      4  C   UNL     1       2.815  -3.390  -4.666  0.00  0.00    +0.304 C 
ATOM      5  O   UNL     1       3.451  -3.920  -5.556  0.00  0.00    -0.252 OA
ATOM      6  N   UNL     1       2.599  -2.061  -4.720  0.00  0.00    -0.288 N 
ATOM      7  C   UNL     1       1.823  -1.432  -3.639  0.00  0.00    +0.144 C 
ATOM      8  H   UNL     1       2.541  -5.098  -3.682  0.00  0.00    +0.156 HD
ATOM      9  H   UNL     1       2.945  -1.532  -5.456  0.00  0.00    +0.151 HD
ENDROOT
BRANCH   7  10
ATOM     10  C   UNL     1       2.683  -0.362  -3.017  0.00  0.00    -0.022 A 
ATOM     11  C   UNL     1       3.997  -0.637  -2.687  0.00  0.00    +0.006 A 
ATOM     12  C   UNL     1       4.786   0.344  -2.116  0.00  0.00    +0.000 A 
ATOM     13  C   UNL     1       4.261   1.600  -1.876  0.00  0.00    +0.000 A 
ATOM     14  C   UNL     1       2.947   1.875  -2.207  0.00  0.00    +0.000 A 
ATOM     15  C   UNL     1       2.159   0.895  -2.781  0.00  0.00    +0.006 A 
ENDBRANCH   7  10
BRANCH   1  16
ATOM     16  C   UNL     1       0.580  -1.828  -1.445  0.00  0.00    +0.339 C 
ATOM     17  O   UNL     1      -0.604  -1.586  -1.585  0.00  0.00    -0.245 OA
BRANCH  16  18
ATOM     18  O   UNL     1       1.178  -1.609  -0.255  0.00  0.00    -0.462 OA
BRANCH  18  20
ATOM     19  C   UNL     1       1.205  -0.910   2.058  0.00  0.00    +0.048 C 
ATOM     20  C   UNL     1       0.360  -1.092   0.796  0.00  0.00    +0.229 C 
ENDBRANCH  18  20
ENDBRANCH  16  18
ENDBRANCH   1  16
BRANCH   2  21
ATOM     21  C   UNL     1       1.153  -4.593  -1.536  0.00  0.00    +0.283 C 
BRANCH  21  22
ATOM     22  O   UNL     1       0.209  -5.513  -2.086  0.00  0.00    -0.458 OA
BRANCH  22  23
ATOM     23  C   UNL     1      -0.314  -6.423  -1.250  0.00  0.00    +0.312 C 
ATOM     24  O   UNL     1       0.019  -6.438  -0.088  0.00  0.00    -0.250 OA
BRANCH  23  25
ATOM     25  C   UNL     1      -1.317  -7.427  -1.759  0.00  0.00    +0.153 C 
BRANCH  25  26
ATOM     26  C   UNL     1      -1.744  -8.328  -0.629  0.00  0.00    -0.031 C 
ATOM     27  C   UNL     1      -2.835  -8.184   0.157  0.00  0.00    -0.001 A 
ATOM     28  C   UNL     1      -3.909  -7.185   0.194  0.00  0.00    +0.010 A 
ATOM     29  C   UNL     1      -4.889  -7.309   1.118  0.00  0.00    +0.001 A 
ATOM     30  C   UNL     1      -4.905  -8.366   2.039  0.00  0.00    +0.002 A 
ATOM     31  C   UNL     1      -3.953  -9.322   2.067  0.00  0.00    +0.026 A 
ATOM     32  C   UNL     1      -2.875  -9.291   1.140  0.00  0.00    +0.043 A 
ATOM     33  N   UNL     1      -1.848 -10.087   0.968  0.00  0.00    -0.380 N 
ATOM     34  C   UNL     1      -1.043  -9.579  -0.148  0.00  0.00    +0.145 C 
ATOM     35  H   UNL     1      -1.654 -10.882   1.489  0.00  0.00    +0.160 HD
ENDBRANCH  25  26
ENDBRANCH  23  25
ENDBRANCH  22  23
ENDBRANCH  21  22
ENDBRANCH   2  21
TORSDOF 9
