REMARK  Name = ZINC26244415
REMARK  6 active torsions:
REMARK  status: ('A' for Active; 'I' for Inactive)
REMARK    1  A    between atoms: C_1  and  C_2
REMARK    2  A    between atoms: C_2  and  C_4
REMARK    3  A    between atoms: C_2  and  O_17
REMARK    4  A    between atoms: O_17  and  C_18
REMARK    5  A    between atoms: C_18  and  C_20
REMARK    6  A    between atoms: C_22  and  C_30
REMARK                            x       y       z     vdW  Elec       q    Type
REMARK                         _______ _______ _______ _____ _____    ______ ____
ROOT
ATOM      1  O   UNL     1       0.695  -0.465   1.164  0.00  0.00    -0.449 OA
ENDROOT
BRANCH   1   3
ATOM      2  C   UNL     1      -0.032   1.538   0.022  0.00  0.00    +0.062 C 
ATOM      3  C   UNL     1       0.004   0.008   0.006  0.00  0.00    +0.259 C 
BRANCH   3   4
ATOM      4  C   UNL     1       0.719  -0.465  -1.234  0.00  0.00    +0.259 C 
ATOM      5  O   UNL     1       1.770  -1.062  -1.137  0.00  0.00    -0.271 OA
ATOM      6  N   UNL     1       0.190  -0.224  -2.450  0.00  0.00    -0.266 N 
ATOM      7  C   UNL     1       0.850  -0.660  -3.594  0.00  0.00    +0.154 A 
ATOM      8  C   UNL     1       0.320  -0.413  -4.860  0.00  0.00    +0.126 A 
ATOM      9  C   UNL     1       1.024  -0.874  -5.986  0.00  0.00    +0.183 A 
ATOM     10  N   UNL     1       0.308  -0.512  -7.068  0.00  0.00    -0.216 NA
ATOM     11  H   UNL     1      -1.502   0.640  -4.817  0.00  0.00    +0.167 HD
ATOM     12  C   UNL     1      -0.765   0.126  -6.694  0.00  0.00    +0.199 A 
ATOM     13  N   UNL     1      -0.808   0.215  -5.345  0.00  0.00    -0.340 N 
ATOM     14  N   UNL     1       2.173  -1.529  -5.799  0.00  0.00    -0.214 NA
ATOM     15  C   UNL     1       2.633  -1.738  -4.586  0.00  0.00    +0.225 A 
ATOM     16  N   UNL     1       2.003  -1.316  -3.505  0.00  0.00    -0.218 NA
ATOM     17  H   UNL     1      -0.650   0.254  -2.527  0.00  0.00    +0.156 HD
ENDBRANCH   3   4
ENDBRANCH   1   3
BRANCH   1  18
ATOM     18  C   UNL     1      -0.045  -0.697   2.265  0.00  0.00    +0.341 C 
ATOM     19  O   UNL     1      -1.244  -0.505   2.243  0.00  0.00    -0.245 OA
BRANCH  18  20
ATOM     20  C   UNL     1       0.603  -1.188   3.500  0.00  0.00    +0.070 A 
ATOM     21  C   UNL     1       1.947  -1.527   3.523  0.00  0.00    +0.044 A 
ATOM     22  C   UNL     1       2.521  -1.989   4.721  0.00  0.00    +0.079 A 
ATOM     23  N   UNL     1       1.824  -2.112   5.834  0.00  0.00    -0.246 NA
ATOM     24  C   UNL     1       0.526  -1.807   5.899  0.00  0.00    +0.072 A 
ATOM     25  C   UNL     1      -0.149  -1.327   4.749  0.00  0.00    +0.014 A 
ATOM     26  C   UNL     1      -1.508  -1.005   4.824  0.00  0.00    +0.011 A 
ATOM     27  C   UNL     1      -2.170  -1.150   6.007  0.00  0.00    +0.001 A 
ATOM     28  C   UNL     1      -1.511  -1.616   7.142  0.00  0.00    +0.002 A 
ATOM     29  C   UNL     1      -0.192  -1.949   7.101  0.00  0.00    +0.028 A 
BRANCH  22  30
ATOM     30  C   UNL     1       3.952  -2.348   4.733  0.00  0.00    +0.038 A 
ATOM     31  C   UNL     1       4.716  -2.819   5.770  0.00  0.00    +0.017 A 
ATOM     32  C   UNL     1       6.045  -3.089   5.542  0.00  0.00    +0.008 A 
ATOM     33  C   UNL     1       6.561  -2.880   4.302  0.00  0.00    +0.046 A 
ATOM     34  S   UNL     1       5.138  -2.288   3.400  0.00  0.00    -0.095 S 
ENDBRANCH  22  30
ENDBRANCH  18  20
ENDBRANCH   1  18
TORSDOF 5
