REMARK  Name = ZINC64737513
REMARK  10 active torsions:
REMARK  status: ('A' for Active; 'I' for Inactive)
REMARK    1  A    between atoms: C_1  and  C_2
REMARK    2  A    between atoms: C_2  and  C_3
REMARK    3  A    between atoms: C_2  and  C_4
REMARK    4  A    between atoms: C_4  and  C_6
REMARK    5  A    between atoms: C_4  and  N_22
REMARK    6  A    between atoms: N_8  and  N_9
REMARK    7  A    between atoms: C_10  and  C_12
REMARK    8  A    between atoms: C_12  and  C_13
REMARK    9  A    between atoms: N_22  and  S_23
REMARK   10  A    between atoms: S_23  and  C_26
REMARK                            x       y       z     vdW  Elec       q    Type
REMARK                         _______ _______ _______ _____ _____    ______ ____
ROOT
ATOM      1  C   UNL     1       0.870  -1.948   1.103  0.00  0.00    +0.248 C 
ATOM      2  O   UNL     1       1.940  -2.517   1.048  0.00  0.00    -0.273 OA
ATOM      3  N   UNL     1      -0.272  -2.663   1.126  0.00  0.00    -0.233 N 
ATOM      4  H   UNL     1      -1.128  -2.208   1.169  0.00  0.00    +0.173 HD
ENDROOT
BRANCH   3   5
ATOM      5  N   UNL     1      -0.224  -4.063   1.087  0.00  0.00    -0.234 N 
ATOM      6  C   UNL     1      -1.367  -4.777   1.111  0.00  0.00    +0.233 C 
ATOM      7  O   UNL     1      -2.437  -4.208   1.165  0.00  0.00    -0.274 OA
ATOM      8  H   UNL     1       0.631  -4.518   1.044  0.00  0.00    +0.173 HD
BRANCH   6   9
ATOM      9  C   UNL     1      -1.315  -6.282   1.069  0.00  0.00    +0.130 C 
BRANCH   9  10
ATOM     10  C   UNL     1      -2.717  -6.834   1.106  0.00  0.00    -0.033 C 
ATOM     11  C   UNL     1      -3.477  -7.197   0.047  0.00  0.00    -0.001 A 
ATOM     12  C   UNL     1      -3.235  -7.185  -1.400  0.00  0.00    +0.010 A 
ATOM     13  C   UNL     1      -4.210  -7.618  -2.232  0.00  0.00    +0.001 A 
ATOM     14  C   UNL     1      -5.442  -8.077  -1.747  0.00  0.00    +0.002 A 
ATOM     15  C   UNL     1      -5.738  -8.118  -0.430  0.00  0.00    +0.026 A 
ATOM     16  C   UNL     1      -4.786  -7.686   0.534  0.00  0.00    +0.043 A 
ATOM     17  N   UNL     1      -4.834  -7.629   1.843  0.00  0.00    -0.380 N 
ATOM     18  C   UNL     1      -3.557  -7.101   2.335  0.00  0.00    +0.145 C 
ATOM     19  H   UNL     1      -5.587  -7.895   2.394  0.00  0.00    +0.160 HD
ENDBRANCH   9  10
ENDBRANCH   6   9
ENDBRANCH   3   5
BRANCH   1  20
ATOM     20  C   UNL     1       0.819  -0.443   1.144  0.00  0.00    +0.166 C 
BRANCH  20  22
ATOM     21  C   UNL     1      -0.116   1.593   0.037  0.00  0.00    +0.009 C 
ATOM     22  C   UNL     1       0.035   0.074  -0.064  0.00  0.00    +0.010 C 
ATOM     23  C   UNL     1       0.787  -0.279  -1.349  0.00  0.00    +0.009 C 
ENDBRANCH  20  22
BRANCH  20  24
ATOM     24  N   UNL     1       2.181   0.094   1.108  0.00  0.00    -0.178 NA
ATOM     25  H   UNL     1       2.734  -0.038   0.322  0.00  0.00    +0.149 HD
BRANCH  24  26
ATOM     26  S   UNL     1       2.778   0.925   2.409  0.00  0.00    +0.059 S 
ATOM     27  O   UNL     1       4.124   1.257   2.097  0.00  0.00    -0.153 OA
ATOM     28  O   UNL     1       1.809   1.909   2.742  0.00  0.00    -0.153 OA
BRANCH  26  29
ATOM     29  C   UNL     1       2.838  -0.200   3.764  0.00  0.00    +0.107 A 
ATOM     30  C   UNL     1       1.747  -0.332   4.602  0.00  0.00    +0.028 A 
ATOM     31  C   UNL     1       1.793  -1.215   5.665  0.00  0.00    +0.003 A 
ATOM     32  C   UNL     1       2.931  -1.966   5.890  0.00  0.00    +0.020 A 
ATOM     33  C   UNL     1       4.024  -1.835   5.052  0.00  0.00    +0.043 A 
ATOM     34  C   UNL     1       3.975  -0.955   3.985  0.00  0.00    +0.048 A 
ATOM     35 CL   UNL     1       5.454  -2.778   5.335  0.00  0.00    -0.083 Cl
ENDBRANCH  26  29
ENDBRANCH  24  26
ENDBRANCH  20  24
ENDBRANCH   1  20
TORSDOF 8
