REMARK  Name = ZINC40612578
REMARK  8 active torsions:
REMARK  status: ('A' for Active; 'I' for Inactive)
REMARK    1  A    between atoms: C_1  and  C_2
REMARK    2  A    between atoms: C_10  and  N_26
REMARK    3  A    between atoms: C_11  and  N_15
REMARK    4  A    between atoms: N_15  and  C_16
REMARK    5  A    between atoms: C_18  and  C_24
REMARK    6  A    between atoms: C_18  and  C_25
REMARK    7  A    between atoms: C_20  and  C_22
REMARK    8  A    between atoms: C_20  and  C_23
REMARK                            x       y       z     vdW  Elec       q    Type
REMARK                         _______ _______ _______ _____ _____    ______ ____
ROOT
ATOM      1  C   UNL     1       2.946  -0.337  -0.239  0.00  0.00    +0.028 C 
ATOM      2  C   UNL     1       1.552  -0.949  -0.082  0.00  0.00    +0.072 C 
ATOM      3  C   UNL     1       0.693  -0.590  -1.298  0.00  0.00    +0.022 C 
ATOM      4  C   UNL     1      -0.737  -1.085  -1.072  0.00  0.00    +0.003 C 
ATOM      5  C   UNL     1      -1.329  -0.393   0.158  0.00  0.00    +0.019 C 
ATOM      6  C   UNL     1      -0.493  -0.750   1.391  0.00  0.00    +0.107 C 
ATOM      7  N   UNL     1       0.912  -0.412   1.127  0.00  0.00    -0.310 N 
ATOM      8  C   UNL     1       1.620   0.400   1.999  0.00  0.00    +0.157 A 
ATOM      9  C   UNL     1       2.378  -0.157   3.025  0.00  0.00    +0.205 A 
ATOM     10  C   UNL     1       3.070   0.702   3.874  0.00  0.00    +0.155 A 
ATOM     11  N   UNL     1       2.984   2.016   3.675  0.00  0.00    -0.218 NA
ATOM     12  C   UNL     1       2.255   2.505   2.692  0.00  0.00    +0.225 A 
ATOM     13  N   UNL     1       1.589   1.725   1.865  0.00  0.00    -0.218 NA
ENDROOT
BRANCH   9  14
ATOM     14  N   UNL     1       2.445  -1.624   3.209  0.00  0.00    +0.063 N 
ATOM     15  O   UNL     1       3.356  -2.253   2.723  0.00  0.00    -0.126 OA
ATOM     16  O   UNL     1       1.589  -2.193   3.846  0.00  0.00    -0.126 OA
ENDBRANCH   9  14
BRANCH  10  17
ATOM     17  N   UNL     1       3.839   0.197   4.911  0.00  0.00    -0.324 N 
ATOM     18  H   UNL     1       3.897  -0.762   5.050  0.00  0.00    +0.148 HD
BRANCH  17  19
ATOM     19  C   UNL     1       4.565   1.112   5.800  0.00  0.00    +0.069 C 
ATOM     20  C   UNL     1       5.929   1.432   5.186  0.00  0.00    +0.009 C 
ATOM     21  C   UNL     1       6.703   2.375   6.106  0.00  0.00    -0.072 C 
ATOM     22  N   UNL     1       6.809   1.854   7.461  0.00  0.00    +0.386 N 
ATOM     23  C   UNL     1       5.603   1.327   8.079  0.00  0.00    -0.072 C 
ATOM     24  C   UNL     1       4.794   0.430   7.148  0.00  0.00    +0.009 C 
ATOM     25  C   UNL     1       4.714   2.445   8.629  0.00  0.00    -0.010 C 
ATOM     26  C   UNL     1       6.039   0.462   9.285  0.00  0.00    -0.010 C 
ATOM     27  C   UNL     1       6.084   3.772   6.073  0.00  0.00    -0.010 C 
ATOM     28  C   UNL     1       8.136   2.495   5.539  0.00  0.00    -0.010 C 
ATOM     29  H   UNL     1       7.522   1.120   7.467  0.00  0.00    -0.084 HD
ATOM     30  H   UNL     1       7.182   2.594   8.061  0.00  0.00    -0.084 HD
ENDBRANCH  17  19
ENDBRANCH  10  17
TORSDOF 3
