REMARK  Name = ZINC13500121
REMARK  11 active torsions:
REMARK  status: ('A' for Active; 'I' for Inactive)
REMARK    1  A    between atoms: C_1  and  C_2
REMARK    2  A    between atoms: C_2  and  C_3
REMARK    3  A    between atoms: C_3  and  C_4
REMARK    4  A    between atoms: C_4  and  C_6
REMARK    5  A    between atoms: C_4  and  N_72
REMARK    6  A    between atoms: N_10  and  C_11
REMARK    7  A    between atoms: C_11  and  C_12
REMARK    8  A    between atoms: C_18  and  C_19
REMARK    9  A    between atoms: C_18  and  N_72
REMARK   10  A    between atoms: C_25  and  C_31
REMARK   11  A    between atoms: C_32  and  N_72
REMARK                            x       y       z     vdW  Elec       q    Type
REMARK                         _______ _______ _______ _____ _____    ______ ____
ROOT
ATOM      1  N   UNL     1       5.884   2.278  -1.950  0.00  0.00    +0.391 N 
ATOM      2  H   UNL     1       6.526   2.972  -1.550  0.00  0.00    -0.080 HD
ENDROOT
BRANCH   1   3
ATOM      3  C   UNL     1       5.888   2.413  -3.422  0.00  0.00    -0.067 C 
ATOM      4  C   UNL     1       5.619   3.875  -3.784  0.00  0.00    -0.015 C 
ATOM      5  C   UNL     1       5.642   4.036  -5.306  0.00  0.00    -0.002 C 
ATOM      6  C   UNL     1       4.562   3.150  -5.929  0.00  0.00    -0.000 C 
ATOM      7  C   UNL     1       4.831   1.688  -5.567  0.00  0.00    -0.002 C 
ATOM      8  C   UNL     1       4.808   1.526  -4.045  0.00  0.00    -0.015 C 
ENDBRANCH   1   3
BRANCH   1   9
ATOM      9  C   UNL     1       4.525   2.521  -1.424  0.00  0.00    +0.003 C 
BRANCH   9  10
ATOM     10  C   UNL     1       3.653   1.310  -1.636  0.00  0.00    +0.138 A 
ATOM     11  N   UNL     1       3.938   0.073  -1.307  0.00  0.00    -0.115 NA
ATOM     12  N   UNL     1       2.945  -0.670  -1.655  0.00  0.00    -0.023 NA
ATOM     13  N   UNL     1       2.032   0.061  -2.193  0.00  0.00    -0.044 NA
ATOM     14  N   UNL     1       2.429   1.288  -2.196  0.00  0.00    -0.226 N 
BRANCH  14  15
ATOM     15  C   UNL     1       1.691   2.441  -2.717  0.00  0.00    +0.182 C 
BRANCH  15  16
ATOM     16  C   UNL     1       0.844   3.033  -1.621  0.00  0.00    -0.026 A 
ATOM     17  C   UNL     1       1.360   4.024  -0.807  0.00  0.00    +0.005 A 
ATOM     18  C   UNL     1       0.583   4.567   0.199  0.00  0.00    +0.000 A 
ATOM     19  C   UNL     1      -0.709   4.115   0.395  0.00  0.00    +0.000 A 
ATOM     20  C   UNL     1      -1.227   3.127  -0.421  0.00  0.00    +0.000 A 
ATOM     21  C   UNL     1      -0.450   2.584  -1.428  0.00  0.00    +0.005 A 
ENDBRANCH  15  16
ENDBRANCH  14  15
ENDBRANCH   9  10
BRANCH   9  22
ATOM     22  C   UNL     1       4.625   2.822   0.072  0.00  0.00    -0.008 C 
BRANCH  22  24
ATOM     23  C   UNL     1       5.611   4.358   1.778  0.00  0.00    +0.004 C 
ATOM     24  C   UNL     1       5.410   4.119   0.280  0.00  0.00    -0.005 C 
ENDBRANCH  22  24
ENDBRANCH   9  22
ENDBRANCH   1   9
BRANCH   1  25
ATOM     25  C   UNL     1       6.340   0.925  -1.566  0.00  0.00    -0.036 C 
BRANCH  25  26
ATOM     26  C   UNL     1       7.833   0.846  -1.756  0.00  0.00    +0.001 A 
ATOM     27  C   UNL     1       8.661   1.095  -0.710  0.00  0.00    +0.017 A 
ATOM     28  C   UNL     1      10.106   1.010  -0.927  0.00  0.00    -0.001 A 
ATOM     29  C   UNL     1      11.009   1.254   0.112  0.00  0.00    +0.010 A 
ATOM     30  C   UNL     1      12.352   1.167  -0.122  0.00  0.00    +0.001 A 
ATOM     31  C   UNL     1      12.829   0.837  -1.384  0.00  0.00    +0.005 A 
ATOM     32  C   UNL     1      11.957   0.591  -2.423  0.00  0.00    -0.026 A 
ATOM     33  C   UNL     1      10.585   0.674  -2.208  0.00  0.00    +0.052 A 
ATOM     34  N   UNL     1       9.691   0.433  -3.228  0.00  0.00    -0.322 N 
ATOM     35  H   UNL     1      10.023   0.202  -4.110  0.00  0.00    +0.169 HD
ATOM     36  C   UNL     1       8.365   0.508  -3.018  0.00  0.00    +0.251 A 
ATOM     37  O   UNL     1       7.603   0.284  -3.943  0.00  0.00    -0.268 OA
ATOM     38  C   UNL     1      12.488   0.234  -3.787  0.00  0.00    +0.046 C 
ENDBRANCH  25  26
ENDBRANCH   1  25
TORSDOF 9
