REMARK  Name = ZINC50047280
REMARK  4 active torsions:
REMARK  status: ('A' for Active; 'I' for Inactive)
REMARK    1  A    between atoms: C_4  and  S_8
REMARK    2  A    between atoms: C_5  and  O_7
REMARK    3  A    between atoms: S_8  and  C_9
REMARK    4  A    between atoms: C_12  and  N_19
REMARK                            x       y       z     vdW  Elec       q    Type
REMARK                         _______ _______ _______ _____ _____    ______ ____
ROOT
ATOM      1  C   UNL     1       5.250   0.368  -0.009  0.00  0.00    +0.039 A 
ATOM      2  C   UNL     1       4.961   1.716   0.047  0.00  0.00    +0.019 A 
ATOM      3  C   UNL     1       5.981   2.662   0.076  0.00  0.00    +0.034 A 
ATOM      4  C   UNL     1       7.289   2.284   0.049  0.00  0.00    +0.135 A 
ATOM      5  C   UNL     1       7.624   0.922  -0.008  0.00  0.00    +0.032 A 
ATOM      6  C   UNL     1       6.598  -0.054  -0.032  0.00  0.00    +0.087 A 
ATOM      7  N   UNL     1       6.913  -1.350  -0.082  0.00  0.00    -0.254 NA
ATOM      8  C   UNL     1       8.162  -1.748  -0.104  0.00  0.00    +0.111 A 
ATOM      9  C   UNL     1       9.220  -0.842  -0.077  0.00  0.00    +0.020 A 
ATOM     10  C   UNL     1       8.967   0.499  -0.037  0.00  0.00    +0.014 A 
ENDROOT
BRANCH   4  11
ATOM     11  N   UNL     1       8.358   3.310   0.079  0.00  0.00    +0.057 N 
ATOM     12  O   UNL     1       8.226   4.300   0.760  0.00  0.00    -0.126 OA
ATOM     13  O   UNL     1       9.362   3.157  -0.577  0.00  0.00    -0.126 OA
ENDBRANCH   4  11
BRANCH   1  14
ATOM     14  S   UNL     1       3.947  -0.818  -0.044  0.00  0.00    -0.084 S 
BRANCH  14  18
ATOM     15  C   UNL     1       3.797  -2.152  -4.373  0.00  0.00    +0.004 A 
ATOM     16  C   UNL     1       4.641  -1.125  -3.994  0.00  0.00    +0.001 A 
ATOM     17  C   UNL     1       4.689  -0.715  -2.675  0.00  0.00    +0.019 A 
ATOM     18  C   UNL     1       3.888  -1.337  -1.727  0.00  0.00    +0.054 A 
ATOM     19  C   UNL     1       3.038  -2.373  -2.110  0.00  0.00    +0.131 A 
ATOM     20  C   UNL     1       2.996  -2.776  -3.434  0.00  0.00    +0.046 A 
BRANCH  19  21
ATOM     21  O   UNL     1       2.251  -2.986  -1.185  0.00  0.00    -0.506 OA
ATOM     22  H   UNL     1       1.382  -2.577  -1.075  0.00  0.00    +0.292 HD
ENDBRANCH  19  21
ENDBRANCH  14  18
ENDBRANCH   1  14
TORSDOF 4
