REMARK  Name = ZINC39404342
REMARK  12 active torsions:
REMARK  status: ('A' for Active; 'I' for Inactive)
REMARK    1  A    between atoms: C_1  and  C_2
REMARK    2  A    between atoms: C_2  and  O_3
REMARK    3  A    between atoms: O_3  and  C_4
REMARK    4  A    between atoms: C_4  and  C_6
REMARK    5  A    between atoms: C_8  and  C_38
REMARK    6  A    between atoms: C_10  and  C_36
REMARK    7  A    between atoms: C_12  and  N_15
REMARK    8  A    between atoms: C_16  and  C_18
REMARK    9  A    between atoms: C_18  and  S_19
REMARK   10  A    between atoms: S_19  and  C_20
REMARK   11  A    between atoms: N_26  and  N_27
REMARK   12  A    between atoms: C_28  and  C_29
REMARK                            x       y       z     vdW  Elec       q    Type
REMARK                         _______ _______ _______ _____ _____    ______ ____
ROOT
ATOM      1  C   UNL     1      -4.966  -6.266  -4.660  0.00  0.00    +0.168 C 
ENDROOT
BRANCH   1   3
ATOM      2  N   UNL     1      -3.991  -5.100  -2.708  0.00  0.00    -0.302 N 
ATOM      3  C   UNL     1      -5.096  -5.493  -3.372  0.00  0.00    +0.224 C 
ATOM      4  O   UNL     1      -6.195  -5.226  -2.933  0.00  0.00    -0.275 OA
ATOM      5  H   UNL     1      -3.112  -5.314  -3.059  0.00  0.00    +0.150 HD
BRANCH   2   9
ATOM      6  C   UNL     1      -2.916  -2.385   0.115  0.00  0.00    +0.161 C 
ATOM      7  C   UNL     1      -2.870  -3.818   0.679  0.00  0.00    +0.029 C 
ATOM      8  C   UNL     1      -3.150  -4.894  -0.369  0.00  0.00    +0.126 C 
ATOM      9  C   UNL     1      -4.117  -4.349  -1.456  0.00  0.00    +0.149 C 
ATOM     10  S   UNL     1      -3.454  -2.630  -1.628  0.00  0.00    -0.122 S 
ATOM     11  C   UNL     1      -1.483  -4.067   1.275  0.00  0.00    +0.010 C 
BRANCH   6  12
ATOM     12  C   UNL     1      -1.550  -1.750   0.165  0.00  0.00    +0.321 C 
ATOM     13  O   UNL     1      -1.236  -1.065   1.110  0.00  0.00    -0.250 OA
BRANCH  12  14
ATOM     14  O   UNL     1      -0.681  -1.945  -0.839  0.00  0.00    -0.464 OA
BRANCH  14  16
ATOM     15  C   UNL     1       1.442  -1.649  -1.955  0.00  0.00    +0.048 C 
ATOM     16  C   UNL     1       0.595  -1.313  -0.726  0.00  0.00    +0.229 C 
ENDBRANCH  14  16
ENDBRANCH  12  14
ENDBRANCH   6  12
BRANCH   8  17
ATOM     17  C   UNL     1      -1.884  -5.297  -1.003  0.00  0.00    +0.069 C 
ATOM     18  N   UNL     1      -0.907  -5.607  -1.492  0.00  0.00    -0.196 NA
ENDBRANCH   8  17
ENDBRANCH   2   9
ENDBRANCH   1   3
BRANCH   1  19
ATOM     19  S   UNL     1      -6.618  -6.646  -5.305  0.00  0.00    -0.104 S 
BRANCH  19  20
ATOM     20  C   UNL     1      -6.291  -7.564  -6.835  0.00  0.00    +0.274 C 
ATOM     21  N   UNL     1      -5.482  -8.766  -6.554  0.00  0.00    -0.281 N 
ATOM     22  C   UNL     1      -4.318  -8.565  -7.281  0.00  0.00    +0.231 C 
ATOM     23  N   UNL     1      -4.392  -7.381  -7.936  0.00  0.00    -0.116 NA
ATOM     24  N   UNL     1      -5.449  -6.771  -7.743  0.00  0.00    -0.150 NA
ATOM     25  N   UNL     1      -3.299  -9.396  -7.327  0.00  0.00    -0.247 N 
ATOM     26  H   UNL     1      -5.711  -9.521  -5.991  0.00  0.00    +0.152 HD
ATOM     27  H   UNL     1      -2.520  -9.178  -7.862  0.00  0.00    +0.192 HD
BRANCH  25  28
ATOM     28  N   UNL     1      -3.336 -10.500  -6.660  0.00  0.00    -0.179 NA
ATOM     29  C   UNL     1      -2.322 -11.326  -6.705  0.00  0.00    +0.140 C 
BRANCH  29  30
ATOM     30  C   UNL     1      -2.364 -12.583  -5.946  0.00  0.00    -0.005 A 
ATOM     31  C   UNL     1      -3.489 -12.903  -5.177  0.00  0.00    +0.011 A 
ATOM     32  C   UNL     1      -3.521 -14.084  -4.468  0.00  0.00    +0.020 A 
ATOM     33  C   UNL     1      -2.443 -14.954  -4.514  0.00  0.00    +0.041 A 
ATOM     34  C   UNL     1      -1.326 -14.644  -5.272  0.00  0.00    +0.020 A 
ATOM     35  C   UNL     1      -1.281 -13.469  -5.992  0.00  0.00    +0.011 A 
ATOM     36 CL   UNL     1      -2.493 -16.439  -3.616  0.00  0.00    -0.084 Cl
ENDBRANCH  29  30
ENDBRANCH  25  28
ENDBRANCH  19  20
ENDBRANCH   1  19
TORSDOF 10
