REMARK  Name = ZINC35246918
REMARK  11 active torsions:
REMARK  status: ('A' for Active; 'I' for Inactive)
REMARK    1  A    between atoms: C_4  and  C_7
REMARK    2  A    between atoms: C_7  and  C_8
REMARK    3  A    between atoms: C_8  and  N_9
REMARK    4  A    between atoms: C_10  and  C_12
REMARK    5  A    between atoms: C_15  and  C_17
REMARK    6  A    between atoms: C_17  and  N_18
REMARK    7  A    between atoms: N_18  and  C_19
REMARK    8  A    between atoms: N_18  and  C_26
REMARK    9  A    between atoms: C_19  and  C_20
REMARK   10  A    between atoms: C_26  and  C_27
REMARK   11  A    between atoms: C_30  and  C_33
REMARK                            x       y       z     vdW  Elec       q    Type
REMARK                         _______ _______ _______ _____ _____    ______ ____
ROOT
ATOM      1  N   UNL     1       9.547  -5.450   0.802  0.00  0.00    +0.390 N 
ATOM      2  H   UNL     1       9.331  -6.018   1.608  0.00  0.00    -0.080 HD
ENDROOT
BRANCH   1   3
ATOM      3  C   UNL     1       9.517  -4.031   1.181  0.00  0.00    -0.002 C 
BRANCH   3   7
ATOM      4  C   UNL     1       6.089  -3.092   2.022  0.00  0.00    +0.189 A 
ATOM      5  C   UNL     1       6.549  -3.400   3.270  0.00  0.00    +0.055 A 
ATOM      6  C   UNL     1       7.889  -3.792   3.120  0.00  0.00    +0.043 A 
ATOM      7  C   UNL     1       8.184  -3.706   1.804  0.00  0.00    +0.090 A 
ATOM      8  O   UNL     1       7.096  -3.289   1.145  0.00  0.00    -0.457 OA
BRANCH   4  10
ATOM      9  N   UNL     1       4.408  -2.366   0.412  0.00  0.00    -0.309 N 
ATOM     10  C   UNL     1       4.736  -2.632   1.692  0.00  0.00    +0.279 C 
ATOM     11  O   UNL     1       3.909  -2.492   2.574  0.00  0.00    -0.267 OA
ATOM     12  H   UNL     1       5.068  -2.478  -0.291  0.00  0.00    +0.149 HD
BRANCH   9  13
ATOM     13  C   UNL     1       3.057  -1.907   0.082  0.00  0.00    +0.109 C 
BRANCH  13  14
ATOM     14  C   UNL     1       2.950  -1.679  -1.427  0.00  0.00    +0.054 C 
BRANCH  14  18
ATOM     15  C   UNL     1      -0.991  -0.341  -2.391  0.00  0.00    +0.000 A 
ATOM     16  C   UNL     1      -0.004   0.578  -2.087  0.00  0.00    +0.000 A 
ATOM     17  C   UNL     1       1.271   0.145  -1.775  0.00  0.00    +0.004 A 
ATOM     18  C   UNL     1       1.559  -1.207  -1.766  0.00  0.00    -0.046 A 
ATOM     19  C   UNL     1       0.572  -2.126  -2.069  0.00  0.00    +0.004 A 
ATOM     20  C   UNL     1      -0.703  -1.693  -2.383  0.00  0.00    +0.000 A 
ENDBRANCH  14  18
ENDBRANCH  13  14
ENDBRANCH   9  13
ENDBRANCH   4  10
ENDBRANCH   3   7
ENDBRANCH   1   3
BRANCH   1  21
ATOM     21  C   UNL     1       8.554  -5.697  -0.252  0.00  0.00    -0.042 C 
BRANCH  21  22
ATOM     22  C   UNL     1       8.481  -7.175  -0.537  0.00  0.00    -0.064 A 
ATOM     23  C   UNL     1       9.211  -7.715  -1.580  0.00  0.00    +0.002 A 
ATOM     24  C   UNL     1       9.144  -9.071  -1.841  0.00  0.00    +0.000 A 
ATOM     25  C   UNL     1       8.347  -9.887  -1.059  0.00  0.00    +0.000 A 
ATOM     26  C   UNL     1       7.619  -9.347  -0.016  0.00  0.00    +0.000 A 
ATOM     27  C   UNL     1       7.689  -7.992   0.248  0.00  0.00    +0.002 A 
ENDBRANCH  21  22
ENDBRANCH   1  21
BRANCH   1  28
ATOM     28  C   UNL     1      10.886  -5.796   0.305  0.00  0.00    -0.042 C 
BRANCH  28  29
ATOM     29  C   UNL     1      11.886  -5.667   1.425  0.00  0.00    -0.064 A 
ATOM     30  C   UNL     1      12.601  -4.494   1.581  0.00  0.00    +0.002 A 
ATOM     31  C   UNL     1      13.519  -4.376   2.608  0.00  0.00    +0.012 A 
ATOM     32  C   UNL     1      13.722  -5.430   3.478  0.00  0.00    +0.055 A 
ATOM     33  C   UNL     1      13.006  -6.603   3.323  0.00  0.00    +0.012 A 
ATOM     34  C   UNL     1      12.085  -6.719   2.298  0.00  0.00    +0.002 A 
BRANCH  32  35
ATOM     35  C   UNL     1      14.723  -5.301   4.597  0.00  0.00    +0.417 C 
ATOM     36  F   UNL     1      14.088  -4.790   5.734  0.00  0.00    -0.166 F 
ATOM     37  F   UNL     1      15.260  -6.559   4.889  0.00  0.00    -0.166 F 
ATOM     38  F   UNL     1      15.750  -4.435   4.207  0.00  0.00    -0.166 F 
ENDBRANCH  32  35
ENDBRANCH  28  29
ENDBRANCH   1  28
TORSDOF 11
