REMARK  Name = ZINC62349952
REMARK  6 active torsions:
REMARK  status: ('A' for Active; 'I' for Inactive)
REMARK    1  A    between atoms: C_1  and  C_2
REMARK    2  A    between atoms: N_5  and  C_8
REMARK    3  A    between atoms: C_8  and  C_10
REMARK    4  A    between atoms: C_8  and  C_11
REMARK    5  A    between atoms: C_11  and  N_12
REMARK    6  A    between atoms: C_13  and  C_15
REMARK                            x       y       z     vdW  Elec       q    Type
REMARK                         _______ _______ _______ _____ _____    ______ ____
ROOT
ATOM      1  N   UNL     1       1.651  -3.736  -2.468  0.00  0.00    -0.312 N 
ATOM      2  C   UNL     1       1.989  -4.060  -3.732  0.00  0.00    +0.264 C 
ATOM      3  O   UNL     1       2.881  -4.860  -3.937  0.00  0.00    -0.268 OA
ATOM      4  H   UNL     1       0.939  -3.098  -2.305  0.00  0.00    +0.149 HD
ENDROOT
BRANCH   2   5
ATOM      5  C   UNL     1       1.276  -3.442  -4.869  0.00  0.00    +0.150 A 
ATOM      6  C   UNL     1       1.507  -3.679  -6.234  0.00  0.00    +0.005 A 
ATOM      7  C   UNL     1       0.625  -2.897  -6.903  0.00  0.00    +0.040 A 
ATOM      8  N   UNL     1      -0.094  -2.232  -5.984  0.00  0.00    -0.281 N 
ATOM      9  H   UNL     1      -0.802  -1.600  -6.182  0.00  0.00    +0.189 HD
ATOM     10  N   UNL     1       0.291  -2.562  -4.799  0.00  0.00    -0.169 NA
ATOM     11  C   UNL     1       0.528  -2.835  -8.406  0.00  0.00    +0.055 C 
ATOM     12  C   UNL     1       1.809  -3.438  -8.997  0.00  0.00    +0.006 C 
ATOM     13  C   UNL     1       2.084  -4.799  -8.351  0.00  0.00    +0.005 C 
ATOM     14  C   UNL     1       2.504  -4.596  -6.888  0.00  0.00    +0.039 C 
ENDBRANCH   2   5
BRANCH   1  15
ATOM     15  C   UNL     1       2.358  -4.349  -1.341  0.00  0.00    +0.089 C 
BRANCH  15  16
ATOM     16  C   UNL     1       1.709  -3.904  -0.029  0.00  0.00    -0.054 C 
ATOM     17  C   UNL     1       2.499  -4.475   1.150  0.00  0.00    -0.012 C 
BRANCH  16  22
ATOM     18  C   UNL     1       2.260   1.619   1.282  0.00  0.00    +0.007 C 
ATOM     19  C   UNL     1       2.320   0.091   1.323  0.00  0.00    -0.018 C 
ATOM     20  C   UNL     1       0.899  -0.479   1.276  0.00  0.00    -0.016 C 
ATOM     21  C   UNL     1       0.970  -2.007   1.237  0.00  0.00    -0.078 C 
ATOM     22  N   UNL     1       1.711  -2.437   0.045  0.00  0.00    +0.382 N 
ATOM     23  C   UNL     1       3.095  -1.954   0.119  0.00  0.00    -0.078 C 
ATOM     24  C   UNL     1       3.107  -0.424   0.114  0.00  0.00    -0.016 C 
ATOM     25  H   UNL     1       1.268  -2.060  -0.779  0.00  0.00    -0.081 HD
ENDBRANCH  16  22
ENDBRANCH  15  16
ENDBRANCH   1  15
TORSDOF 4
