REMARK  Name = ZINC08636006
REMARK  9 active torsions:
REMARK  status: ('A' for Active; 'I' for Inactive)
REMARK    1  A    between atoms: C_1  and  C_2
REMARK    2  A    between atoms: N_4  and  C_5
REMARK    3  A    between atoms: C_5  and  C_6
REMARK    4  A    between atoms: C_6  and  N_64
REMARK    5  A    between atoms: C_7  and  N_64
REMARK    6  A    between atoms: C_10  and  C_32
REMARK    7  A    between atoms: C_12  and  C_28
REMARK    8  A    between atoms: C_28  and  O_30
REMARK    9  A    between atoms: O_30  and  C_31
REMARK                            x       y       z     vdW  Elec       q    Type
REMARK                         _______ _______ _______ _____ _____    ______ ____
ROOT
ATOM      1  C   UNL     1       2.278   1.988  -0.854  0.00  0.00    -0.074 C 
ATOM      2  C   UNL     1       0.788   1.756  -0.586  0.00  0.00    -0.027 C 
ATOM      3  C   UNL     1       0.543   0.269  -0.316  0.00  0.00    -0.037 C 
ATOM      4  C   UNL     1       0.610  -1.927  -1.353  0.00  0.00    +0.049 C 
ATOM      5  C   UNL     1       0.729  -2.609  -2.724  0.00  0.00    +0.033 C 
ATOM      6  C   UNL     1       2.069  -2.247  -3.314  0.00  0.00    -0.022 A 
ATOM      7  C   UNL     1       2.780  -2.857  -4.415  0.00  0.00    +0.003 A 
ATOM      8  C   UNL     1       2.483  -3.933  -5.258  0.00  0.00    +0.010 A 
ATOM      9  C   UNL     1       3.414  -4.244  -6.218  0.00  0.00    +0.001 A 
ATOM     10  C   UNL     1       4.596  -3.535  -6.355  0.00  0.00    +0.002 A 
ATOM     11  C   UNL     1       4.915  -2.467  -5.535  0.00  0.00    +0.026 A 
ATOM     12  C   UNL     1       3.989  -2.127  -4.551  0.00  0.00    +0.047 A 
ATOM     13  N   UNL     1       3.987  -1.152  -3.595  0.00  0.00    -0.359 N 
ATOM     14  H   UNL     1       4.694  -0.502  -3.459  0.00  0.00    +0.166 HD
ATOM     15  C   UNL     1       2.837  -1.230  -2.857  0.00  0.00    +0.007 A 
ATOM     16  C   UNL     1       2.428  -0.351  -1.702  0.00  0.00    -0.020 C 
ATOM     17  C   UNL     1       2.726   1.115  -2.020  0.00  0.00    -0.025 C 
ATOM     18  N   UNL     1       0.969  -0.496  -1.506  0.00  0.00    +0.399 N 
ATOM     19  H   UNL     1       0.486  -0.121  -2.331  0.00  0.00    -0.079 HD
ENDROOT
BRANCH   3  20
ATOM     20  C   UNL     1      -0.927   0.036  -0.081  0.00  0.00    -0.058 A 
ATOM     21  C   UNL     1      -1.794  -0.047  -1.155  0.00  0.00    +0.003 A 
ATOM     22  C   UNL     1      -3.142  -0.266  -0.942  0.00  0.00    +0.023 A 
ATOM     23  C   UNL     1      -3.627  -0.391   0.348  0.00  0.00    +0.076 A 
ATOM     24  C   UNL     1      -2.760  -0.303   1.425  0.00  0.00    +0.142 A 
ATOM     25  C   UNL     1      -1.409  -0.089   1.209  0.00  0.00    +0.042 A 
ATOM     26  F   UNL     1      -3.232  -0.425   2.685  0.00  0.00    -0.204 F 
ATOM     27 CL   UNL     1      -5.321  -0.659   0.616  0.00  0.00    -0.081 Cl
ENDBRANCH   3  20
BRANCH   1  28
ATOM     28  N   UNL     1       3.056   1.624   0.345  0.00  0.00    +0.382 N 
ATOM     29  H   UNL     1       2.612   0.822   0.807  0.00  0.00    -0.085 HD
ATOM     30  H   UNL     1       4.011   1.371   0.064  0.00  0.00    -0.085 HD
BRANCH  28  31
ATOM     31  C   UNL     1       3.110   2.759   1.285  0.00  0.00    -0.063 C 
BRANCH  31  32
ATOM     32  C   UNL     1       3.923   2.353   2.516  0.00  0.00    +0.085 C 
BRANCH  32  36
ATOM     33  C   UNL     1       4.709   4.502   5.584  0.00  0.00    +0.109 C 
ATOM     34  C   UNL     1       4.649   3.347   4.618  0.00  0.00    +0.210 C 
ATOM     35  O   UNL     1       5.202   2.302   4.888  0.00  0.00    -0.276 OA
ATOM     36  N   UNL     1       3.981   3.476   3.455  0.00  0.00    -0.317 N 
ATOM     37  H   UNL     1       3.539   4.312   3.239  0.00  0.00    +0.149 HD
ENDBRANCH  32  36
ENDBRANCH  31  32
ENDBRANCH  28  31
ENDBRANCH   1  28
BRANCH   4  38
ATOM     38  C   UNL     1       1.529  -2.607  -0.372  0.00  0.00    +0.294 C 
ATOM     39  O   UNL     1       2.267  -1.948   0.321  0.00  0.00    -0.253 OA
BRANCH  38  40
ATOM     40  O   UNL     1       1.527  -3.945  -0.267  0.00  0.00    -0.469 OA
ATOM     41  C   UNL     1       2.438  -4.532   0.700  0.00  0.00    +0.280 C 
ENDBRANCH  38  40
ENDBRANCH   4  38
TORSDOF 7
