REMARK  Name = ZINC03098830
REMARK  8 active torsions:
REMARK  status: ('A' for Active; 'I' for Inactive)
REMARK    1  A    between atoms: C_4  and  N_7
REMARK    2  A    between atoms: N_7  and  C_8
REMARK    3  A    between atoms: C_8  and  N_10
REMARK    4  A    between atoms: N_10  and  N_11
REMARK    5  A    between atoms: C_12  and  C_14
REMARK    6  A    between atoms: C_14  and  S_15
REMARK    7  A    between atoms: S_15  and  C_16
REMARK    8  A    between atoms: N_29  and  C_30
REMARK                            x       y       z     vdW  Elec       q    Type
REMARK                         _______ _______ _______ _____ _____    ______ ____
ROOT
ATOM      1  C   UNL     1       2.898  -7.210   0.849  0.00  0.00    +0.178 A 
ATOM      2  N   UNL     1       3.892  -6.351   0.745  0.00  0.00    -0.215 NA
ATOM      3  C   UNL     1       5.068  -6.728   0.257  0.00  0.00    +0.117 A 
ATOM      4  C   UNL     1       5.310  -8.041  -0.180  0.00  0.00    +0.076 A 
ATOM      5  C   UNL     1       6.653  -8.304  -0.700  0.00  0.00    -0.023 A 
ATOM      6  C   UNL     1       7.519  -7.271  -0.709  0.00  0.00    -0.004 A 
ATOM      7  S   UNL     1       6.613  -5.904  -0.035  0.00  0.00    -0.073 S 
ATOM      8  C   UNL     1       8.940  -7.281  -1.185  0.00  0.00    +0.043 C 
ATOM      9  C   UNL     1       9.393  -8.741  -1.325  0.00  0.00    +0.005 C 
ATOM     10  C   UNL     1       8.318  -9.519  -2.089  0.00  0.00    +0.005 C 
ATOM     11  C   UNL     1       7.073  -9.678  -1.215  0.00  0.00    +0.037 C 
ATOM     12  C   UNL     1       4.212  -8.950  -0.062  0.00  0.00    +0.268 A 
ATOM     13  O   UNL     1       4.330 -10.111  -0.416  0.00  0.00    -0.267 OA
ATOM     14  N   UNL     1       3.047  -8.508   0.447  0.00  0.00    -0.255 N 
ENDROOT
BRANCH  14  15
ATOM     15  C   UNL     1       1.968  -9.393   0.566  0.00  0.00    +0.052 A 
ATOM     16  C   UNL     1       1.815 -10.152   1.719  0.00  0.00    +0.026 A 
ATOM     17  C   UNL     1       0.747 -11.020   1.835  0.00  0.00    +0.002 A 
ATOM     18  C   UNL     1      -0.163 -11.143   0.801  0.00  0.00    +0.000 A 
ATOM     19  C   UNL     1      -0.010 -10.392  -0.351  0.00  0.00    +0.002 A 
ATOM     20  C   UNL     1       1.053  -9.518  -0.471  0.00  0.00    +0.026 A 
ENDBRANCH  14  15
BRANCH   1  21
ATOM     21  S   UNL     1       1.353  -6.677   1.508  0.00  0.00    -0.078 S 
BRANCH  21  22
ATOM     22  C   UNL     1       1.740  -4.942   1.851  0.00  0.00    +0.174 C 
BRANCH  22  24
ATOM     23  N   UNL     1       0.583  -2.960   2.774  0.00  0.00    -0.234 N 
ATOM     24  C   UNL     1       0.529  -4.264   2.438  0.00  0.00    +0.239 C 
ATOM     25  O   UNL     1      -0.495  -4.892   2.609  0.00  0.00    -0.273 OA
ATOM     26  H   UNL     1       1.402  -2.458   2.638  0.00  0.00    +0.173 HD
BRANCH  23  27
ATOM     27  N   UNL     1      -0.542  -2.329   3.320  0.00  0.00    -0.246 N 
ATOM     28  H   UNL     1      -1.361  -2.832   3.457  0.00  0.00    +0.172 HD
BRANCH  27  29
ATOM     29  C   UNL     1      -0.488  -1.025   3.656  0.00  0.00    +0.151 C 
ATOM     30  S   UNL     1      -1.863  -0.255   4.324  0.00  0.00    -0.017 S 
BRANCH  29  31
ATOM     31  N   UNL     1       0.649  -0.328   3.467  0.00  0.00    -0.296 N 
ATOM     32  H   UNL     1       1.403  -0.741   3.017  0.00  0.00    +0.154 HD
BRANCH  31  36
ATOM     33  C   UNL     1       0.931   3.604   4.814  0.00  0.00    +0.000 A 
ATOM     34  C   UNL     1       0.373   2.634   5.628  0.00  0.00    +0.002 A 
ATOM     35  C   UNL     1       0.278   1.330   5.184  0.00  0.00    +0.023 A 
ATOM     36  C   UNL     1       0.744   0.993   3.919  0.00  0.00    +0.033 A 
ATOM     37  C   UNL     1       1.308   1.968   3.107  0.00  0.00    +0.023 A 
ATOM     38  C   UNL     1       1.395   3.272   3.555  0.00  0.00    +0.002 A 
ENDBRANCH  31  36
ENDBRANCH  29  31
ENDBRANCH  27  29
ENDBRANCH  23  27
ENDBRANCH  22  24
ENDBRANCH  21  22
ENDBRANCH   1  21
TORSDOF 8
