REMARK  Name = ZINC24927442
REMARK  13 active torsions:
REMARK  status: ('A' for Active; 'I' for Inactive)
REMARK    1  A    between atoms: C_1  and  C_2
REMARK    2  A    between atoms: C_2  and  N_3
REMARK    3  A    between atoms: N_3  and  C_4
REMARK    4  A    between atoms: N_3  and  C_6
REMARK    5  A    between atoms: C_4  and  C_5
REMARK    6  A    between atoms: C_6  and  C_7
REMARK    7  A    between atoms: C_11  and  N_13
REMARK    8  A    between atoms: C_14  and  C_16
REMARK    9  A    between atoms: C_16  and  N_17
REMARK   10  A    between atoms: C_23  and  C_26
REMARK   11  A    between atoms: C_26  and  C_27
REMARK   12  A    between atoms: C_26  and  C_28
REMARK   13  A    between atoms: C_26  and  C_29
REMARK                            x       y       z     vdW  Elec       q    Type
REMARK                         _______ _______ _______ _____ _____    ______ ____
ROOT
ATOM      1  C   UNL     1      -3.779  -1.087   0.009  0.00  0.00    +0.214 C 
ENDROOT
BRANCH   1   2
ATOM      2  N   UNL     1      -3.518  -2.527  -0.061  0.00  0.00    -0.215 N 
ATOM      3  C   UNL     1      -3.412  -3.331   1.017  0.00  0.00    +0.247 C 
ATOM      4  O   UNL     1      -3.511  -3.013   2.183  0.00  0.00    -0.273 OA
ATOM      5  C   UNL     1      -3.144  -4.712   0.466  0.00  0.00    +0.113 C 
ATOM      6  C   UNL     1      -4.262  -5.670   0.865  0.00  0.00    +0.035 C 
ATOM      7  C   UNL     1      -4.284  -5.824   2.388  0.00  0.00    +0.006 C 
ATOM      8  C   UNL     1      -2.933  -6.362   2.864  0.00  0.00    -0.005 C 
ATOM      9  C   UNL     1      -1.825  -5.382   2.475  0.00  0.00    +0.006 C 
ATOM     10  C   UNL     1      -1.794  -5.226   0.953  0.00  0.00    +0.035 C 
ATOM     11  N   UNL     1      -3.128  -4.518  -0.990  0.00  0.00    -0.285 N 
ATOM     12  C   UNL     1      -3.361  -3.209  -1.202  0.00  0.00    +0.310 C 
ATOM     13  O   UNL     1      -3.419  -2.703  -2.305  0.00  0.00    -0.252 OA
ATOM     14  H   UNL     1      -2.946  -5.374  -1.657  0.00  0.00    +0.151 HD
BRANCH   8  15
ATOM     15  C   UNL     1      -2.958  -6.526   4.385  0.00  0.00    -0.035 C 
ATOM     16  C   UNL     1      -3.224  -5.169   5.040  0.00  0.00    +0.011 C 
ATOM     17  C   UNL     1      -4.066  -7.506   4.774  0.00  0.00    +0.011 C 
ATOM     18  C   UNL     1      -1.608  -7.067   4.862  0.00  0.00    +0.011 C 
ENDBRANCH   8  15
ENDBRANCH   1   2
BRANCH   1  20
ATOM     19  N   UNL     1      -2.465   1.004   0.153  0.00  0.00    -0.284 N 
ATOM     20  C   UNL     1      -2.471  -0.342   0.082  0.00  0.00    +0.235 C 
ATOM     21  O   UNL     1      -1.424  -0.954   0.077  0.00  0.00    -0.274 OA
ATOM     22  H   UNL     1      -3.413   1.554   0.243  0.00  0.00    +0.155 HD
BRANCH  19  27
ATOM     23  C   UNL     1       0.092   3.571   0.782  0.00  0.00    -0.062 A 
ATOM     24  C   UNL     1       1.144   3.083   0.028  0.00  0.00    +0.002 A 
ATOM     25  C   UNL     1       1.002   1.904  -0.681  0.00  0.00    +0.002 A 
ATOM     26  C   UNL     1      -0.192   1.211  -0.638  0.00  0.00    +0.023 A 
ATOM     27  C   UNL     1      -1.252   1.701   0.113  0.00  0.00    +0.034 A 
ATOM     28  C   UNL     1      -1.104   2.882   0.829  0.00  0.00    +0.025 A 
BRANCH  23  29
ATOM     29  C   UNL     1       0.251   4.856   1.553  0.00  0.00    -0.043 C 
BRANCH  29  30
ATOM     30  N   UNL     1      -0.151   5.987   0.707  0.00  0.00    +0.382 N 
ATOM     31  H   UNL     1       0.396   5.909  -0.244  0.00  0.00    -0.081 HD
BRANCH  30  33
ATOM     32  C   UNL     1      -2.386   6.097   1.702  0.00  0.00    -0.017 C 
ATOM     33  C   UNL     1      -1.589   5.936   0.407  0.00  0.00    -0.082 C 
ENDBRANCH  30  33
BRANCH  30  34
ATOM     34  C   UNL     1       0.210   7.267   1.332  0.00  0.00    -0.082 C 
ATOM     35  C   UNL     1       0.134   8.383   0.289  0.00  0.00    -0.017 C 
ENDBRANCH  30  34
ENDBRANCH  29  30
ENDBRANCH  23  29
ENDBRANCH  19  27
ENDBRANCH   1  20
TORSDOF 8
