REMARK  Name = ZINC35928346
REMARK  8 active torsions:
REMARK  status: ('A' for Active; 'I' for Inactive)
REMARK    1  A    between atoms: C_1  and  C_2
REMARK    2  A    between atoms: C_2  and  C_3
REMARK    3  A    between atoms: C_2  and  C_4
REMARK    4  A    between atoms: C_7  and  N_10
REMARK    5  A    between atoms: C_11  and  N_28
REMARK    6  A    between atoms: C_13  and  C_23
REMARK    7  A    between atoms: C_15  and  S_19
REMARK    8  A    between atoms: S_19  and  C_22
REMARK                            x       y       z     vdW  Elec       q    Type
REMARK                         _______ _______ _______ _____ _____    ______ ____
ROOT
ATOM      1  N   UNL     1       2.801  -1.638  -4.826  0.00  0.00    -0.216 N 
ATOM      2  C   UNL     1       4.090  -2.027  -4.878  0.00  0.00    +0.131 A 
ATOM      3  C   UNL     1       4.271  -2.717  -6.068  0.00  0.00    +0.087 A 
ATOM      4  C   UNL     1       5.352  -3.366  -6.712  0.00  0.00    +0.095 A 
ATOM      5  N   UNL     1       5.126  -3.938  -7.894  0.00  0.00    -0.210 NA
ATOM      6  C   UNL     1       3.936  -3.915  -8.470  0.00  0.00    +0.273 A 
ATOM      7  N   UNL     1       2.882  -3.338  -7.947  0.00  0.00    -0.190 NA
ATOM      8  C   UNL     1       2.965  -2.720  -6.752  0.00  0.00    +0.189 A 
ATOM      9  N   UNL     1       2.127  -2.073  -5.973  0.00  0.00    -0.144 NA
ENDROOT
BRANCH   1  13
ATOM     10  C   UNL     1       1.073   0.522  -1.709  0.00  0.00    -0.045 A 
ATOM     11  C   UNL     1       0.658   0.737  -3.011  0.00  0.00    +0.006 A 
ATOM     12  C   UNL     1       1.229   0.023  -4.046  0.00  0.00    +0.028 A 
ATOM     13  C   UNL     1       2.221  -0.912  -3.779  0.00  0.00    +0.068 A 
ATOM     14  C   UNL     1       2.635  -1.125  -2.471  0.00  0.00    +0.028 A 
ATOM     15  C   UNL     1       2.065  -0.404  -1.441  0.00  0.00    +0.006 A 
BRANCH  10  17
ATOM     16  C   UNL     1       0.680   2.798  -0.807  0.00  0.00    +0.012 C 
ATOM     17  C   UNL     1       0.449   1.302  -0.582  0.00  0.00    +0.013 C 
ATOM     18  C   UNL     1      -1.054   1.020  -0.538  0.00  0.00    +0.012 C 
ENDBRANCH  10  17
ENDBRANCH   1  13
BRANCH   4  19
ATOM     19  C   UNL     1       6.686  -3.407  -6.095  0.00  0.00    +0.038 A 
ATOM     20  C   UNL     1       7.032  -3.684  -4.783  0.00  0.00    +0.017 A 
ATOM     21  C   UNL     1       8.379  -3.647  -4.500  0.00  0.00    +0.008 A 
ATOM     22  C   UNL     1       9.252  -3.352  -5.492  0.00  0.00    +0.046 A 
ATOM     23  S   UNL     1       8.279  -3.121  -6.842  0.00  0.00    -0.095 S 
ENDBRANCH   4  19
BRANCH   6  24
ATOM     24  S   UNL     1       3.757  -4.705 -10.035  0.00  0.00    +0.029 S 
ATOM     25  O   UNL     1       2.673  -4.032 -10.659  0.00  0.00    -0.167 OA
ATOM     26  O   UNL     1       5.057  -4.672 -10.608  0.00  0.00    -0.167 OA
ATOM     27  C   UNL     1       3.291  -6.414  -9.643  0.00  0.00    +0.204 C 
ENDBRANCH   6  24
BRANCH   2  28
ATOM     28  N   UNL     1       5.057  -1.782  -3.920  0.00  0.00    -0.342 N 
ATOM     29  H   UNL     1       4.807  -1.393  -3.067  0.00  0.00    +0.144 HD
ATOM     30  H   UNL     1       5.985  -1.999  -4.101  0.00  0.00    +0.144 HD
ENDBRANCH   2  28
TORSDOF 5
