REMARK  Name = ZINC58845793
REMARK  6 active torsions:
REMARK  status: ('A' for Active; 'I' for Inactive)
REMARK    1  A    between atoms: C_1  and  C_2
REMARK    2  A    between atoms: C_6  and  C_8
REMARK    3  A    between atoms: C_19  and  S_24
REMARK    4  A    between atoms: S_24  and  N_27
REMARK    5  A    between atoms: N_27  and  C_28
REMARK    6  A    between atoms: C_32  and  C_34
REMARK                            x       y       z     vdW  Elec       q    Type
REMARK                         _______ _______ _______ _____ _____    ______ ____
ROOT
ATOM      1  C   UNL     1      -3.829  -2.798   4.651  0.00  0.00    +0.105 C 
ATOM      2  C   UNL     1      -2.439  -2.599   4.124  0.00  0.00    +0.029 C 
ATOM      3  C   UNL     1      -2.385  -2.649   2.583  0.00  0.00    +0.033 C 
ATOM      4  C   UNL     1      -0.981  -3.132   2.287  0.00  0.00    -0.030 C 
ATOM      5  C   UNL     1      -0.444  -3.684   3.344  0.00  0.00    -0.023 C 
ATOM      6  C   UNL     1      -1.423  -3.678   4.491  0.00  0.00    +0.049 C 
ATOM      7  C   UNL     1      -2.028  -5.050   4.593  0.00  0.00    -0.018 A 
ATOM      8  C   UNL     1      -1.176  -6.144   4.617  0.00  0.00    +0.034 A 
ATOM      9  C   UNL     1      -1.684  -7.425   4.698  0.00  0.00    +0.109 A 
ATOM     10  C   UNL     1      -3.051  -7.627   4.755  0.00  0.00    +0.030 A 
ATOM     11  C   UNL     1      -3.906  -6.545   4.737  0.00  0.00    +0.025 A 
ATOM     12  C   UNL     1      -3.395  -5.252   4.661  0.00  0.00    +0.031 A 
ATOM     13  N   UNL     1      -4.264  -4.179   4.691  0.00  0.00    -0.336 N 
ATOM     14  H   UNL     1      -5.216  -4.365   4.714  0.00  0.00    +0.147 HD
ENDROOT
BRANCH   1  20
ATOM     15  C   UNL     1      -6.557   1.311   3.805  0.00  0.00    +0.044 C 
ATOM     16  C   UNL     1      -6.090  -0.056   3.377  0.00  0.00    -0.050 A 
ATOM     17  C   UNL     1      -6.538  -0.599   2.187  0.00  0.00    +0.003 A 
ATOM     18  C   UNL     1      -6.109  -1.853   1.794  0.00  0.00    +0.001 A 
ATOM     19  C   UNL     1      -5.233  -2.565   2.592  0.00  0.00    +0.005 A 
ATOM     20  C   UNL     1      -4.784  -2.022   3.781  0.00  0.00    -0.027 A 
ATOM     21  C   UNL     1      -5.210  -0.766   4.172  0.00  0.00    +0.008 A 
ENDBRANCH   1  20
BRANCH   9  22
ATOM     22  S   UNL     1      -0.589  -8.805   4.728  0.00  0.00    +0.072 S 
ATOM     23  O   UNL     1      -1.290  -9.893   4.140  0.00  0.00    -0.150 OA
ATOM     24  O   UNL     1       0.659  -8.344   4.229  0.00  0.00    -0.150 OA
BRANCH  22  25
ATOM     25  N   UNL     1      -0.346  -9.203   6.317  0.00  0.00    -0.216 N 
ATOM     26  H   UNL     1      -0.625 -10.071   6.648  0.00  0.00    +0.174 HD
BRANCH  25  27
ATOM     27  C   UNL     1       0.261  -8.289   7.181  0.00  0.00    +0.048 A 
ATOM     28  C   UNL     1       1.631  -8.067   7.109  0.00  0.00    +0.024 A 
ATOM     29  C   UNL     1       2.228  -7.162   7.964  0.00  0.00    +0.002 A 
ATOM     30  C   UNL     1       1.464  -6.477   8.892  0.00  0.00    +0.003 A 
ATOM     31  C   UNL     1       0.101  -6.696   8.966  0.00  0.00    -0.049 A 
ATOM     32  C   UNL     1      -0.504  -7.596   8.110  0.00  0.00    +0.027 A 
ATOM     33  C   UNL     1      -0.728  -5.949   9.980  0.00  0.00    +0.044 C 
ENDBRANCH  25  27
ENDBRANCH  22  25
ENDBRANCH   9  22
TORSDOF 4
