REMARK  Name = ZINC60373602
REMARK  9 active torsions:
REMARK  status: ('A' for Active; 'I' for Inactive)
REMARK    1  A    between atoms: C_1  and  C_2
REMARK    2  A    between atoms: C_5  and  C_35
REMARK    3  A    between atoms: N_8  and  C_10
REMARK    4  A    between atoms: C_10  and  C_11
REMARK    5  A    between atoms: C_10  and  C_12
REMARK    6  A    between atoms: C_10  and  C_13
REMARK    7  A    between atoms: C_13  and  N_14
REMARK    8  A    between atoms: C_15  and  C_17
REMARK    9  A    between atoms: C_23  and  C_25
REMARK                            x       y       z     vdW  Elec       q    Type
REMARK                         _______ _______ _______ _____ _____    ______ ____
ROOT
ATOM      1  N   UNL     1       0.627  -0.461   3.561  0.00  0.00    -0.315 N 
ATOM      2  C   UNL     1      -0.331  -0.052   4.416  0.00  0.00    +0.234 C 
ATOM      3  O   UNL     1      -0.092   0.822   5.222  0.00  0.00    -0.274 OA
ATOM      4  H   UNL     1       0.436  -1.160   2.916  0.00  0.00    +0.149 HD
ENDROOT
BRANCH   2   5
ATOM      5  C   UNL     1      -1.700  -0.681   4.370  0.00  0.00    +0.173 C 
ATOM      6  C   UNL     1      -2.286  -0.478   2.951  0.00  0.00    +0.102 C 
ATOM      7  S   UNL     1      -4.058  -0.170   3.379  0.00  0.00    -0.139 S 
ATOM      8  C   UNL     1      -3.742   0.587   5.035  0.00  0.00    +0.178 C 
ATOM      9  N   UNL     1      -2.505  -0.111   5.436  0.00  0.00    -0.276 N 
ATOM     10  C   UNL     1      -2.143  -0.214   6.731  0.00  0.00    +0.250 C 
ATOM     11  O   UNL     1      -1.172  -0.878   7.040  0.00  0.00    -0.270 OA
BRANCH  10  12
ATOM     12  C   UNL     1      -2.922   0.475   7.768  0.00  0.00    +0.062 A 
ATOM     13  C   UNL     1      -3.696   1.587   7.605  0.00  0.00    +0.096 A 
ATOM     14  N   UNL     1      -4.259   1.931   8.789  0.00  0.00    -0.360 N 
ATOM     15  H   UNL     1      -4.851   2.688   8.920  0.00  0.00    +0.165 HD
ATOM     16  C   UNL     1      -3.873   1.051   9.779  0.00  0.00    +0.047 A 
ATOM     17  C   UNL     1      -3.026   0.098   9.190  0.00  0.00    +0.012 A 
ATOM     18  C   UNL     1      -2.485  -0.927   9.961  0.00  0.00    +0.011 A 
ATOM     19  C   UNL     1      -2.787  -1.003  11.303  0.00  0.00    +0.001 A 
ATOM     20  C   UNL     1      -3.627  -0.065  11.886  0.00  0.00    +0.002 A 
ATOM     21  C   UNL     1      -4.162   0.960  11.137  0.00  0.00    +0.026 A 
ENDBRANCH  10  12
ENDBRANCH   2   5
BRANCH   1  22
ATOM     22  C   UNL     1       1.958   0.151   3.605  0.00  0.00    +0.092 C 
BRANCH  22  23
ATOM     23  C   UNL     1       2.812  -0.402   2.462  0.00  0.00    -0.055 C 
ATOM     24  C   UNL     1       4.229   0.167   2.563  0.00  0.00    -0.008 C 
ATOM     25  C   UNL     1       2.194   0.004   1.122  0.00  0.00    -0.008 C 
BRANCH  23  31
ATOM     26  C   UNL     1       2.079  -4.274   3.970  0.00  0.00    +0.005 C 
ATOM     27  C   UNL     1       3.526  -3.778   3.937  0.00  0.00    -0.031 C 
ATOM     28  C   UNL     1       4.254  -4.402   2.742  0.00  0.00    +0.003 C 
ATOM     29  C   UNL     1       3.585  -3.931   1.447  0.00  0.00    -0.031 C 
ATOM     30  C   UNL     1       3.597  -2.402   1.400  0.00  0.00    -0.075 C 
ATOM     31  N   UNL     1       2.864  -1.867   2.553  0.00  0.00    +0.384 N 
ATOM     32  C   UNL     1       3.541  -2.254   3.798  0.00  0.00    -0.075 C 
ATOM     33  C   UNL     1       4.351  -4.487   0.245  0.00  0.00    +0.005 C 
ATOM     34  H   UNL     1       1.925  -2.235   2.554  0.00  0.00    -0.081 HD
ENDBRANCH  23  31
ENDBRANCH  22  23
ENDBRANCH   1  22
TORSDOF 5
