REMARK  Name = ZINC13770164
REMARK  5 active torsions:
REMARK  status: ('A' for Active; 'I' for Inactive)
REMARK    1  A    between atoms: C_4  and  N_7
REMARK    2  A    between atoms: C_8  and  C_26
REMARK    3  A    between atoms: N_17  and  C_20
REMARK    4  A    between atoms: C_29  and  C_31
REMARK    5  A    between atoms: C_36  and  N_37
REMARK                            x       y       z     vdW  Elec       q    Type
REMARK                         _______ _______ _______ _____ _____    ______ ____
ROOT
ATOM      1  N   UNL     1       3.620  -0.649  -0.036  0.00  0.00    -0.241 N 
ATOM      2  C   UNL     1       3.798  -2.131  -0.052  0.00  0.00    +0.193 C 
ATOM      3  C   UNL     1       5.303  -2.307   0.094  0.00  0.00    +0.148 C 
ATOM      4  C   UNL     1       5.732  -0.978  -0.639  0.00  0.00    +0.249 C 
ATOM      5  O   UNL     1       4.935  -0.040  -0.047  0.00  0.00    -0.257 OA
ATOM      6  C   UNL     1       7.128  -1.250  -0.924  0.00  0.00    +0.259 C 
ATOM      7  O   UNL     1       8.043  -0.455  -0.947  0.00  0.00    -0.272 OA
ATOM      8  N   UNL     1       7.193  -2.599  -1.160  0.00  0.00    -0.208 N 
ATOM      9  C   UNL     1       6.053  -3.269  -0.771  0.00  0.00    +0.235 C 
ATOM     10  O   UNL     1       5.720  -4.396  -1.068  0.00  0.00    -0.274 OA
ENDROOT
BRANCH   1  14
ATOM     11  C   UNL     1      -0.017   1.379   0.010  0.00  0.00    +0.000 A 
ATOM     12  C   UNL     1       1.169   2.089   0.002  0.00  0.00    +0.002 A 
ATOM     13  C   UNL     1       2.377   1.420  -0.013  0.00  0.00    +0.028 A 
ATOM     14  C   UNL     1       2.400   0.031  -0.021  0.00  0.00    +0.065 A 
ATOM     15  C   UNL     1       1.206  -0.680  -0.013  0.00  0.00    +0.028 A 
ATOM     16  C   UNL     1       0.002  -0.004   0.002  0.00  0.00    +0.002 A 
ENDBRANCH   1  14
BRANCH   8  17
ATOM     17  C   UNL     1       8.305  -3.235  -1.728  0.00  0.00    +0.044 A 
ATOM     18  C   UNL     1       8.288  -4.607  -1.941  0.00  0.00    +0.024 A 
ATOM     19  C   UNL     1       9.386  -5.231  -2.501  0.00  0.00    +0.002 A 
ATOM     20  C   UNL     1      10.501  -4.491  -2.849  0.00  0.00    +0.000 A 
ATOM     21  C   UNL     1      10.521  -3.124  -2.638  0.00  0.00    +0.002 A 
ATOM     22  C   UNL     1       9.424  -2.494  -2.084  0.00  0.00    +0.024 A 
ENDBRANCH   8  17
BRANCH   2  23
ATOM     23  C   UNL     1       3.071  -2.765   1.105  0.00  0.00    +0.131 A 
ATOM     24  C   UNL     1       2.402  -3.934   1.067  0.00  0.00    +0.047 A 
ATOM     25  C   UNL     1       1.876  -4.152   2.357  0.00  0.00    +0.050 A 
ATOM     26  C   UNL     1       2.258  -3.092   3.119  0.00  0.00    +0.137 A 
ATOM     27  O   UNL     1       2.986  -2.262   2.348  0.00  0.00    -0.457 OA
BRANCH  26  28
ATOM     28  C   UNL     1       1.933  -2.889   4.546  0.00  0.00    +0.047 A 
ATOM     29  C   UNL     1       0.616  -3.019   4.991  0.00  0.00    +0.015 A 
ATOM     30  C   UNL     1       0.320  -2.828   6.324  0.00  0.00    +0.021 A 
ATOM     31  C   UNL     1       1.326  -2.509   7.221  0.00  0.00    +0.043 A 
ATOM     32  C   UNL     1       2.634  -2.379   6.786  0.00  0.00    +0.053 A 
ATOM     33  C   UNL     1       2.944  -2.573   5.456  0.00  0.00    +0.138 A 
ATOM     34 CL   UNL     1       0.945  -2.271   8.898  0.00  0.00    -0.083 Cl
BRANCH  33  35
ATOM     35  N   UNL     1       4.343  -2.441   4.994  0.00  0.00    +0.057 N 
ATOM     36  O   UNL     1       5.218  -2.167   5.783  0.00  0.00    -0.126 OA
ATOM     37  O   UNL     1       4.613  -2.607   3.827  0.00  0.00    -0.126 OA
ENDBRANCH  33  35
ENDBRANCH  26  28
ENDBRANCH   2  23
TORSDOF 5
