REMARK  Name = ZINC40824581
REMARK  8 active torsions:
REMARK  status: ('A' for Active; 'I' for Inactive)
REMARK    1  A    between atoms: C_1  and  C_2
REMARK    2  A    between atoms: C_6  and  C_7
REMARK    3  A    between atoms: N_9  and  N_10
REMARK    4  A    between atoms: C_11  and  C_13
REMARK    5  A    between atoms: C_17  and  C_18
REMARK    6  A    between atoms: N_23  and  N_24
REMARK    7  A    between atoms: N_24  and  C_25
REMARK    8  A    between atoms: C_25  and  N_27
REMARK                            x       y       z     vdW  Elec       q    Type
REMARK                         _______ _______ _______ _____ _____    ______ ____
ROOT
ATOM      1  C   UNL     1      -0.018   1.503   0.010  0.00  0.00    +0.048 C 
ATOM      2  C   UNL     1       0.002  -0.004   0.002  0.00  0.00    +0.009 A 
ATOM      3  C   UNL     1       0.009  -0.838  -1.123  0.00  0.00    +0.042 A 
ATOM      4  C   UNL     1       0.027  -2.137  -0.673  0.00  0.00    +0.115 A 
ATOM      5  O   UNL     1       0.035  -2.112   0.658  0.00  0.00    -0.454 OA
ATOM      6  C   UNL     1       0.024  -0.830   1.091  0.00  0.00    +0.194 A 
ATOM      7  C   UNL     1       0.034  -3.326  -1.600  0.00  0.00    +0.075 C 
ATOM      8  C   UNL     1      -0.492  -2.903  -2.974  0.00  0.00    +0.014 C 
ATOM      9  C   UNL     1       0.279  -1.685  -3.495  0.00  0.00    +0.058 C 
ATOM     10  C   UNL     1       0.000  -0.512  -2.566  0.00  0.00    +0.070 C 
ATOM     11  N   UNL     1      -0.228   0.686  -3.008  0.00  0.00    -0.185 NA
ENDROOT
BRANCH   6  12
ATOM     12  C   UNL     1       0.031  -0.400   2.494  0.00  0.00    +0.296 C 
ATOM     13  O   UNL     1       0.017   0.786   2.766  0.00  0.00    -0.265 OA
ATOM     14  N   UNL     1       0.054  -1.317   3.480  0.00  0.00    -0.228 N 
ATOM     15  H   UNL     1       0.065  -2.263   3.263  0.00  0.00    +0.173 HD
BRANCH  14  16
ATOM     16  N   UNL     1       0.061  -0.906   4.819  0.00  0.00    -0.230 N 
ATOM     17  C   UNL     1       0.083  -1.824   5.806  0.00  0.00    +0.263 C 
ATOM     18  O   UNL     1       0.097  -3.009   5.534  0.00  0.00    -0.269 OA
ATOM     19  H   UNL     1       0.049   0.039   5.037  0.00  0.00    +0.173 HD
BRANCH  17  20
ATOM     20  C   UNL     1       0.090  -1.391   7.215  0.00  0.00    +0.079 A 
ATOM     21  C   UNL     1       0.069  -0.011   7.721  0.00  0.00    +0.054 A 
ATOM     22  C   UNL     1       0.086  -0.108   9.059  0.00  0.00    +0.196 A 
ATOM     23  O   UNL     1       0.115  -1.405   9.405  0.00  0.00    -0.467 OA
ATOM     24  C   UNL     1       0.112  -2.188   8.322  0.00  0.00    +0.114 A 
ATOM     25  C   UNL     1       0.133  -3.695   8.324  0.00  0.00    +0.087 C 
ENDBRANCH  17  20
ENDBRANCH  14  16
ENDBRANCH   6  12
BRANCH  11  26
ATOM     26  N   UNL     1      -0.224   0.938  -4.386  0.00  0.00    -0.218 N 
ATOM     27  H   UNL     1      -0.050   0.216  -5.010  0.00  0.00    +0.176 HD
BRANCH  26  28
ATOM     28  C   UNL     1      -0.461   2.183  -4.844  0.00  0.00    +0.147 C 
ATOM     29  S   UNL     1      -0.455   2.490  -6.529  0.00  0.00    -0.017 S 
BRANCH  28  30
ATOM     30  N   UNL     1      -0.702   3.186  -3.977  0.00  0.00    -0.339 N 
ATOM     31  H   UNL     1      -0.705   3.012  -3.023  0.00  0.00    +0.144 HD
ATOM     32  H   UNL     1      -0.873   4.082  -4.307  0.00  0.00    +0.144 HD
ENDBRANCH  28  30
ENDBRANCH  26  28
ENDBRANCH  11  26
TORSDOF 6
