REMARK  Name = ZINC64056400
REMARK  7 active torsions:
REMARK  status: ('A' for Active; 'I' for Inactive)
REMARK    1  A    between atoms: C_1  and  C_2
REMARK    2  A    between atoms: C_4  and  C_12
REMARK    3  A    between atoms: C_12  and  C_14
REMARK    4  A    between atoms: C_14  and  C_16
REMARK    5  A    between atoms: C_14  and  S_17
REMARK    6  A    between atoms: S_17  and  C_18
REMARK    7  A    between atoms: N_23  and  C_24
REMARK                            x       y       z     vdW  Elec       q    Type
REMARK                         _______ _______ _______ _____ _____    ______ ____
ROOT
ATOM      1  C   UNL     1      -3.750  -1.043  -0.781  0.00  0.00    +0.117 C 
ATOM      2  C   UNL     1      -4.706  -0.185   0.051  0.00  0.00    +0.027 C 
ENDROOT
BRANCH   1   3
ATOM      3  C   UNL     1      -2.428  -0.333  -0.919  0.00  0.00    +0.174 C 
ATOM      4  O   UNL     1      -2.208   0.355  -1.895  0.00  0.00    -0.291 OA
BRANCH   3   7
ATOM      5  C   UNL     1      -0.048   1.594  -0.054  0.00  0.00    +0.035 C 
ATOM      6  C   UNL     1      -0.032   0.068   0.061  0.00  0.00    +0.111 C 
ATOM      7  C   UNL     1      -1.447  -0.467   0.086  0.00  0.00    +0.027 C 
ATOM      8  C   UNL     1      -1.577  -1.116   1.301  0.00  0.00    +0.006 A 
ATOM      9  C   UNL     1      -2.647  -1.812   1.911  0.00  0.00    +0.010 A 
ATOM     10  C   UNL     1      -2.493  -2.361   3.136  0.00  0.00    +0.001 A 
ATOM     11  C   UNL     1      -1.291  -2.272   3.856  0.00  0.00    +0.002 A 
ATOM     12  C   UNL     1      -0.209  -1.630   3.364  0.00  0.00    +0.026 A 
ATOM     13  C   UNL     1      -0.292  -1.004   2.034  0.00  0.00    +0.043 A 
ATOM     14  N   UNL     1       0.579  -0.335   1.331  0.00  0.00    -0.377 N 
ATOM     15  H   UNL     1       1.488  -0.135   1.605  0.00  0.00    +0.160 HD
ENDBRANCH   3   7
ENDBRANCH   1   3
BRANCH   1  16
ATOM     16  S   UNL     1      -4.463  -1.320  -2.426  0.00  0.00    -0.107 S 
BRANCH  16  17
ATOM     17  C   UNL     1      -5.951  -2.304  -2.100  0.00  0.00    +0.241 C 
ATOM     18  N   UNL     1      -6.840  -1.602  -1.158  0.00  0.00    -0.238 N 
ATOM     19  N   UNL     1      -6.946  -2.430  -0.034  0.00  0.00    -0.177 NA
ATOM     20  C   UNL     1      -6.260  -3.505  -0.172  0.00  0.00    +0.210 C 
ATOM     21  N   UNL     1      -5.603  -3.550  -1.396  0.00  0.00    -0.261 N 
ATOM     22  H   UNL     1      -7.265  -0.740  -1.289  0.00  0.00    +0.171 HD
BRANCH  21  23
ATOM     23  C   UNL     1      -4.777  -4.574  -1.867  0.00  0.00    +0.039 A 
ATOM     24  C   UNL     1      -4.184  -4.469  -3.119  0.00  0.00    +0.023 A 
ATOM     25  C   UNL     1      -3.368  -5.481  -3.583  0.00  0.00    +0.003 A 
ATOM     26  C   UNL     1      -3.140  -6.600  -2.802  0.00  0.00    +0.020 A 
ATOM     27  C   UNL     1      -3.728  -6.708  -1.554  0.00  0.00    +0.043 A 
ATOM     28  C   UNL     1      -4.542  -5.695  -1.082  0.00  0.00    +0.043 A 
ATOM     29 CL   UNL     1      -3.439  -8.114  -0.578  0.00  0.00    -0.083 Cl
ENDBRANCH  21  23
ENDBRANCH  16  17
ENDBRANCH   1  16
TORSDOF 5
