REMARK  Name = ZINC57968834
REMARK  7 active torsions:
REMARK  status: ('A' for Active; 'I' for Inactive)
REMARK    1  A    between atoms: C_1  and  C_2
REMARK    2  A    between atoms: C_7  and  C_8
REMARK    3  A    between atoms: C_10  and  C_20
REMARK    4  A    between atoms: N_15  and  C_16
REMARK    5  A    between atoms: C_16  and  C_17
REMARK    6  A    between atoms: C_16  and  C_18
REMARK    7  A    between atoms: C_16  and  C_19
REMARK                            x       y       z     vdW  Elec       q    Type
REMARK                         _______ _______ _______ _____ _____    ______ ____
ROOT
ATOM      1  C   UNL     1      -0.638  -1.334   3.411  0.00  0.00    +0.121 C 
ATOM      2  C   UNL     1      -1.198   0.088   3.183  0.00  0.00    +0.136 C 
ATOM      3  C   UNL     1      -1.798   0.417   4.569  0.00  0.00    +0.113 C 
ATOM      4  C   UNL     1      -1.019  -0.457   5.528  0.00  0.00    +0.217 C 
ATOM      5  O   UNL     1      -0.980  -0.305   6.731  0.00  0.00    -0.276 OA
ATOM      6  N   UNL     1      -0.374  -1.426   4.852  0.00  0.00    -0.289 N 
ENDROOT
BRANCH   1  13
ATOM      7  C   UNL     1      -0.619  -2.393   0.723  0.00  0.00    +0.044 C 
ATOM      8  C   UNL     1      -1.647  -2.874   1.715  0.00  0.00    -0.045 A 
ATOM      9  C   UNL     1      -2.577  -3.826   1.341  0.00  0.00    +0.004 A 
ATOM     10  C   UNL     1      -3.519  -4.266   2.250  0.00  0.00    +0.000 A 
ATOM     11  C   UNL     1      -3.532  -3.756   3.535  0.00  0.00    +0.000 A 
ATOM     12  C   UNL     1      -2.602  -2.805   3.910  0.00  0.00    +0.006 A 
ATOM     13  C   UNL     1      -1.656  -2.367   3.001  0.00  0.00    -0.023 A 
ENDBRANCH   1  13
BRANCH   6  14
ATOM     14  C   UNL     1       0.481  -2.441   5.472  0.00  0.00    +0.030 C 
ATOM     15  C   UNL     1       1.898  -2.329   4.906  0.00  0.00    +0.031 C 
ATOM     16  C   UNL     1       0.519  -2.221   6.986  0.00  0.00    +0.031 C 
ATOM     17  C   UNL     1      -0.079  -3.833   5.173  0.00  0.00    +0.031 C 
ENDBRANCH   6  14
BRANCH   2  18
ATOM     18  C   UNL     1      -2.266   0.083   2.120  0.00  0.00    +0.362 C 
ATOM     19  O   UNL     1      -3.402  -0.261   2.398  0.00  0.00    -0.246 OA
ATOM     20  O   UNL     1      -1.993   0.422   0.981  0.00  0.00    -0.246 OA
ENDBRANCH   2  18
TORSDOF 3
