REMARK  Name = ZINC39664016
REMARK  8 active torsions:
REMARK  status: ('A' for Active; 'I' for Inactive)
REMARK    1  A    between atoms: C_1  and  O_2
REMARK    2  A    between atoms: O_2  and  C_3
REMARK    3  A    between atoms: C_6  and  C_9
REMARK    4  A    between atoms: C_9  and  C_11
REMARK    5  A    between atoms: C_9  and  N_36
REMARK    6  A    between atoms: C_11  and  N_12
REMARK    7  A    between atoms: C_13  and  C_15
REMARK    8  A    between atoms: C_26  and  C_28
REMARK                            x       y       z     vdW  Elec       q    Type
REMARK                         _______ _______ _______ _____ _____    ______ ____
ROOT
ATOM      1  C   UNL     1       2.096  -4.789  -8.800  0.00  0.00    +0.100 C 
ATOM      2  C   UNL     1       2.945  -3.862  -9.699  0.00  0.00    +0.121 C 
ATOM      3  N   UNL     1       2.836  -4.454 -11.054  0.00  0.00    -0.296 N 
ATOM      4  C   UNL     1       1.424  -4.894 -11.152  0.00  0.00    +0.115 C 
ATOM      5  C   UNL     1       1.099  -5.463  -9.757  0.00  0.00    -0.004 C 
ATOM      6  C   UNL     1      -0.332  -5.110  -9.364  0.00  0.00    -0.010 C 
ATOM      7  C   UNL     1      -1.307  -5.839 -10.293  0.00  0.00    -0.082 C 
ATOM      8  N   UNL     1      -1.094  -7.287 -10.190  0.00  0.00    +0.379 N 
ATOM      9  C   UNL     1       0.255  -7.629 -10.658  0.00  0.00    -0.082 C 
ATOM     10  C   UNL     1       1.296  -6.976  -9.744  0.00  0.00    -0.010 C 
ATOM     11  C   UNL     1       3.803  -4.567 -11.986  0.00  0.00    +0.252 C 
ATOM     12  O   UNL     1       3.556  -5.081 -13.059  0.00  0.00    -0.270 OA
ATOM     13  H   UNL     1      -1.197  -7.574  -9.228  0.00  0.00    -0.086 HD
ATOM     14  H   UNL     1      -1.777  -7.768 -10.756  0.00  0.00    -0.086 HD
ENDROOT
BRANCH  11  15
ATOM     15  C   UNL     1       5.162  -4.067 -11.703  0.00  0.00    +0.107 A 
ATOM     16  C   UNL     1       6.117  -4.911 -11.126  0.00  0.00    +0.138 A 
ATOM     17  C   UNL     1       7.388  -4.434 -10.865  0.00  0.00    +0.039 A 
ATOM     18  C   UNL     1       7.716  -3.127 -11.172  0.00  0.00    +0.006 A 
ATOM     19  C   UNL     1       6.779  -2.285 -11.742  0.00  0.00    +0.039 A 
ATOM     20  C   UNL     1       5.505  -2.747 -12.016  0.00  0.00    +0.138 A 
ATOM     21  F   UNL     1       4.592  -1.925 -12.578  0.00  0.00    -0.205 F 
ATOM     22  F   UNL     1       5.797  -6.189 -10.824  0.00  0.00    -0.205 F 
ENDBRANCH  11  15
BRANCH   1  24
ATOM     23  N   UNL     1       1.018  -4.548  -6.587  0.00  0.00    -0.316 N 
ATOM     24  C   UNL     1       1.362  -3.982  -7.760  0.00  0.00    +0.218 C 
ATOM     25  O   UNL     1       1.081  -2.823  -7.979  0.00  0.00    -0.275 OA
ATOM     26  H   UNL     1       1.242  -5.475  -6.411  0.00  0.00    +0.149 HD
BRANCH  23  27
ATOM     27  C   UNL     1       0.304  -3.764  -5.576  0.00  0.00    +0.093 C 
BRANCH  27  28
ATOM     28  C   UNL     1       0.156  -4.592  -4.298  0.00  0.00    -0.020 C 
BRANCH  28  32
ATOM     29  C   UNL     1       4.017  -5.321  -2.618  0.00  0.00    +0.120 A 
ATOM     30  C   UNL     1       3.389  -6.304  -3.370  0.00  0.00    +0.046 A 
ATOM     31  C   UNL     1       2.141  -6.066  -3.912  0.00  0.00    +0.005 A 
ATOM     32  C   UNL     1       1.517  -4.849  -3.706  0.00  0.00    -0.059 A 
ATOM     33  C   UNL     1       2.141  -3.868  -2.957  0.00  0.00    +0.005 A 
ATOM     34  C   UNL     1       3.386  -4.104  -2.408  0.00  0.00    +0.046 A 
BRANCH  29  36
ATOM     35  C   UNL     1       5.834  -6.829  -2.341  0.00  0.00    +0.277 C 
ATOM     36  O   UNL     1       5.245  -5.553  -2.084  0.00  0.00    -0.495 OA
ENDBRANCH  29  36
ENDBRANCH  28  32
BRANCH  28  37
ATOM     37  N   UNL     1      -0.668  -3.856  -3.330  0.00  0.00    +0.385 N 
ATOM     38  C   UNL     1      -2.029  -3.633  -3.882  0.00  0.00    -0.078 C 
ATOM     39  C   UNL     1      -2.890  -3.392  -2.616  0.00  0.00    -0.020 C 
ATOM     40  C   UNL     1      -2.281  -4.377  -1.592  0.00  0.00    -0.020 C 
ATOM     41  C   UNL     1      -0.858  -4.662  -2.105  0.00  0.00    -0.078 C 
ATOM     42  H   UNL     1      -0.235  -2.974  -3.103  0.00  0.00    -0.081 HD
ENDBRANCH  28  37
ENDBRANCH  27  28
ENDBRANCH  23  27
ENDBRANCH   1  24
TORSDOF 7
