REMARK  Name = ZINC41394243
REMARK  9 active torsions:
REMARK  status: ('A' for Active; 'I' for Inactive)
REMARK    1  A    between atoms: C_1  and  C_2
REMARK    2  A    between atoms: C_3  and  N_11
REMARK    3  A    between atoms: C_4  and  C_10
REMARK    4  A    between atoms: N_5  and  C_7
REMARK    5  A    between atoms: C_7  and  C_8
REMARK    6  A    between atoms: C_7  and  C_9
REMARK    7  A    between atoms: N_25  and  C_26
REMARK    8  A    between atoms: C_26  and  C_27
REMARK    9  A    between atoms: C_26  and  C_28
REMARK                            x       y       z     vdW  Elec       q    Type
REMARK                         _______ _______ _______ _____ _____    ______ ____
ROOT
ATOM      1  N   UNL     1      -0.040  -0.436  -2.525  0.00  0.00    -0.282 N 
ATOM      2  C   UNL     1       0.229   0.875  -2.829  0.00  0.00    +0.204 A 
ATOM      3  N   UNL     1       0.793   1.650  -1.925  0.00  0.00    -0.208 NA
ATOM      4  C   UNL     1       1.065   2.922  -2.193  0.00  0.00    +0.117 A 
ATOM      5  C   UNL     1       0.769   3.503  -3.438  0.00  0.00    +0.076 A 
ATOM      6  C   UNL     1       1.126   4.915  -3.585  0.00  0.00    -0.023 A 
ATOM      7  C   UNL     1       1.698   5.516  -2.522  0.00  0.00    -0.004 A 
ATOM      8  S   UNL     1       1.796   4.256  -1.279  0.00  0.00    -0.073 S 
ATOM      9  C   UNL     1       2.152   6.940  -2.419  0.00  0.00    +0.043 C 
ATOM     10  C   UNL     1       2.209   7.534  -3.834  0.00  0.00    +0.005 C 
ATOM     11  C   UNL     1       0.908   7.188  -4.565  0.00  0.00    +0.005 C 
ATOM     12  C   UNL     1       0.869   5.691  -4.874  0.00  0.00    +0.037 C 
ATOM     13  C   UNL     1       0.158   2.638  -4.400  0.00  0.00    +0.264 A 
ATOM     14  O   UNL     1      -0.134   3.054  -5.508  0.00  0.00    -0.267 OA
ATOM     15  N   UNL     1      -0.086   1.357  -4.066  0.00  0.00    -0.278 N 
ATOM     16  H   UNL     1      -0.540  -0.986  -3.148  0.00  0.00    +0.155 HD
ENDROOT
BRANCH   1  19
ATOM     17  C   UNL     1      -0.236   0.996   0.235  0.00  0.00    +0.069 C 
ATOM     18  C   UNL     1       0.338  -0.368  -0.050  0.00  0.00    +0.081 A 
ATOM     19  C   UNL     1       0.411  -0.983  -1.308  0.00  0.00    +0.077 A 
ATOM     20  C   UNL     1       0.992  -2.198  -1.145  0.00  0.00    +0.058 A 
ATOM     21  N   UNL     1       1.276  -2.343   0.176  0.00  0.00    -0.264 N 
ATOM     22  N   UNL     1       0.860  -1.179   0.835  0.00  0.00    -0.174 NA
ATOM     23  C   UNL     1       1.272  -3.205  -2.231  0.00  0.00    +0.067 C 
BRANCH  21  24
ATOM     24  C   UNL     1       1.910  -3.507   0.799  0.00  0.00    +0.101 C 
ATOM     25  C   UNL     1       3.214  -3.077   1.474  0.00  0.00    +0.032 C 
ATOM     26  C   UNL     1       0.966  -4.103   1.845  0.00  0.00    +0.032 C 
ENDBRANCH  21  24
ENDBRANCH   1  19
BRANCH  15  27
ATOM     27  C   UNL     1      -0.708   0.465  -5.048  0.00  0.00    +0.087 C 
ATOM     28  C   UNL     1      -2.076   1.021  -5.448  0.00  0.00    +0.031 C 
ATOM     29  C   UNL     1       0.186   0.368  -6.286  0.00  0.00    +0.031 C 
ENDBRANCH  15  27
TORSDOF 3
