REMARK  Name = ZINC09829615
REMARK  8 active torsions:
REMARK  status: ('A' for Active; 'I' for Inactive)
REMARK    1  A    between atoms: C_5  and  N_7
REMARK    2  A    between atoms: C_12  and  C_14
REMARK    3  A    between atoms: C_12  and  C_29
REMARK    4  A    between atoms: C_12  and  N_60
REMARK    5  A    between atoms: C_14  and  N_15
REMARK    6  A    between atoms: C_16  and  C_18
REMARK    7  A    between atoms: N_20  and  C_21
REMARK    8  A    between atoms: C_21  and  C_22
REMARK                            x       y       z     vdW  Elec       q    Type
REMARK                         _______ _______ _______ _____ _____    ______ ____
ROOT
ATOM      1  C   UNL     1      -1.036   3.567   0.026  0.00  0.00    +0.017 C 
ENDROOT
BRANCH   1   7
ATOM      2  N   UNL     1       0.849   5.158   3.456  0.00  0.00    -0.331 N 
ATOM      3  C   UNL     1       1.342   5.585   2.139  0.00  0.00    +0.086 C 
ATOM      4  C   UNL     1       0.268   5.313   1.083  0.00  0.00    -0.059 C 
ATOM      5  C   UNL     1      -0.554   3.454   2.397  0.00  0.00    -0.059 C 
ATOM      6  C   UNL     1       0.520   3.726   3.453  0.00  0.00    +0.086 C 
ATOM      7  N   UNL     1      -0.037   3.867   1.075  0.00  0.00    +0.389 N 
ATOM      8  H   UNL     1       0.824   3.345   0.875  0.00  0.00    -0.081 HD
BRANCH   2  13
ATOM      9  C   UNL     1       3.079   7.065   5.671  0.00  0.00    +0.002 A 
ATOM     10  C   UNL     1       3.614   6.050   6.443  0.00  0.00    +0.003 A 
ATOM     11  C   UNL     1       3.233   4.738   6.226  0.00  0.00    +0.040 A 
ATOM     12  C   UNL     1       2.316   4.438   5.236  0.00  0.00    +0.144 A 
ATOM     13  C   UNL     1       1.777   5.457   4.459  0.00  0.00    +0.065 A 
ATOM     14  C   UNL     1       2.165   6.772   4.677  0.00  0.00    +0.026 A 
ATOM     15  F   UNL     1       1.945   3.156   5.023  0.00  0.00    -0.204 F 
ENDBRANCH   2  13
ENDBRANCH   1   7
BRANCH   1  16
ATOM     16  C   UNL     1      -2.298   4.356   0.258  0.00  0.00    +0.093 A 
ATOM     17  C   UNL     1      -2.961   5.070  -0.669  0.00  0.00    +0.043 A 
ATOM     18  C   UNL     1      -4.080   5.644  -0.023  0.00  0.00    +0.041 A 
ATOM     19  C   UNL     1      -4.034   5.246   1.261  0.00  0.00    +0.195 A 
ATOM     20  O   UNL     1      -2.956   4.461   1.424  0.00  0.00    -0.469 OA
ENDBRANCH   1  16
BRANCH   1  21
ATOM     21  C   UNL     1      -1.356   2.071   0.058  0.00  0.00    +0.097 C 
BRANCH  21  22
ATOM     22  N   UNL     1      -0.113   1.303  -0.048  0.00  0.00    -0.309 N 
ATOM     23  C   UNL     1      -0.151  -0.045  -0.041  0.00  0.00    +0.299 C 
ATOM     24  O   UNL     1      -1.214  -0.621   0.057  0.00  0.00    -0.265 OA
ATOM     25  H   UNL     1       0.737   1.764  -0.127  0.00  0.00    +0.149 HD
BRANCH  23  26
ATOM     26  C   UNL     1       1.116  -0.828  -0.155  0.00  0.00    +0.299 C 
ATOM     27  O   UNL     1       2.179  -0.252  -0.254  0.00  0.00    -0.265 OA
ATOM     28  N   UNL     1       1.078  -2.175  -0.149  0.00  0.00    -0.303 N 
ATOM     29  H   UNL     1       0.228  -2.636  -0.070  0.00  0.00    +0.149 HD
BRANCH  28  30
ATOM     30  C   UNL     1       2.321  -2.944  -0.260  0.00  0.00    +0.140 C 
BRANCH  30  31
ATOM     31  C   UNL     1       2.005  -4.417  -0.228  0.00  0.00    -0.030 A 
ATOM     32  C   UNL     1       1.975  -5.091   0.979  0.00  0.00    +0.006 A 
ATOM     33  C   UNL     1       1.680  -6.441   1.010  0.00  0.00    +0.020 A 
ATOM     34  C   UNL     1       1.425  -7.120  -0.169  0.00  0.00    +0.041 A 
ATOM     35  C   UNL     1       1.461  -6.446  -1.377  0.00  0.00    +0.020 A 
ATOM     36  C   UNL     1       1.751  -5.095  -1.405  0.00  0.00    +0.006 A 
ATOM     37 CL   UNL     1       1.061  -8.817  -0.131  0.00  0.00    -0.084 Cl
ENDBRANCH  30  31
ENDBRANCH  28  30
ENDBRANCH  23  26
ENDBRANCH  21  22
ENDBRANCH   1  21
TORSDOF 8
