REMARK  Name = ZINC39940014
REMARK  12 active torsions:
REMARK  status: ('A' for Active; 'I' for Inactive)
REMARK    1  A    between atoms: C_1  and  C_2
REMARK    2  A    between atoms: C_4  and  C_18
REMARK    3  A    between atoms: C_5  and  C_17
REMARK    4  A    between atoms: N_7  and  C_8
REMARK    5  A    between atoms: C_8  and  C_9
REMARK    6  A    between atoms: C_18  and  N_19
REMARK    7  A    between atoms: N_19  and  C_20
REMARK    8  A    between atoms: C_20  and  C_21
REMARK    9  A    between atoms: C_21  and  C_22
REMARK   10  A    between atoms: C_22  and  C_23
REMARK   11  A    between atoms: C_24  and  C_30
REMARK   12  A    between atoms: C_25  and  N_29
REMARK                            x       y       z     vdW  Elec       q    Type
REMARK                         _______ _______ _______ _____ _____    ______ ____
ROOT
ATOM      1  C   UNL     1       0.377  -0.284  -2.656  0.00  0.00    -0.048 C 
ENDROOT
BRANCH   1   4
ATOM      2  C   UNL     1      -0.019   1.526   0.010  0.00  0.00    +0.030 C 
ATOM      3  C   UNL     1       0.002  -0.004   0.002  0.00  0.00    +0.099 C 
ATOM      4  C   UNL     1       0.745  -0.517  -1.213  0.00  0.00    -0.051 C 
ATOM      5  C   UNL     1       1.776  -1.206  -0.766  0.00  0.00    +0.015 C 
ATOM      6  N   UNL     1       1.821  -1.222   0.614  0.00  0.00    -0.281 N 
ATOM      7  N   UNL     1       0.778  -0.516   1.149  0.00  0.00    -0.218 NA
ATOM      8  C   UNL     1       2.781  -1.893  -1.654  0.00  0.00    +0.061 C 
ATOM      9  H   UNL     1       2.501  -1.676   1.135  0.00  0.00    +0.166 HD
BRANCH   7  10
ATOM     10  C   UNL     1      -0.054  -1.371   2.007  0.00  0.00    +0.144 C 
BRANCH  10  11
ATOM     11  C   UNL     1       0.733  -1.774   3.228  0.00  0.00    +0.005 A 
ATOM     12  C   UNL     1       1.498  -2.926   3.208  0.00  0.00    +0.047 A 
ATOM     13  C   UNL     1       2.220  -3.296   4.329  0.00  0.00    +0.020 A 
ATOM     14  C   UNL     1       2.176  -2.514   5.469  0.00  0.00    +0.003 A 
ATOM     15  C   UNL     1       1.412  -1.363   5.489  0.00  0.00    +0.020 A 
ATOM     16  C   UNL     1       0.694  -0.989   4.367  0.00  0.00    +0.047 A 
ATOM     17 CL   UNL     1      -0.260   0.461   4.389  0.00  0.00    -0.083 Cl
ATOM     18 CL   UNL     1       1.553  -3.908   1.778  0.00  0.00    -0.083 Cl
ENDBRANCH  10  11
ENDBRANCH   7  10
ENDBRANCH   1   4
BRANCH   1  19
ATOM     19  N   UNL     1      -0.609  -1.289  -3.077  0.00  0.00    +0.382 N 
ATOM     20  H   UNL     1      -0.213  -2.212  -2.975  0.00  0.00    -0.085 HD
ATOM     21  H   UNL     1      -1.435  -1.212  -2.502  0.00  0.00    -0.085 HD
BRANCH  19  22
ATOM     22  C   UNL     1      -0.968  -1.063  -4.484  0.00  0.00    -0.082 C 
BRANCH  22  23
ATOM     23  C   UNL     1      -1.994  -2.109  -4.923  0.00  0.00    -0.013 C 
BRANCH  23  24
ATOM     24  C   UNL     1      -2.368  -1.873  -6.387  0.00  0.00    +0.057 C 
BRANCH  24  25
ATOM     25  C   UNL     1      -3.379  -2.904  -6.820  0.00  0.00    +0.082 A 
ATOM     26  C   UNL     1      -4.785  -2.776  -6.729  0.00  0.00    +0.113 A 
ATOM     27  C   UNL     1      -5.334  -3.950  -7.236  0.00  0.00    +0.129 A 
ATOM     28  N   UNL     1      -4.306  -4.740  -7.611  0.00  0.00    -0.263 N 
ATOM     29  N   UNL     1      -3.109  -4.065  -7.347  0.00  0.00    -0.176 NA
ATOM     30  H   UNL     1      -4.383  -5.624  -8.002  0.00  0.00    +0.190 HD
BRANCH  27  31
ATOM     31  N   UNL     1      -6.679  -4.251  -7.337  0.00  0.00    -0.342 N 
ATOM     32  H   UNL     1      -7.343  -3.611  -7.036  0.00  0.00    +0.144 HD
ATOM     33  H   UNL     1      -6.959  -5.102  -7.707  0.00  0.00    +0.144 HD
ENDBRANCH  27  31
BRANCH  26  34
ATOM     34  C   UNL     1      -5.506  -1.652  -6.212  0.00  0.00    +0.104 C 
ATOM     35  N   UNL     1      -6.078  -0.760  -5.803  0.00  0.00    -0.191 NA
ENDBRANCH  26  34
ENDBRANCH  24  25
ENDBRANCH  23  24
ENDBRANCH  22  23
ENDBRANCH  19  22
ENDBRANCH   1  19
TORSDOF 10
