REMARK  Name = ZINC39325347
REMARK  6 active torsions:
REMARK  status: ('A' for Active; 'I' for Inactive)
REMARK    1  A    between atoms: C_4  and  S_7
REMARK    2  A    between atoms: S_7  and  N_10
REMARK    3  A    between atoms: N_10  and  C_11
REMARK    4  A    between atoms: N_10  and  C_21
REMARK    5  A    between atoms: C_11  and  C_12
REMARK    6  A    between atoms: C_21  and  C_22
REMARK                            x       y       z     vdW  Elec       q    Type
REMARK                         _______ _______ _______ _____ _____    ______ ____
ROOT
ATOM      1  N   UNL     1       4.419  -1.167   1.665  0.00  0.00    -0.171 NA
ENDROOT
BRANCH   1   2
ATOM      2  S   UNL     1       3.467  -0.839   0.350  0.00  0.00    +0.061 S 
ATOM      3  O   UNL     1       3.201  -2.084  -0.280  0.00  0.00    -0.153 OA
ATOM      4  O   UNL     1       4.080   0.246  -0.334  0.00  0.00    -0.153 OA
BRANCH   2   8
ATOM      5  C   UNL     1      -0.496   0.692   1.914  0.00  0.00    +0.000 A 
ATOM      6  C   UNL     1       0.532   1.578   1.651  0.00  0.00    +0.002 A 
ATOM      7  C   UNL     1       1.742   1.110   1.173  0.00  0.00    +0.028 A 
ATOM      8  C   UNL     1       1.925  -0.243   0.960  0.00  0.00    +0.105 A 
ATOM      9  C   UNL     1       0.898  -1.129   1.224  0.00  0.00    +0.028 A 
ATOM     10  C   UNL     1      -0.313  -0.662   1.700  0.00  0.00    +0.002 A 
ENDBRANCH   2   8
ENDBRANCH   1   2
BRANCH   1  11
ATOM     11  C   UNL     1       4.393  -2.500   2.273  0.00  0.00    +0.144 C 
BRANCH  11  12
ATOM     12  C   UNL     1       5.492  -3.344   1.682  0.00  0.00    -0.028 A 
ATOM     13  C   UNL     1       5.248  -4.102   0.552  0.00  0.00    +0.009 A 
ATOM     14  C   UNL     1       6.253  -4.878   0.006  0.00  0.00    +0.050 A 
ATOM     15  C   UNL     1       7.509  -4.897   0.590  0.00  0.00    +0.166 A 
ATOM     16  C   UNL     1       7.755  -4.134   1.728  0.00  0.00    +0.167 A 
ATOM     17  C   UNL     1       6.745  -3.354   2.267  0.00  0.00    +0.054 A 
ATOM     18  O   UNL     1       9.053  -4.322   2.108  0.00  0.00    -0.453 OA
ATOM     19  C   UNL     1       9.480  -5.520   1.434  0.00  0.00    +0.466 C 
ATOM     20  O   UNL     1       8.652  -5.564   0.257  0.00  0.00    -0.453 OA
ENDBRANCH  11  12
ENDBRANCH   1  11
BRANCH   1  21
ATOM     21  C   UNL     1       5.288  -0.126   2.219  0.00  0.00    +0.126 C 
BRANCH  21  22
ATOM     22  C   UNL     1       4.485   0.747   3.185  0.00  0.00    +0.114 C 
ATOM     23  C   UNL     1       5.329   1.959   3.528  0.00  0.00    -0.003 C 
ATOM     24  C   UNL     1       5.614   2.171   4.841  0.00  0.00    -0.003 A 
ATOM     25  C   UNL     1       6.424   3.318   5.254  0.00  0.00    +0.059 A 
ATOM     26  C   UNL     1       6.692   3.501   6.574  0.00  0.00    +0.167 A 
ATOM     27  C   UNL     1       6.203   2.606   7.550  0.00  0.00    +0.168 A 
ATOM     28  C   UNL     1       5.436   1.511   7.211  0.00  0.00    +0.073 A 
ATOM     29  C   UNL     1       5.112   1.247   5.875  0.00  0.00    +0.044 A 
ATOM     30  N   UNL     1       4.369   0.181   5.568  0.00  0.00    -0.284 N 
ATOM     31  C   UNL     1       4.028  -0.128   4.330  0.00  0.00    +0.225 C 
ATOM     32  O   UNL     1       3.348  -1.113   4.113  0.00  0.00    -0.275 OA
ATOM     33  O   UNL     1       6.626   3.038   8.773  0.00  0.00    -0.453 OA
ATOM     34  C   UNL     1       7.710   3.946   8.510  0.00  0.00    +0.466 C 
ATOM     35  O   UNL     1       7.413   4.476   7.206  0.00  0.00    -0.453 OA
ATOM     36  H   UNL     1       4.065  -0.393   6.289  0.00  0.00    +0.155 HD
ENDBRANCH  21  22
ENDBRANCH   1  21
TORSDOF 6
