REMARK  Name = ZINC00664667
REMARK  4 active torsions:
REMARK  status: ('A' for Active; 'I' for Inactive)
REMARK    1  A    between atoms: C_5  and  C_7
REMARK    2  A    between atoms: C_14  and  N_27
REMARK    3  A    between atoms: C_15  and  C_25
REMARK    4  A    between atoms: C_16  and  C_18
REMARK                            x       y       z     vdW  Elec       q    Type
REMARK                         _______ _______ _______ _____ _____    ______ ____
ROOT
ATOM      1  C   UNL     1       1.248  -2.162  -0.022  0.00  0.00    +0.076 A 
ATOM      2  C   UNL     1       1.728  -2.963   0.960  0.00  0.00    +0.054 A 
ATOM      3  C   UNL     1       1.563  -4.301   0.552  0.00  0.00    +0.245 A 
ATOM      4  N   UNL     1       1.007  -4.305  -0.626  0.00  0.00    -0.135 NA
ATOM      5  N   UNL     1       0.787  -2.975  -1.018  0.00  0.00    -0.273 N 
ATOM      6  H   UNL     1       0.382  -2.685  -1.851  0.00  0.00    +0.189 HD
ATOM      7  O   UNL     1       1.951  -5.345   1.333  0.00  0.00    -0.421 OA
ATOM      8  C   UNL     1       2.249  -5.081   2.621  0.00  0.00    +0.201 C 
ATOM      9  C   UNL     1       2.441  -3.843   3.123  0.00  0.00    +0.098 C 
ATOM     10  C   UNL     1       2.347  -2.594   2.283  0.00  0.00    +0.102 C 
ENDROOT
BRANCH   1  15
ATOM     11  C   UNL     1      -0.017   1.375   0.010  0.00  0.00    +0.001 A 
ATOM     12  C   UNL     1       1.170   2.087   0.002  0.00  0.00    +0.003 A 
ATOM     13  C   UNL     1       2.382   1.423  -0.013  0.00  0.00    +0.039 A 
ATOM     14  C   UNL     1       2.416   0.041  -0.021  0.00  0.00    +0.133 A 
ATOM     15  C   UNL     1       1.221  -0.683  -0.013  0.00  0.00    +0.035 A 
ATOM     16  C   UNL     1       0.002  -0.004   0.002  0.00  0.00    +0.013 A 
ATOM     17  F   UNL     1       3.601  -0.608  -0.037  0.00  0.00    -0.205 F 
ENDBRANCH   1  15
BRANCH  10  18
ATOM     18  C   UNL     1       3.725  -2.026   2.060  0.00  0.00    -0.034 A 
ATOM     19  C   UNL     1       4.695  -2.791   1.439  0.00  0.00    +0.006 A 
ATOM     20  C   UNL     1       5.959  -2.271   1.234  0.00  0.00    +0.020 A 
ATOM     21  C   UNL     1       6.254  -0.986   1.650  0.00  0.00    +0.041 A 
ATOM     22  C   UNL     1       5.283  -0.221   2.272  0.00  0.00    +0.020 A 
ATOM     23  C   UNL     1       4.018  -0.740   2.472  0.00  0.00    +0.006 A 
ATOM     24 CL   UNL     1       7.842  -0.332   1.393  0.00  0.00    -0.084 Cl
ENDBRANCH  10  18
BRANCH   8  25
ATOM     25  N   UNL     1       2.365  -6.144   3.481  0.00  0.00    -0.328 N 
ATOM     26  H   UNL     1       2.233  -7.048   3.155  0.00  0.00    +0.145 HD
ATOM     27  H   UNL     1       2.578  -5.991   4.415  0.00  0.00    +0.145 HD
ENDBRANCH   8  25
BRANCH   9  28
ATOM     28  C   UNL     1       2.747  -3.710   4.515  0.00  0.00    +0.101 C 
ATOM     29  N   UNL     1       2.990  -3.604   5.620  0.00  0.00    -0.191 NA
ENDBRANCH   9  28
TORSDOF 4
