REMARK  Name = ZINC53128458
REMARK  5 active torsions:
REMARK  status: ('A' for Active; 'I' for Inactive)
REMARK    1  A    between atoms: C_1  and  C_2
REMARK    2  A    between atoms: C_7  and  C_9
REMARK    3  A    between atoms: C_7  and  N_11
REMARK    4  A    between atoms: C_9  and  O_10
REMARK    5  A    between atoms: C_13  and  N_19
REMARK                            x       y       z     vdW  Elec       q    Type
REMARK                         _______ _______ _______ _____ _____    ______ ____
ROOT
ATOM      1  N   UNL     1      -0.635  -2.580   1.252  0.00  0.00    -0.319 N 
ATOM      2  C   UNL     1      -1.552  -2.158   2.207  0.00  0.00    +0.151 A 
ATOM      3  C   UNL     1      -2.828  -2.712   2.229  0.00  0.00    +0.166 A 
ATOM      4  C   UNL     1      -3.732  -2.283   3.185  0.00  0.00    +0.039 A 
ATOM      5  C   UNL     1      -3.328  -1.312   4.090  0.00  0.00    +0.042 A 
ATOM      6  C   UNL     1      -2.045  -0.804   4.011  0.00  0.00    +0.131 A 
ATOM      7  N   UNL     1      -1.202  -1.236   3.091  0.00  0.00    -0.218 NA
ATOM      8 CL   UNL     1      -1.533   0.411   5.140  0.00  0.00    -0.062 Cl
ATOM      9  H   UNL     1      -0.902  -3.216   0.571  0.00  0.00    +0.148 HD
ENDROOT
BRANCH   1  15
ATOM     10  C   UNL     1       0.043   1.302  -0.463  0.00  0.00    +0.007 C 
ATOM     11  C   UNL     1       0.066  -0.216  -0.267  0.00  0.00    -0.012 C 
ATOM     12  C   UNL     1       0.873  -0.863  -1.394  0.00  0.00    +0.003 C 
ATOM     13  C   UNL     1       0.896  -2.380  -1.198  0.00  0.00    +0.002 C 
ATOM     14  C   UNL     1       1.544  -2.711   0.148  0.00  0.00    +0.028 C 
ATOM     15  C   UNL     1       0.736  -2.064   1.275  0.00  0.00    +0.057 C 
ATOM     16  C   UNL     1       0.713  -0.546   1.079  0.00  0.00    +0.031 C 
BRANCH  15  17
ATOM     17  C   UNL     1       1.383  -2.395   2.621  0.00  0.00    +0.181 C 
BRANCH  17  18
ATOM     18  O   UNL     1       1.294  -3.801   2.860  0.00  0.00    -0.393 OA
ATOM     19  H   UNL     1       1.685  -4.083   3.698  0.00  0.00    +0.209 HD
ENDBRANCH  17  18
ENDBRANCH  15  17
ENDBRANCH   1  15
BRANCH   3  20
ATOM     20  N   UNL     1      -3.214  -3.746   1.243  0.00  0.00    +0.060 N 
ATOM     21  O   UNL     1      -4.285  -4.299   1.335  0.00  0.00    -0.126 OA
ATOM     22  O   UNL     1      -2.458  -4.037   0.346  0.00  0.00    -0.126 OA
ENDBRANCH   3  20
TORSDOF 4
