REMARK  Name = ZINC14548343
REMARK  6 active torsions:
REMARK  status: ('A' for Active; 'I' for Inactive)
REMARK    1  A    between atoms: C_1  and  C_2
REMARK    2  A    between atoms: C_2  and  N_3
REMARK    3  A    between atoms: N_3  and  C_4
REMARK    4  A    between atoms: C_10  and  C_12
REMARK    5  A    between atoms: C_25  and  C_28
REMARK    6  A    between atoms: C_37  and  O_38
REMARK                            x       y       z     vdW  Elec       q    Type
REMARK                         _______ _______ _______ _____ _____    ______ ____
ROOT
ATOM      1  C   UNL     1       3.247  -1.063  -9.223  0.00  0.00    +0.038 A 
ATOM      2  C   UNL     1       2.519  -1.669  -8.195  0.00  0.00    +0.015 A 
ATOM      3  C   UNL     1       2.658  -3.018  -7.969  0.00  0.00    +0.024 A 
ATOM      4  C   UNL     1       3.518  -3.777  -8.760  0.00  0.00    +0.031 A 
ATOM      5  C   UNL     1       4.247  -3.185  -9.781  0.00  0.00    -0.019 A 
ATOM      6  C   UNL     1       4.112  -1.827 -10.007  0.00  0.00    +0.019 A 
ATOM      7  C   UNL     1       5.194  -3.956 -10.662  0.00  0.00    +0.049 C 
ATOM      8  C   UNL     1       6.577  -3.344 -10.492  0.00  0.00    -0.023 C 
ATOM      9  C   UNL     1       7.273  -4.024  -9.615  0.00  0.00    -0.030 C 
ATOM     10  C   UNL     1       6.458  -5.186  -9.076  0.00  0.00    +0.033 C 
ATOM     11  C   UNL     1       5.396  -5.404 -10.179  0.00  0.00    +0.029 C 
ATOM     12  C   UNL     1       4.124  -5.997  -9.601  0.00  0.00    +0.109 C 
ATOM     13  N   UNL     1       3.636  -5.143  -8.512  0.00  0.00    -0.336 N 
ATOM     14  H   UNL     1       3.403  -5.518  -7.648  0.00  0.00    +0.147 HD
ENDROOT
BRANCH  12  15
ATOM     15  C   UNL     1       3.075  -6.084 -10.680  0.00  0.00    +0.022 A 
ATOM     16  C   UNL     1       1.718  -6.193 -10.337  0.00  0.00    -0.009 A 
ATOM     17  C   UNL     1       1.305  -6.223  -8.994  0.00  0.00    +0.009 A 
ATOM     18  C   UNL     1      -0.019  -6.329  -8.698  0.00  0.00    +0.001 A 
ATOM     19  C   UNL     1      -0.976  -6.408  -9.709  0.00  0.00    +0.001 A 
ATOM     20  C   UNL     1      -0.613  -6.382 -11.021  0.00  0.00    +0.008 A 
ATOM     21  C   UNL     1       0.745  -6.273 -11.365  0.00  0.00    -0.017 A 
ATOM     22  C   UNL     1       1.156  -6.242 -12.709  0.00  0.00    +0.012 A 
ATOM     23  C   UNL     1       2.478  -6.136 -13.008  0.00  0.00    +0.046 A 
ATOM     24  C   UNL     1       3.439  -6.051 -11.996  0.00  0.00    +0.122 A 
BRANCH  24  25
ATOM     25  O   UNL     1       4.753  -5.940 -12.326  0.00  0.00    -0.506 OA
ATOM     26  H   UNL     1       5.170  -6.779 -12.565  0.00  0.00    +0.292 HD
ENDBRANCH  24  25
ENDBRANCH  12  15
BRANCH   1  28
ATOM     27  N   UNL     1       1.937   1.002  -9.210  0.00  0.00    -0.268 N 
ATOM     28  C   UNL     1       3.105   0.383  -9.475  0.00  0.00    +0.251 C 
ATOM     29  O   UNL     1       4.041   1.017  -9.922  0.00  0.00    -0.270 OA
BRANCH  27  30
ATOM     30  C   UNL     1       1.839   2.391  -9.331  0.00  0.00    +0.037 A 
ATOM     31  C   UNL     1       0.603   3.014  -9.220  0.00  0.00    +0.023 A 
ATOM     32  C   UNL     1       0.510   4.387  -9.333  0.00  0.00    +0.002 A 
ATOM     33  C   UNL     1       1.645   5.141  -9.570  0.00  0.00    +0.000 A 
ATOM     34  C   UNL     1       2.877   4.524  -9.687  0.00  0.00    +0.002 A 
ATOM     35  C   UNL     1       2.977   3.151  -9.568  0.00  0.00    +0.023 A 
ENDBRANCH  27  30
BRANCH  27  37
ATOM     36  C   UNL     1       0.395   0.585  -7.358  0.00  0.00    +0.025 C 
ATOM     37  C   UNL     1       0.771   0.218  -8.795  0.00  0.00    +0.110 C 
ENDBRANCH  27  37
ENDBRANCH   1  28
TORSDOF 5
