REMARK  Name = ZINC39665849
REMARK  10 active torsions:
REMARK  status: ('A' for Active; 'I' for Inactive)
REMARK    1  A    between atoms: C_1  and  C_2
REMARK    2  A    between atoms: C_6  and  C_7
REMARK    3  A    between atoms: C_11  and  C_20
REMARK    4  A    between atoms: N_22  and  C_23
REMARK    5  A    between atoms: C_23  and  C_24
REMARK    6  A    between atoms: C_24  and  C_26
REMARK    7  A    between atoms: C_24  and  O_27
REMARK    8  A    between atoms: O_27  and  C_28
REMARK    9  A    between atoms: C_31  and  O_34
REMARK   10  A    between atoms: O_34  and  C_35
REMARK                            x       y       z     vdW  Elec       q    Type
REMARK                         _______ _______ _______ _____ _____    ______ ____
ROOT
ATOM      1  C   UNL     1       0.246  -0.018   2.666  0.00  0.00    +0.254 C 
ATOM      2  O   UNL     1       0.397   1.162   2.924  0.00  0.00    -0.269 OA
ATOM      3  N   UNL     1       0.131  -0.916   3.663  0.00  0.00    -0.296 N 
ATOM      4  C   UNL     1       0.064  -2.393   3.552  0.00  0.00    +0.121 C 
ATOM      5  C   UNL     1       0.906  -2.912   4.739  0.00  0.00    +0.100 C 
ATOM      6  C   UNL     1       0.886  -1.766   5.765  0.00  0.00    -0.004 C 
ATOM      7  C   UNL     1       0.049  -0.652   5.120  0.00  0.00    +0.115 C 
ATOM      8  C   UNL     1       0.237  -2.231   7.065  0.00  0.00    -0.010 C 
ATOM      9  C   UNL     1       0.282  -1.093   8.088  0.00  0.00    -0.082 C 
ATOM     10  N   UNL     1       1.676  -0.701   8.327  0.00  0.00    +0.379 N 
ATOM     11  C   UNL     1       2.265  -0.168   7.093  0.00  0.00    -0.082 C 
ATOM     12  C   UNL     1       2.304  -1.268   6.027  0.00  0.00    -0.010 C 
ATOM     13  H   UNL     1       1.707   0.006   9.046  0.00  0.00    -0.086 HD
ATOM     14  H   UNL     1       2.203  -1.507   8.629  0.00  0.00    -0.086 HD
ENDROOT
BRANCH   1  20
ATOM     15  C   UNL     1       0.289   1.804   0.139  0.00  0.00    +0.045 C 
ATOM     16  C   UNL     1       0.204   0.300   0.110  0.00  0.00    -0.031 A 
ATOM     17  C   UNL     1       0.142  -0.406  -1.067  0.00  0.00    +0.011 A 
ATOM     18  C   UNL     1       0.067  -1.760  -1.022  0.00  0.00    +0.046 A 
ATOM     19  S   UNL     1       0.078  -2.117   0.620  0.00  0.00    -0.092 S 
ATOM     20  C   UNL     1       0.188  -0.461   1.270  0.00  0.00    +0.077 A 
ENDBRANCH   1  20
BRANCH   5  21
ATOM     21  C   UNL     1       2.317  -3.198   4.296  0.00  0.00    +0.218 C 
ATOM     22  O   UNL     1       2.839  -2.506   3.447  0.00  0.00    -0.275 OA
ATOM     23  N   UNL     1       3.001  -4.223   4.843  0.00  0.00    -0.312 N 
ATOM     24  H   UNL     1       2.584  -4.777   5.522  0.00  0.00    +0.149 HD
BRANCH  23  25
ATOM     25  C   UNL     1       4.373  -4.502   4.412  0.00  0.00    +0.148 C 
BRANCH  25  26
ATOM     26  C   UNL     1       4.915  -5.707   5.183  0.00  0.00    +0.187 C 
ATOM     27  C   UNL     1       6.348  -5.998   4.733  0.00  0.00    +0.053 C 
BRANCH  26  28
ATOM     28  O   UNL     1       4.904  -5.421   6.583  0.00  0.00    -0.488 OA
BRANCH  28  29
ATOM     29  C   UNL     1       4.671  -6.464   7.424  0.00  0.00    +0.121 A 
ATOM     30  C   UNL     1       4.510  -6.236   8.783  0.00  0.00    +0.049 A 
ATOM     31  C   UNL     1       4.274  -7.296   9.637  0.00  0.00    +0.049 A 
ATOM     32  C   UNL     1       4.197  -8.587   9.137  0.00  0.00    +0.120 A 
ATOM     33  C   UNL     1       4.357  -8.814   7.778  0.00  0.00    +0.049 A 
ATOM     34  C   UNL     1       4.589  -7.755   6.923  0.00  0.00    +0.049 A 
BRANCH  32  35
ATOM     35  O   UNL     1       3.965  -9.630   9.978  0.00  0.00    -0.495 OA
ATOM     36  C   UNL     1       3.898 -10.932   9.394  0.00  0.00    +0.277 C 
ENDBRANCH  32  35
ENDBRANCH  28  29
ENDBRANCH  26  28
ENDBRANCH  25  26
ENDBRANCH  23  25
ENDBRANCH   5  21
TORSDOF 7
