REMARK  Name = ZINC34736458
REMARK  9 active torsions:
REMARK  status: ('A' for Active; 'I' for Inactive)
REMARK    1  A    between atoms: C_1  and  C_2
REMARK    2  A    between atoms: C_2  and  C_4
REMARK    3  A    between atoms: C_2  and  O_27
REMARK    4  A    between atoms: N_6  and  C_7
REMARK    5  A    between atoms: C_7  and  C_8
REMARK    6  A    between atoms: C_8  and  S_9
REMARK    7  A    between atoms: S_9  and  C_10
REMARK    8  A    between atoms: C_19  and  C_20
REMARK    9  A    between atoms: O_27  and  C_28
REMARK                            x       y       z     vdW  Elec       q    Type
REMARK                         _______ _______ _______ _____ _____    ______ ____
ROOT
ATOM      1  C   UNL     1      -7.672   0.151  -3.533  0.00  0.00    +0.041 A 
ATOM      2  C   UNL     1      -7.787  -1.011  -4.419  0.00  0.00    +0.014 A 
ATOM      3  C   UNL     1      -7.567  -2.380  -4.249  0.00  0.00    +0.011 A 
ATOM      4  C   UNL     1      -7.768  -3.235  -5.295  0.00  0.00    +0.001 A 
ATOM      5  C   UNL     1      -8.189  -2.754  -6.528  0.00  0.00    +0.002 A 
ATOM      6  C   UNL     1      -8.412  -1.408  -6.718  0.00  0.00    +0.026 A 
ATOM      7  C   UNL     1      -8.214  -0.519  -5.666  0.00  0.00    +0.048 A 
ATOM      8  N   UNL     1      -8.350   0.847  -5.551  0.00  0.00    -0.353 N 
ATOM      9  H   UNL     1      -8.633   1.442  -6.263  0.00  0.00    +0.166 HD
ATOM     10  C   UNL     1      -8.027   1.243  -4.264  0.00  0.00    +0.061 A 
ENDROOT
BRANCH  10  11
ATOM     11  C   UNL     1      -8.061   2.631  -3.764  0.00  0.00    -0.001 A 
ATOM     12  C   UNL     1      -8.666   2.921  -2.539  0.00  0.00    +0.011 A 
ATOM     13  C   UNL     1      -8.694   4.221  -2.078  0.00  0.00    +0.020 A 
ATOM     14  C   UNL     1      -8.124   5.237  -2.827  0.00  0.00    +0.041 A 
ATOM     15  C   UNL     1      -7.522   4.956  -4.042  0.00  0.00    +0.020 A 
ATOM     16  C   UNL     1      -7.482   3.660  -4.512  0.00  0.00    +0.011 A 
ATOM     17 CL   UNL     1      -8.164   6.870  -2.239  0.00  0.00    -0.084 Cl
ENDBRANCH  10  11
BRANCH   1  18
ATOM     18  S   UNL     1      -7.175   0.136  -1.842  0.00  0.00    -0.121 S 
BRANCH  18  19
ATOM     19  C   UNL     1      -5.365   0.229  -1.916  0.00  0.00    +0.093 C 
BRANCH  19  20
ATOM     20  C   UNL     1      -4.790   0.110  -0.503  0.00  0.00    +0.115 C 
BRANCH  20  23
ATOM     21  C   UNL     1      -2.603   0.101   0.570  0.00  0.00    +0.254 C 
ATOM     22  O   UNL     1      -3.160  -0.036   1.639  0.00  0.00    -0.272 OA
ATOM     23  N   UNL     1      -3.329   0.185  -0.562  0.00  0.00    -0.311 N 
ATOM     24  H   UNL     1      -2.883   0.295  -1.417  0.00  0.00    +0.149 HD
BRANCH  21  26
ATOM     25  C   UNL     1      -0.679   1.566   0.018  0.00  0.00    +0.062 C 
ATOM     26  C   UNL     1      -1.099   0.179   0.509  0.00  0.00    +0.255 C 
BRANCH  26  27
ATOM     27  O   UNL     1      -0.557  -0.049   1.812  0.00  0.00    -0.480 OA
BRANCH  27  28
ATOM     28  C   UNL     1       0.713  -0.528   1.876  0.00  0.00    +0.122 A 
ATOM     29  C   UNL     1       1.262  -0.879   3.101  0.00  0.00    +0.045 A 
ATOM     30  C   UNL     1       2.554  -1.365   3.164  0.00  0.00    +0.004 A 
ATOM     31  C   UNL     1       3.299  -1.503   2.007  0.00  0.00    +0.000 A 
ATOM     32  C   UNL     1       2.754  -1.153   0.785  0.00  0.00    +0.004 A 
ATOM     33  C   UNL     1       1.461  -0.672   0.717  0.00  0.00    +0.045 A 
ENDBRANCH  27  28
ENDBRANCH  26  27
ENDBRANCH  21  26
ENDBRANCH  20  23
ENDBRANCH  19  20
ENDBRANCH  18  19
ENDBRANCH   1  18
TORSDOF 8
