REMARK  Name = ZINC08800266
REMARK  10 active torsions:
REMARK  status: ('A' for Active; 'I' for Inactive)
REMARK    1  A    between atoms: C_1  and  C_2
REMARK    2  A    between atoms: C_2  and  C_3
REMARK    3  A    between atoms: N_5  and  C_6
REMARK    4  A    between atoms: C_9  and  S_12
REMARK    5  A    between atoms: S_12  and  N_15
REMARK    6  A    between atoms: N_15  and  C_16
REMARK    7  A    between atoms: C_16  and  C_17
REMARK    8  A    between atoms: C_17  and  C_19
REMARK    9  A    between atoms: C_17  and  N_70
REMARK   10  A    between atoms: N_28  and  C_29
REMARK                            x       y       z     vdW  Elec       q    Type
REMARK                         _______ _______ _______ _____ _____    ______ ____
ROOT
ATOM      1  C   UNL     1      -1.154   0.878  -1.256  0.00  0.00    -0.022 C 
ENDROOT
BRANCH   1   2
ATOM      2  C   UNL     1      -0.171   0.941  -2.397  0.00  0.00    -0.059 A 
ATOM      3  C   UNL     1       0.830   1.895  -2.397  0.00  0.00    +0.004 A 
ATOM      4  C   UNL     1       1.730   1.948  -3.439  0.00  0.00    +0.023 A 
ATOM      5  C   UNL     1       1.631   1.052  -4.505  0.00  0.00    +0.033 A 
ATOM      6  C   UNL     1       0.627   0.100  -4.501  0.00  0.00    -0.026 A 
ATOM      7  C   UNL     1      -0.271   0.049  -3.446  0.00  0.00    +0.007 A 
ATOM      8  C   UNL     1       0.472  -0.904  -5.615  0.00  0.00    +0.038 C 
ATOM      9  C   UNL     1       1.284  -0.453  -6.831  0.00  0.00    +0.024 C 
ATOM     10  C   UNL     1       2.681  -0.049  -6.342  0.00  0.00    +0.105 C 
ATOM     11  N   UNL     1       2.562   1.167  -5.536  0.00  0.00    -0.333 N 
ATOM     12  C   UNL     1       3.872   1.586  -5.019  0.00  0.00    +0.129 C 
ENDBRANCH   1   2
BRANCH   1  18
ATOM     13  C   UNL     1      -2.255   2.572  -2.589  0.00  0.00    -0.078 C 
ATOM     14  C   UNL     1      -3.204   3.771  -2.523  0.00  0.00    -0.019 C 
ATOM     15  C   UNL     1      -2.544   4.895  -1.719  0.00  0.00    -0.004 C 
ATOM     16  C   UNL     1      -2.194   4.374  -0.322  0.00  0.00    -0.019 C 
ATOM     17  C   UNL     1      -1.274   3.158  -0.452  0.00  0.00    -0.078 C 
ATOM     18  N   UNL     1      -1.976   2.104  -1.214  0.00  0.00    +0.385 N 
ATOM     19  H   UNL     1      -2.866   1.893  -0.748  0.00  0.00    -0.081 HD
ENDBRANCH   1  18
BRANCH   1  20
ATOM     20  C   UNL     1      -0.394   0.732   0.064  0.00  0.00    +0.095 C 
BRANCH  20  21
ATOM     21  N   UNL     1      -1.334   0.840   1.183  0.00  0.00    -0.191 NA
ATOM     22  H   UNL     1      -2.218   1.213   1.039  0.00  0.00    +0.148 HD
BRANCH  21  23
ATOM     23  S   UNL     1      -0.887   0.328   2.692  0.00  0.00    +0.058 S 
ATOM     24  O   UNL     1      -1.988   0.587   3.552  0.00  0.00    -0.153 OA
ATOM     25  O   UNL     1      -0.334  -0.972   2.533  0.00  0.00    -0.153 OA
BRANCH  23  29
ATOM     26  C   UNL     1       2.491   3.010   4.073  0.00  0.00    +0.033 A 
ATOM     27  C   UNL     1       1.174   3.350   4.352  0.00  0.00    +0.025 A 
ATOM     28  C   UNL     1       0.146   2.530   3.930  0.00  0.00    +0.030 A 
ATOM     29  C   UNL     1       0.427   1.371   3.229  0.00  0.00    +0.105 A 
ATOM     30  C   UNL     1       1.738   1.027   2.954  0.00  0.00    +0.030 A 
ATOM     31  C   UNL     1       2.770   1.846   3.369  0.00  0.00    +0.025 A 
BRANCH  26  34
ATOM     32  C   UNL     1       3.419   4.530   5.651  0.00  0.00    +0.217 C 
ATOM     33  O   UNL     1       2.459   4.353   6.370  0.00  0.00    -0.275 OA
ATOM     34  N   UNL     1       3.534   3.839   4.499  0.00  0.00    -0.286 N 
ATOM     35  H   UNL     1       4.340   3.917   3.965  0.00  0.00    +0.155 HD
BRANCH  32  37
ATOM     36  C   UNL     1       4.113   6.162   7.383  0.00  0.00    +0.013 C 
ATOM     37  C   UNL     1       4.484   5.521   6.045  0.00  0.00    +0.093 C 
ENDBRANCH  32  37
ENDBRANCH  26  34
ENDBRANCH  23  29
ENDBRANCH  21  23
ENDBRANCH  20  21
ENDBRANCH   1  20
TORSDOF 8
