REMARK  Name = ZINC08845345
REMARK  5 active torsions:
REMARK  status: ('A' for Active; 'I' for Inactive)
REMARK    1  A    between atoms: C_4  and  O_32
REMARK    2  A    between atoms: C_5  and  C_7
REMARK    3  A    between atoms: N_15  and  C_25
REMARK    4  A    between atoms: C_16  and  C_18
REMARK    5  A    between atoms: C_25  and  C_26
REMARK                            x       y       z     vdW  Elec       q    Type
REMARK                         _______ _______ _______ _____ _____    ______ ____
ROOT
ATOM      1  C   UNL     1       1.337  -2.429   0.141  0.00  0.00    +0.102 A 
ATOM      2  C   UNL     1       0.145  -3.163   0.153  0.00  0.00    +0.035 A 
ATOM      3  C   UNL     1       0.520  -4.490   0.075  0.00  0.00    +0.126 A 
ATOM      4  N   UNL     1       1.885  -4.498   0.020  0.00  0.00    -0.272 N 
ATOM      5  H   UNL     1       2.436  -5.294  -0.040  0.00  0.00    +0.189 HD
ATOM      6  N   UNL     1       2.330  -3.292   0.055  0.00  0.00    -0.173 NA
ATOM      7  C   UNL     1      -0.692  -5.318   0.083  0.00  0.00    +0.266 C 
ATOM      8  O   UNL     1      -0.703  -6.533   0.026  0.00  0.00    -0.268 OA
ATOM      9  N   UNL     1      -1.788  -4.543   0.164  0.00  0.00    -0.281 N 
ATOM     10  C   UNL     1      -1.357  -3.139   0.213  0.00  0.00    +0.142 C 
ENDROOT
BRANCH  10  11
ATOM     11  C   UNL     1      -1.815  -2.502   1.500  0.00  0.00    -0.022 A 
ATOM     12  C   UNL     1      -1.591  -3.141   2.705  0.00  0.00    +0.007 A 
ATOM     13  C   UNL     1      -2.010  -2.557   3.886  0.00  0.00    +0.015 A 
ATOM     14  C   UNL     1      -2.654  -1.332   3.861  0.00  0.00    +0.018 A 
ATOM     15  C   UNL     1      -2.877  -0.693   2.655  0.00  0.00    +0.015 A 
ATOM     16  C   UNL     1      -2.453  -1.276   1.475  0.00  0.00    +0.007 A 
ATOM     17 BR   UNL     1      -3.228  -0.533   5.475  0.00  0.00    -0.050 Br
ENDBRANCH  10  11
BRANCH   1  22
ATOM     18  C   UNL     1       0.772   1.226  -0.531  0.00  0.00    +0.001 A 
ATOM     19  C   UNL     1       1.689   1.808   0.326  0.00  0.00    +0.004 A 
ATOM     20  C   UNL     1       2.494   1.018   1.125  0.00  0.00    +0.046 A 
ATOM     21  C   UNL     1       2.386  -0.362   1.071  0.00  0.00    +0.126 A 
ATOM     22  C   UNL     1       1.460  -0.952   0.206  0.00  0.00    +0.044 A 
ATOM     23  C   UNL     1       0.653  -0.147  -0.595  0.00  0.00    +0.014 A 
BRANCH  21  24
ATOM     24  O   UNL     1       3.177  -1.139   1.855  0.00  0.00    -0.506 OA
ATOM     25  H   UNL     1       2.796  -1.341   2.720  0.00  0.00    +0.292 HD
ENDBRANCH  21  24
ENDBRANCH   1  22
BRANCH   9  26
ATOM     26  C   UNL     1      -3.174  -5.017   0.196  0.00  0.00    +0.145 C 
BRANCH  26  27
ATOM     27  C   UNL     1      -3.593  -5.246   1.626  0.00  0.00    -0.012 A 
ATOM     28  C   UNL     1      -3.398  -6.481   2.225  0.00  0.00    +0.008 A 
ATOM     29  C   UNL     1      -3.799  -6.647   3.542  0.00  0.00    +0.020 A 
ATOM     30  C   UNL     1      -4.375  -5.582   4.209  0.00  0.00    +0.111 A 
ATOM     31  N   UNL     1      -4.546  -4.422   3.607  0.00  0.00    -0.263 NA
ATOM     32  C   UNL     1      -4.171  -4.226   2.358  0.00  0.00    +0.115 A 
ENDBRANCH  26  27
ENDBRANCH   9  26
TORSDOF 5
