REMARK  Name = ZINC22585315
REMARK  9 active torsions:
REMARK  status: ('A' for Active; 'I' for Inactive)
REMARK    1  A    between atoms: C_1  and  C_2
REMARK    2  A    between atoms: N_10  and  C_13
REMARK    3  A    between atoms: C_13  and  C_15
REMARK    4  A    between atoms: C_13  and  C_16
REMARK    5  A    between atoms: N_18  and  C_19
REMARK    6  A    between atoms: C_22  and  S_25
REMARK    7  A    between atoms: S_25  and  N_28
REMARK    8  A    between atoms: C_29  and  C_37
REMARK    9  A    between atoms: C_34  and  C_36
REMARK                            x       y       z     vdW  Elec       q    Type
REMARK                         _______ _______ _______ _____ _____    ______ ____
ROOT
ATOM      1  C   UNL     1       4.604   3.964  -0.585  0.00  0.00    +0.238 C 
ATOM      2  O   UNL     1       3.777   4.479  -1.307  0.00  0.00    -0.273 OA
ATOM      3  N   UNL     1       4.269   2.901   0.172  0.00  0.00    -0.284 N 
ATOM      4  H   UNL     1       4.995   2.483   0.885  0.00  0.00    +0.155 HD
ENDROOT
BRANCH   3   5
ATOM      5  C   UNL     1       2.998   2.328   0.051  0.00  0.00    +0.034 A 
ATOM      6  C   UNL     1       2.838   0.955   0.184  0.00  0.00    +0.025 A 
ATOM      7  C   UNL     1       1.582   0.393   0.064  0.00  0.00    +0.030 A 
ATOM      8  C   UNL     1       0.486   1.195  -0.193  0.00  0.00    +0.106 A 
ATOM      9  C   UNL     1       0.641   2.563  -0.321  0.00  0.00    +0.030 A 
ATOM     10  C   UNL     1       1.894   3.131  -0.203  0.00  0.00    +0.025 A 
BRANCH   8  11
ATOM     11  S   UNL     1      -1.114   0.473  -0.352  0.00  0.00    +0.061 S 
ATOM     12  O   UNL     1      -1.846   1.301  -1.245  0.00  0.00    -0.153 OA
ATOM     13  O   UNL     1      -0.912  -0.913  -0.591  0.00  0.00    -0.153 OA
BRANCH  11  14
ATOM     14  N   UNL     1      -1.855   0.596   1.123  0.00  0.00    -0.171 NA
ATOM     15  C   UNL     1      -2.706   1.751   1.440  0.00  0.00    +0.077 C 
ATOM     16  C   UNL     1      -4.076   1.236   1.908  0.00  0.00    +0.020 C 
ATOM     17  C   UNL     1      -3.877   0.264   3.074  0.00  0.00    +0.003 C 
ATOM     18  C   UNL     1      -3.046  -0.933   2.606  0.00  0.00    +0.020 C 
ATOM     19  C   UNL     1      -1.670  -0.445   2.143  0.00  0.00    +0.077 C 
ATOM     20  C   UNL     1      -0.885  -1.615   1.546  0.00  0.00    +0.026 C 
ATOM     21  C   UNL     1      -2.882   2.616   0.190  0.00  0.00    +0.026 C 
ENDBRANCH  11  14
ENDBRANCH   8  11
ENDBRANCH   3   5
BRANCH   1  22
ATOM     22  C   UNL     1       6.006   4.514  -0.534  0.00  0.00    +0.168 C 
ATOM     23  C   UNL     1       6.995   3.428  -0.963  0.00  0.00    +0.038 C 
BRANCH  22  33
ATOM     24  C   UNL     1       6.914  11.108  -3.973  0.00  0.00    +0.044 C 
ATOM     25  C   UNL     1       6.630   9.646  -3.741  0.00  0.00    -0.050 A 
ATOM     26  C   UNL     1       6.286   8.836  -4.807  0.00  0.00    +0.004 A 
ATOM     27  C   UNL     1       6.021   7.490  -4.609  0.00  0.00    +0.014 A 
ATOM     28  C   UNL     1       6.103   6.954  -3.334  0.00  0.00    +0.049 A 
ATOM     29  C   UNL     1       6.453   7.780  -2.247  0.00  0.00    +0.050 A 
ATOM     30  C   UNL     1       6.715   9.124  -2.460  0.00  0.00    +0.017 A 
ATOM     31  C   UNL     1       6.447   6.905  -1.056  0.00  0.00    +0.254 C 
ATOM     32  O   UNL     1       6.701   7.253   0.080  0.00  0.00    -0.270 OA
ATOM     33  N   UNL     1       6.115   5.660  -1.440  0.00  0.00    -0.222 N 
ATOM     34  C   UNL     1       5.901   5.604  -2.767  0.00  0.00    +0.254 C 
ATOM     35  O   UNL     1       5.592   4.610  -3.394  0.00  0.00    -0.270 OA
ENDBRANCH  22  33
ENDBRANCH   1  22
TORSDOF 5
