REMARK  Name = ZINC08974855
REMARK  5 active torsions:
REMARK  status: ('A' for Active; 'I' for Inactive)
REMARK    1  A    between atoms: C_1  and  C_2
REMARK    2  A    between atoms: C_2  and  C_4
REMARK    3  A    between atoms: C_6  and  C_29
REMARK    4  A    between atoms: C_29  and  C_31
REMARK    5  A    between atoms: C_35  and  N_37
REMARK                            x       y       z     vdW  Elec       q    Type
REMARK                         _______ _______ _______ _____ _____    ______ ____
ROOT
ATOM      1  C   UNL     1       2.252   4.245   0.406  0.00  0.00    +0.152 C 
ATOM      2  C   UNL     1       1.698   5.657   0.748  0.00  0.00    +0.109 C 
ATOM      3  C   UNL     1       0.224   5.413   1.131  0.00  0.00    +0.108 C 
ATOM      4  C   UNL     1      -0.708   6.171   0.249  0.00  0.00    -0.008 A 
ATOM      5  C   UNL     1      -0.919   6.141  -1.113  0.00  0.00    +0.006 A 
ATOM      6  C   UNL     1      -1.887   6.999  -1.623  0.00  0.00    +0.000 A 
ATOM      7  C   UNL     1      -2.605   7.843  -0.800  0.00  0.00    +0.002 A 
ATOM      8  C   UNL     1      -2.400   7.880   0.570  0.00  0.00    +0.023 A 
ATOM      9  C   UNL     1      -1.431   7.025   1.095  0.00  0.00    +0.038 A 
ATOM     10  N   UNL     1      -1.026   6.858   2.408  0.00  0.00    -0.284 N 
ATOM     11  C   UNL     1      -0.053   5.928   2.523  0.00  0.00    +0.231 C 
ATOM     12  O   UNL     1       0.493   5.574   3.546  0.00  0.00    -0.274 OA
ATOM     13  C   UNL     1       0.036   3.907   1.040  0.00  0.00    +0.117 C 
ATOM     14  N   UNL     1       1.051   3.486   0.035  0.00  0.00    -0.311 N 
ATOM     15  C   UNL     1       1.118   2.114   0.005  0.00  0.00    +0.038 A 
ATOM     16  C   UNL     1       2.303   1.405  -0.037  0.00  0.00    +0.024 A 
ATOM     17  C   UNL     1       2.279   0.022  -0.048  0.00  0.00    +0.002 A 
ATOM     18  C   UNL     1       1.075  -0.660  -0.018  0.00  0.00    +0.001 A 
ATOM     19  C   UNL     1      -0.120   0.032   0.020  0.00  0.00    +0.010 A 
ATOM     20  C   UNL     1      -0.112   1.420   0.029  0.00  0.00    -0.004 A 
ATOM     21  C   UNL     1      -1.369   2.205   0.059  0.00  0.00    +0.007 C 
ATOM     22  C   UNL     1      -1.309   3.451   0.564  0.00  0.00    -0.003 C 
ATOM     23  H   UNL     1      -1.397   7.350   3.157  0.00  0.00    +0.155 HD
ENDROOT
BRANCH   1  25
ATOM     24  C   UNL     1       4.316   4.040   1.990  0.00  0.00    +0.088 C 
ATOM     25  C   UNL     1       2.917   3.629   1.610  0.00  0.00    +0.151 C 
ATOM     26  O   UNL     1       2.329   2.808   2.271  0.00  0.00    -0.296 OA
ENDBRANCH   1  25
BRANCH   2  27
ATOM     27  C   UNL     1       1.788   6.562  -0.453  0.00  0.00    +0.170 C 
ATOM     28  O   UNL     1       1.829   6.088  -1.568  0.00  0.00    -0.292 OA
BRANCH  27  29
ATOM     29  C   UNL     1       1.828   8.023  -0.273  0.00  0.00    +0.020 A 
ATOM     30  C   UNL     1       1.782   8.574   1.012  0.00  0.00    +0.011 A 
ATOM     31  C   UNL     1       1.820   9.942   1.173  0.00  0.00    +0.003 A 
ATOM     32  C   UNL     1       1.904  10.771   0.067  0.00  0.00    +0.033 A 
ATOM     33  C   UNL     1       1.949  10.233  -1.207  0.00  0.00    +0.127 A 
ATOM     34  C   UNL     1       1.918   8.866  -1.385  0.00  0.00    +0.044 A 
BRANCH  33  35
ATOM     35  N   UNL     1       2.039  11.128  -2.383  0.00  0.00    +0.056 N 
ATOM     36  O   UNL     1       2.072  12.336  -2.228  0.00  0.00    -0.126 OA
ATOM     37  O   UNL     1       2.079  10.656  -3.505  0.00  0.00    -0.126 OA
ENDBRANCH  33  35
ENDBRANCH  27  29
ENDBRANCH   2  27
TORSDOF 4
