REMARK  Name = ZINC08316901
REMARK  4 active torsions:
REMARK  status: ('A' for Active; 'I' for Inactive)
REMARK    1  A    between atoms: C_6  and  C_7
REMARK    2  A    between atoms: N_9  and  N_10
REMARK    3  A    between atoms: C_11  and  C_13
REMARK    4  A    between atoms: C_14  and  C_15
REMARK                            x       y       z     vdW  Elec       q    Type
REMARK                         _______ _______ _______ _____ _____    ______ ____
ROOT
ATOM      1  N   UNL     1      -7.280  -0.193   0.043  0.00  0.00    -0.231 N 
ATOM      2  C   UNL     1      -6.106  -0.855   0.032  0.00  0.00    +0.253 C 
ATOM      3  O   UNL     1      -6.094  -2.072   0.024  0.00  0.00    -0.269 OA
ATOM      4  H   UNL     1      -7.290   0.777   0.050  0.00  0.00    +0.173 HD
ENDROOT
BRANCH   1   7
ATOM      5  C   UNL     1      -9.660  -0.244   0.057  0.00  0.00    +0.260 C 
ATOM      6  O   UNL     1      -9.672   0.972   0.065  0.00  0.00    -0.269 OA
ATOM      7  N   UNL     1      -8.486  -0.906   0.046  0.00  0.00    -0.230 N 
ATOM      8  H   UNL     1      -8.477  -1.876   0.039  0.00  0.00    +0.173 HD
BRANCH   5  14
ATOM      9  C   UNL     1     -10.922  -2.392   0.044  0.00  0.00    +0.014 A 
ATOM     10  C   UNL     1     -12.112  -3.088   0.051  0.00  0.00    +0.021 A 
ATOM     11  C   UNL     1     -13.317  -2.405   0.063  0.00  0.00    +0.041 A 
ATOM     12  C   UNL     1     -13.334  -1.020   0.073  0.00  0.00    +0.021 A 
ATOM     13  C   UNL     1     -12.150  -0.313   0.071  0.00  0.00    +0.014 A 
ATOM     14  C   UNL     1     -10.933  -0.996   0.059  0.00  0.00    +0.038 A 
ATOM     15 CL   UNL     1     -14.812  -3.288   0.066  0.00  0.00    -0.084 Cl
ENDBRANCH   5  14
ENDBRANCH   1   7
BRANCH   2  16
ATOM     16  C   UNL     1      -4.847  -0.111   0.030  0.00  0.00    +0.069 C 
ATOM     17  C   UNL     1      -3.671  -0.774   0.018  0.00  0.00    +0.013 C 
BRANCH  17  18
ATOM     18  C   UNL     1      -2.406  -0.027   0.016  0.00  0.00    -0.021 A 
ATOM     19  C   UNL     1      -2.417   1.373   0.026  0.00  0.00    +0.012 A 
ATOM     20  C   UNL     1      -1.229   2.069   0.019  0.00  0.00    +0.050 A 
ATOM     21  C   UNL     1      -0.017   1.389   0.010  0.00  0.00    +0.162 A 
ATOM     22  C   UNL     1       0.002  -0.004   0.002  0.00  0.00    +0.163 A 
ATOM     23  C   UNL     1      -1.186  -0.711   0.004  0.00  0.00    +0.057 A 
ATOM     24  O   UNL     1       1.181  -0.684  -0.006  0.00  0.00    -0.485 OA
ATOM     25  C   UNL     1       2.347   0.055  -0.386  0.00  0.00    +0.270 C 
ATOM     26  C   UNL     1       2.333   1.392   0.366  0.00  0.00    +0.270 C 
ATOM     27  O   UNL     1       1.143   2.099   0.002  0.00  0.00    -0.485 OA
ENDBRANCH  17  18
ENDBRANCH   2  16
TORSDOF 4
