REMARK  Name = ZINC33937173
REMARK  13 active torsions:
REMARK  status: ('A' for Active; 'I' for Inactive)
REMARK    1  A    between atoms: C_1  and  C_2
REMARK    2  A    between atoms: C_2  and  C_3
REMARK    3  A    between atoms: C_3  and  C_5
REMARK    4  A    between atoms: C_3  and  N_17
REMARK    5  A    between atoms: N_9  and  C_10
REMARK    6  A    between atoms: C_10  and  C_11
REMARK    7  A    between atoms: N_17  and  C_18
REMARK    8  A    between atoms: N_17  and  C_26
REMARK    9  A    between atoms: C_18  and  C_19
REMARK   10  A    between atoms: C_19  and  C_20
REMARK   11  A    between atoms: C_26  and  C_27
REMARK   12  A    between atoms: C_31  and  C_40
REMARK   13  A    between atoms: C_33  and  C_39
REMARK                            x       y       z     vdW  Elec       q    Type
REMARK                         _______ _______ _______ _____ _____    ______ ____
ROOT
ATOM      1  N   UNL     1       2.261  -0.193   1.282  0.00  0.00    +0.389 N 
ATOM      2  H   UNL     1       2.699  -0.404   0.398  0.00  0.00    -0.080 HD
ENDROOT
BRANCH   1   3
ATOM      3  C   UNL     1       0.842  -0.568   1.228  0.00  0.00    +0.003 C 
BRANCH   3   4
ATOM      4  C   UNL     1       0.177  -0.207   2.530  0.00  0.00    +0.138 A 
ATOM      5  N   UNL     1       0.647  -0.422   3.735  0.00  0.00    -0.115 NA
ATOM      6  N   UNL     1      -0.212   0.029   4.583  0.00  0.00    -0.023 NA
ATOM      7  N   UNL     1      -1.218   0.525   3.951  0.00  0.00    -0.044 NA
ATOM      8  N   UNL     1      -1.013   0.404   2.683  0.00  0.00    -0.228 N 
BRANCH   8   9
ATOM      9  C   UNL     1      -1.909   0.844   1.611  0.00  0.00    +0.178 C 
BRANCH   9  10
ATOM     10  C   UNL     1      -2.877  -0.287   1.259  0.00  0.00    +0.140 C 
ATOM     11  C   UNL     1      -3.893   0.189   0.189  0.00  0.00    +0.035 C 
ATOM     12  C   UNL     1      -4.292  -1.165  -0.461  0.00  0.00    +0.031 C 
ATOM     13  C   UNL     1      -2.975  -1.967  -0.381  0.00  0.00    +0.160 C 
ATOM     14  O   UNL     1      -2.169  -1.377   0.648  0.00  0.00    -0.375 OA
ENDBRANCH   9  10
ENDBRANCH   8   9
ENDBRANCH   3   4
BRANCH   3  16
ATOM     15  C   UNL     1       1.317  -2.429  -0.371  0.00  0.00    +0.002 C 
ATOM     16  C   UNL     1       0.722  -2.075   0.994  0.00  0.00    -0.011 C 
ENDBRANCH   3  16
ENDBRANCH   1   3
BRANCH   1  17
ATOM     17  C   UNL     1       2.377   1.246   1.555  0.00  0.00    -0.073 C 
BRANCH  17  18
ATOM     18  C   UNL     1       1.785   2.036   0.386  0.00  0.00    +0.016 C 
BRANCH  18  19
ATOM     19  C   UNL     1       2.017   3.509   0.606  0.00  0.00    -0.049 A 
ATOM     20  C   UNL     1       1.083   4.261   1.293  0.00  0.00    +0.003 A 
ATOM     21  C   UNL     1       1.296   5.612   1.495  0.00  0.00    +0.000 A 
ATOM     22  C   UNL     1       2.444   6.210   1.010  0.00  0.00    +0.000 A 
ATOM     23  C   UNL     1       3.379   5.458   0.324  0.00  0.00    +0.000 A 
ATOM     24  C   UNL     1       3.168   4.106   0.125  0.00  0.00    +0.003 A 
ENDBRANCH  18  19
ENDBRANCH  17  18
ENDBRANCH   1  17
BRANCH   1  25
ATOM     25  C   UNL     1       2.927  -0.949   2.351  0.00  0.00    -0.037 C 
BRANCH  25  26
ATOM     26  C   UNL     1       4.410  -0.682   2.307  0.00  0.00    +0.001 A 
ATOM     27  C   UNL     1       4.950   0.266   3.111  0.00  0.00    +0.017 A 
ATOM     28  C   UNL     1       6.394   0.500   3.044  0.00  0.00    -0.001 A 
ATOM     29  C   UNL     1       7.008   1.465   3.850  0.00  0.00    +0.013 A 
ATOM     30  C   UNL     1       8.358   1.659   3.764  0.00  0.00    -0.050 A 
ATOM     31  C   UNL     1       9.125   0.908   2.884  0.00  0.00    +0.008 A 
ATOM     32  C   UNL     1       8.540  -0.047   2.080  0.00  0.00    -0.026 A 
ATOM     33  C   UNL     1       7.168  -0.263   2.151  0.00  0.00    +0.052 A 
ATOM     34  N   UNL     1       6.557  -1.213   1.360  0.00  0.00    -0.322 N 
ATOM     35  H   UNL     1       7.093  -1.738   0.744  0.00  0.00    +0.169 HD
ATOM     36  C   UNL     1       5.232  -1.425   1.432  0.00  0.00    +0.251 A 
ATOM     37  O   UNL     1       4.726  -2.276   0.721  0.00  0.00    -0.268 OA
ATOM     38  C   UNL     1       9.385  -0.855   1.128  0.00  0.00    +0.046 C 
ATOM     39  C   UNL     1       9.020   2.698   4.632  0.00  0.00    +0.044 C 
ENDBRANCH  25  26
ENDBRANCH   1  25
TORSDOF 10
