REMARK  Name = ZINC06166502
REMARK  6 active torsions:
REMARK  status: ('A' for Active; 'I' for Inactive)
REMARK    1  A    between atoms: C_1  and  C_2
REMARK    2  A    between atoms: N_12  and  N_13
REMARK    3  A    between atoms: C_14  and  C_16
REMARK    4  A    between atoms: C_16  and  C_18
REMARK    5  A    between atoms: C_16  and  N_19
REMARK    6  A    between atoms: C_30  and  C_34
REMARK                            x       y       z     vdW  Elec       q    Type
REMARK                         _______ _______ _______ _____ _____    ______ ____
ROOT
ATOM      1  N   UNL     1       0.077  -4.029   4.412  0.00  0.00    -0.205 N 
ATOM      2  C   UNL     1       0.096  -5.296   4.872  0.00  0.00    +0.255 C 
ATOM      3  O   UNL     1       0.104  -6.224   4.091  0.00  0.00    -0.272 OA
ATOM      4  H   UNL     1       0.071  -3.287   5.037  0.00  0.00    +0.177 HD
ENDROOT
BRANCH   1  16
ATOM      5  C   UNL     1      -0.018   1.503   0.010  0.00  0.00    +0.045 C 
ATOM      6  C   UNL     1       0.002  -0.004   0.002  0.00  0.00    -0.029 A 
ATOM      7  C   UNL     1       0.006  -0.686  -1.198  0.00  0.00    +0.005 A 
ATOM      8  C   UNL     1       0.025  -2.070  -1.222  0.00  0.00    +0.001 A 
ATOM      9  C   UNL     1       0.040  -2.783  -0.040  0.00  0.00    +0.012 A 
ATOM     10  C   UNL     1       0.036  -2.105   1.174  0.00  0.00    +0.028 A 
ATOM     11  C   UNL     1       0.023  -0.704   1.203  0.00  0.00    +0.046 A 
ATOM     12  N   UNL     1       0.029  -0.272   2.525  0.00  0.00    -0.279 N 
ATOM     13  C   UNL     1       0.050  -1.307   3.381  0.00  0.00    +0.269 C 
ATOM     14  O   UNL     1       0.059  -1.232   4.595  0.00  0.00    -0.268 OA
ATOM     15  C   UNL     1       0.049  -2.553   2.586  0.00  0.00    +0.153 C 
ATOM     16  N   UNL     1       0.067  -3.784   3.033  0.00  0.00    -0.174 NA
ATOM     17  H   UNL     1       0.018   0.660   2.794  0.00  0.00    +0.155 HD
ENDBRANCH   1  16
BRANCH   2  18
ATOM     18  C   UNL     1       0.107  -5.559   6.356  0.00  0.00    +0.176 C 
ATOM     19  C   UNL     1       1.351  -4.922   6.978  0.00  0.00    +0.041 C 
BRANCH  18  20
ATOM     20  N   UNL     1       0.127  -7.005   6.595  0.00  0.00    -0.287 N 
ATOM     21  C   UNL     1       1.162  -7.743   6.120  0.00  0.00    +0.204 A 
ATOM     22  N   UNL     1       1.216  -9.034   6.312  0.00  0.00    -0.230 NA
ATOM     23  C   UNL     1       0.257  -9.666   6.982  0.00  0.00    +0.116 A 
ATOM     24  C   UNL     1      -0.853  -8.988   7.511  0.00  0.00    +0.076 A 
ATOM     25  C   UNL     1      -0.879  -7.572   7.287  0.00  0.00    +0.263 A 
ATOM     26  O   UNL     1      -1.799  -6.895   7.711  0.00  0.00    -0.267 OA
ATOM     27  C   UNL     1      -1.828  -9.813   8.222  0.00  0.00    -0.023 A 
ATOM     28  C   UNL     1      -1.570 -11.135   8.301  0.00  0.00    -0.004 A 
ATOM     29  S   UNL     1      -0.034 -11.355   7.444  0.00  0.00    -0.073 S 
ATOM     30  C   UNL     1      -2.405 -12.185   8.969  0.00  0.00    +0.046 C 
ATOM     31  C   UNL     1      -3.424 -11.486   9.880  0.00  0.00    -0.009 C 
ATOM     32  C   UNL     1      -4.091 -10.354   9.092  0.00  0.00    +0.008 C 
ATOM     33  C   UNL     1      -3.088  -9.226   8.853  0.00  0.00    +0.037 C 
ATOM     34  C   UNL     1      -4.483 -12.493  10.333  0.00  0.00    +0.008 C 
ENDBRANCH  18  20
ENDBRANCH   2  18
TORSDOF 3
