REMARK  Name = ZINC09124576
REMARK  10 active torsions:
REMARK  status: ('A' for Active; 'I' for Inactive)
REMARK    1  A    between atoms: C_1  and  C_2
REMARK    2  A    between atoms: C_4  and  O_32
REMARK    3  A    between atoms: C_5  and  C_9
REMARK    4  A    between atoms: N_17  and  C_29
REMARK    5  A    between atoms: C_18  and  C_20
REMARK    6  A    between atoms: C_23  and  C_26
REMARK    7  A    between atoms: C_26  and  C_27
REMARK    8  A    between atoms: C_26  and  C_28
REMARK    9  A    between atoms: C_29  and  C_30
REMARK   10  A    between atoms: C_30  and  O_31
REMARK                            x       y       z     vdW  Elec       q    Type
REMARK                         _______ _______ _______ _____ _____    ______ ____
ROOT
ATOM      1  C   UNL     1      -0.009  -4.268  -0.094  0.00  0.00    +0.075 A 
ATOM      2  C   UNL     1       1.073  -5.033  -0.392  0.00  0.00    +0.035 A 
ATOM      3  C   UNL     1       0.585  -6.349  -0.555  0.00  0.00    +0.153 A 
ATOM      4  N   UNL     1      -0.717  -6.304  -0.353  0.00  0.00    -0.168 NA
ATOM      5  N   UNL     1      -1.088  -5.104  -0.077  0.00  0.00    -0.276 N 
ATOM      6  H   UNL     1      -2.000  -4.833   0.113  0.00  0.00    +0.189 HD
ATOM      7  C   UNL     1       1.729  -7.219  -0.882  0.00  0.00    +0.268 C 
ATOM      8  O   UNL     1       1.655  -8.416  -1.085  0.00  0.00    -0.268 OA
ATOM      9  N   UNL     1       2.866  -6.504  -0.923  0.00  0.00    -0.283 N 
ATOM     10  C   UNL     1       2.557  -5.100  -0.626  0.00  0.00    +0.141 C 
ENDROOT
BRANCH   1  15
ATOM     11  C   UNL     1      -0.034   1.402   0.921  0.00  0.00    +0.045 C 
ATOM     12  C   UNL     1      -0.026  -0.082   0.658  0.00  0.00    -0.029 A 
ATOM     13  C   UNL     1       0.612  -0.934   1.540  0.00  0.00    +0.050 A 
ATOM     14  C   UNL     1       0.623  -2.298   1.303  0.00  0.00    +0.126 A 
ATOM     15  C   UNL     1      -0.015  -2.812   0.168  0.00  0.00    +0.043 A 
ATOM     16  C   UNL     1      -0.657  -1.944  -0.715  0.00  0.00    +0.034 A 
ATOM     17  C   UNL     1      -0.664  -0.586  -0.463  0.00  0.00    +0.045 A 
ATOM     18 CL   UNL     1      -1.469   0.493  -1.559  0.00  0.00    -0.083 Cl
BRANCH  14  19
ATOM     19  O   UNL     1       1.251  -3.135   2.169  0.00  0.00    -0.506 OA
ATOM     20  H   UNL     1       0.707  -3.403   2.922  0.00  0.00    +0.292 HD
ENDBRANCH  14  19
ENDBRANCH   1  15
BRANCH  10  21
ATOM     21  C   UNL     1       2.937  -4.228  -1.795  0.00  0.00    -0.022 A 
ATOM     22  C   UNL     1       2.384  -4.462  -3.040  0.00  0.00    +0.006 A 
ATOM     23  C   UNL     1       2.732  -3.662  -4.112  0.00  0.00    +0.004 A 
ATOM     24  C   UNL     1       3.632  -2.628  -3.940  0.00  0.00    -0.045 A 
ATOM     25  C   UNL     1       4.185  -2.393  -2.694  0.00  0.00    +0.004 A 
ATOM     26  C   UNL     1       3.834  -3.191  -1.621  0.00  0.00    +0.006 A 
BRANCH  24  27
ATOM     27  C   UNL     1       4.013  -1.756  -5.109  0.00  0.00    +0.013 C 
ATOM     28  C   UNL     1       3.638  -0.304  -4.806  0.00  0.00    +0.012 C 
ATOM     29  C   UNL     1       5.521  -1.854  -5.349  0.00  0.00    +0.012 C 
ENDBRANCH  24  27
ENDBRANCH  10  21
BRANCH   9  30
ATOM     30  C   UNL     1       4.197  -7.038  -1.218  0.00  0.00    +0.137 C 
BRANCH  30  31
ATOM     31  C   UNL     1       4.382  -7.142  -2.733  0.00  0.00    +0.175 C 
BRANCH  31  32
ATOM     32  O   UNL     1       4.474  -5.830  -3.292  0.00  0.00    -0.393 OA
ATOM     33  H   UNL     1       4.592  -5.819  -4.252  0.00  0.00    +0.209 HD
ENDBRANCH  31  32
ENDBRANCH  30  31
ENDBRANCH   9  30
TORSDOF 7
