REMARK  Name = ZINC14478148
REMARK  7 active torsions:
REMARK  status: ('A' for Active; 'I' for Inactive)
REMARK    1  A    between atoms: C_1  and  C_2
REMARK    2  A    between atoms: C_6  and  C_37
REMARK    3  A    between atoms: C_7  and  N_8
REMARK    4  A    between atoms: N_8  and  S_9
REMARK    5  A    between atoms: S_9  and  C_12
REMARK    6  A    between atoms: C_25  and  C_28
REMARK    7  A    between atoms: C_33  and  N_34
REMARK                            x       y       z     vdW  Elec       q    Type
REMARK                         _______ _______ _______ _____ _____    ______ ____
ROOT
ATOM      1  C   UNL     1       1.049   2.511   1.734  0.00  0.00    +0.109 A 
ATOM      2  C   UNL     1       1.553   1.913   2.875  0.00  0.00    +0.030 A 
ATOM      3  C   UNL     1       1.478   2.574   4.084  0.00  0.00    +0.025 A 
ATOM      4  C   UNL     1       0.898   3.834   4.153  0.00  0.00    +0.031 A 
ATOM      5  C   UNL     1       0.392   4.439   3.012  0.00  0.00    -0.018 A 
ATOM      6  C   UNL     1       0.478   3.766   1.801  0.00  0.00    +0.034 A 
ATOM      7  C   UNL     1      -0.235   5.796   3.037  0.00  0.00    +0.049 C 
ATOM      8  C   UNL     1      -1.739   5.711   2.923  0.00  0.00    -0.023 C 
ATOM      9  C   UNL     1      -2.303   6.637   3.659  0.00  0.00    -0.030 C 
ATOM     10  C   UNL     1      -1.249   7.471   4.362  0.00  0.00    +0.033 C 
ATOM     11  C   UNL     1       0.002   6.545   4.362  0.00  0.00    +0.029 C 
ATOM     12  C   UNL     1      -0.146   5.579   5.541  0.00  0.00    +0.107 C 
ATOM     13  N   UNL     1       0.824   4.489   5.387  0.00  0.00    -0.336 N 
ATOM     14  H   UNL     1       1.400   4.229   6.123  0.00  0.00    +0.147 HD
ENDROOT
BRANCH  12  15
ATOM     15  C   UNL     1       0.120   6.311   6.831  0.00  0.00    +0.003 A 
ATOM     16  C   UNL     1       0.739   7.547   6.809  0.00  0.00    +0.008 A 
ATOM     17  C   UNL     1       0.978   8.222   7.992  0.00  0.00    +0.000 A 
ATOM     18  C   UNL     1       0.607   7.656   9.197  0.00  0.00    +0.002 A 
ATOM     19  C   UNL     1      -0.008   6.418   9.220  0.00  0.00    +0.033 A 
ATOM     20  C   UNL     1      -0.252   5.746   8.036  0.00  0.00    +0.131 A 
BRANCH  20  21
ATOM     21  N   UNL     1      -0.909   4.420   8.060  0.00  0.00    +0.057 N 
ATOM     22  O   UNL     1      -1.331   3.968   9.110  0.00  0.00    -0.126 OA
ATOM     23  O   UNL     1      -1.028   3.781   7.030  0.00  0.00    -0.126 OA
ENDBRANCH  20  21
ENDBRANCH  12  15
BRANCH   1  24
ATOM     24  S   UNL     1       1.142   1.671   0.189  0.00  0.00    +0.072 S 
ATOM     25  O   UNL     1       2.140   0.670   0.330  0.00  0.00    -0.150 OA
ATOM     26  O   UNL     1       1.206   2.674  -0.816  0.00  0.00    -0.150 OA
BRANCH  24  27
ATOM     27  N   UNL     1      -0.296   0.878  -0.025  0.00  0.00    -0.216 N 
ATOM     28  H   UNL     1      -0.324  -0.091  -0.003  0.00  0.00    +0.174 HD
BRANCH  27  35
ATOM     29  C   UNL     1      -2.160   1.094   2.113  0.00  0.00    +0.046 C 
ATOM     30  C   UNL     1      -2.406   1.736   0.772  0.00  0.00    -0.028 A 
ATOM     31  C   UNL     1      -3.562   2.460   0.554  0.00  0.00    +0.005 A 
ATOM     32  C   UNL     1      -3.792   3.045  -0.678  0.00  0.00    +0.001 A 
ATOM     33  C   UNL     1      -2.862   2.912  -1.694  0.00  0.00    +0.005 A 
ATOM     34  C   UNL     1      -1.702   2.194  -1.480  0.00  0.00    -0.028 A 
ATOM     35  C   UNL     1      -1.468   1.605  -0.244  0.00  0.00    +0.054 A 
ATOM     36  C   UNL     1      -0.690   2.050  -2.588  0.00  0.00    +0.046 C 
ENDBRANCH  27  35
ENDBRANCH  24  27
ENDBRANCH   1  24
TORSDOF 5
