REMARK  Name = ZINC37443403
REMARK  5 active torsions:
REMARK  status: ('A' for Active; 'I' for Inactive)
REMARK    1  A    between atoms: C_1  and  C_2
REMARK    2  A    between atoms: C_8  and  N_10
REMARK    3  A    between atoms: C_11  and  C_13
REMARK    4  A    between atoms: C_13  and  C_32
REMARK    5  A    between atoms: N_25  and  C_26
REMARK                            x       y       z     vdW  Elec       q    Type
REMARK                         _______ _______ _______ _____ _____    ______ ____
ROOT
ATOM      1  C   UNL     1       3.998   0.549   2.365  0.00  0.00    +0.129 C 
ATOM      2  C   UNL     1       3.838   2.056   2.569  0.00  0.00    +0.157 C 
ATOM      3  N   UNL     1       3.611   2.696   1.270  0.00  0.00    -0.331 N 
ATOM      4  C   UNL     1       2.922   3.830   0.961  0.00  0.00    +0.088 A 
ATOM      5  C   UNL     1       2.140   4.901   1.457  0.00  0.00    +0.067 A 
ATOM      6  C   UNL     1       1.811   5.675   0.409  0.00  0.00    +0.198 A 
ATOM      7  O   UNL     1       2.337   5.156  -0.713  0.00  0.00    -0.461 OA
ATOM      8  C   UNL     1       3.019   4.029  -0.417  0.00  0.00    +0.153 A 
ATOM      9  C   UNL     1       3.783   2.978  -0.945  0.00  0.00    +0.079 A 
ATOM     10  C   UNL     1       4.134   2.166   0.093  0.00  0.00    +0.109 A 
ATOM     11  C   UNL     1       4.908   0.918   0.110  0.00  0.00    +0.264 C 
ATOM     12  O   UNL     1       5.517   0.528  -0.869  0.00  0.00    -0.268 OA
ATOM     13  N   UNL     1       4.908   0.225   1.273  0.00  0.00    -0.278 N 
ATOM     14  C   UNL     1       4.535  -0.068   3.657  0.00  0.00    +0.043 C 
ENDROOT
BRANCH  13  15
ATOM     15  C   UNL     1       5.852  -0.883   1.440  0.00  0.00    +0.078 C 
ATOM     16  C   UNL     1       5.514  -1.994   0.444  0.00  0.00    +0.022 C 
ATOM     17  C   UNL     1       6.500  -3.152   0.618  0.00  0.00    +0.002 C 
ATOM     18  C   UNL     1       7.923  -2.653   0.362  0.00  0.00    +0.000 C 
ATOM     19  C   UNL     1       8.261  -1.541   1.358  0.00  0.00    +0.002 C 
ATOM     20  C   UNL     1       7.275  -0.384   1.184  0.00  0.00    +0.022 C 
ENDBRANCH  13  15
BRANCH   1  22
ATOM     21  N   UNL     1       2.202  -0.106   0.795  0.00  0.00    -0.310 N 
ATOM     22  C   UNL     1       2.647  -0.048   2.066  0.00  0.00    +0.238 C 
ATOM     23  O   UNL     1       1.960  -0.476   2.969  0.00  0.00    -0.273 OA
ATOM     24  H   UNL     1       2.752   0.236   0.072  0.00  0.00    +0.149 HD
BRANCH  21  31
ATOM     25  C   UNL     1       0.222   1.412  -0.676  0.00  0.00    +0.009 C 
ATOM     26  C   UNL     1       0.354  -0.107  -0.807  0.00  0.00    +0.006 C 
ATOM     27  C   UNL     1       1.321  -0.439  -1.944  0.00  0.00    +0.005 C 
ATOM     28  C   UNL     1       1.453  -1.958  -2.075  0.00  0.00    +0.000 C 
ATOM     29  C   UNL     1       1.988  -2.538  -0.765  0.00  0.00    +0.002 C 
ATOM     30  C   UNL     1       1.021  -2.206   0.373  0.00  0.00    +0.022 C 
ATOM     31  C   UNL     1       0.889  -0.687   0.504  0.00  0.00    +0.076 C 
ENDBRANCH  21  31
ENDBRANCH   1  22
TORSDOF 3
