REMARK  Name = ZINC38653286
REMARK  10 active torsions:
REMARK  status: ('A' for Active; 'I' for Inactive)
REMARK    1  A    between atoms: C_1  and  C_2
REMARK    2  A    between atoms: C_2  and  N_3
REMARK    3  A    between atoms: C_7  and  S_29
REMARK    4  A    between atoms: C_11  and  S_12
REMARK    5  A    between atoms: S_12  and  C_13
REMARK    6  A    between atoms: C_13  and  C_15
REMARK    7  A    between atoms: C_13  and  C_16
REMARK    8  A    between atoms: C_16  and  C_18
REMARK    9  A    between atoms: C_26  and  C_28
REMARK   10  A    between atoms: S_29  and  N_32
REMARK                            x       y       z     vdW  Elec       q    Type
REMARK                         _______ _______ _______ _____ _____    ______ ____
ROOT
ATOM      1  N   UNL     1       0.761   0.295  -1.087  0.00  0.00    -0.319 N 
ATOM      2  C   UNL     1       0.145   0.234  -2.327  0.00  0.00    +0.070 A 
ATOM      3  C   UNL     1      -1.136   0.511  -2.779  0.00  0.00    +0.030 A 
ATOM      4  C   UNL     1      -1.445   0.345  -4.113  0.00  0.00    +0.030 A 
ATOM      5  C   UNL     1      -0.481  -0.099  -5.007  0.00  0.00    +0.107 A 
ATOM      6  C   UNL     1       0.796  -0.380  -4.576  0.00  0.00    +0.058 A 
ATOM      7  C   UNL     1       1.125  -0.216  -3.228  0.00  0.00    +0.092 A 
ATOM      8  N   UNL     1       2.267  -0.404  -2.516  0.00  0.00    -0.222 NA
ATOM      9  C   UNL     1       2.058  -0.099  -1.259  0.00  0.00    +0.171 A 
ENDROOT
BRANCH   5  10
ATOM     10  S   UNL     1      -0.896  -0.306  -6.707  0.00  0.00    +0.056 S 
ATOM     11  O   UNL     1       0.024  -1.250  -7.237  0.00  0.00    -0.153 OA
ATOM     12  O   UNL     1      -2.302  -0.499  -6.762  0.00  0.00    -0.153 OA
BRANCH  10  13
ATOM     13  N   UNL     1      -0.586   1.134  -7.465  0.00  0.00    -0.204 NA
ATOM     14  H   UNL     1      -0.240   1.884  -6.957  0.00  0.00    +0.144 HD
ATOM     15  H   UNL     1      -0.750   1.226  -8.416  0.00  0.00    +0.144 HD
ENDBRANCH  10  13
ENDBRANCH   5  10
BRANCH   1  17
ATOM     16  C   UNL     1       0.303   2.222   0.347  0.00  0.00    +0.027 C 
ATOM     17  C   UNL     1       0.139   0.711   0.172  0.00  0.00    +0.121 C 
ENDBRANCH   1  17
BRANCH   9  18
ATOM     18  S   UNL     1       3.267  -0.190   0.020  0.00  0.00    -0.077 S 
BRANCH  18  19
ATOM     19  C   UNL     1       4.761  -0.770  -0.830  0.00  0.00    +0.122 C 
ATOM     20  C   UNL     1       4.530  -2.187  -1.356  0.00  0.00    +0.028 C 
BRANCH  19  21
ATOM     21  C   UNL     1       5.918  -0.775   0.137  0.00  0.00    +0.175 C 
ATOM     22  O   UNL     1       5.712  -0.874   1.329  0.00  0.00    -0.291 OA
BRANCH  21  23
ATOM     23  C   UNL     1       7.239  -0.664  -0.345  0.00  0.00    +0.027 C 
ATOM     24  C   UNL     1       7.651  -0.657  -1.666  0.00  0.00    +0.006 A 
ATOM     25  C   UNL     1       6.951  -0.749  -2.892  0.00  0.00    +0.010 A 
ATOM     26  C   UNL     1       7.624  -0.714  -4.064  0.00  0.00    +0.001 A 
ATOM     27  C   UNL     1       9.021  -0.587  -4.128  0.00  0.00    +0.002 A 
ATOM     28  C   UNL     1       9.781  -0.492  -3.017  0.00  0.00    +0.026 A 
ATOM     29  C   UNL     1       9.128  -0.521  -1.698  0.00  0.00    +0.043 A 
ATOM     30  N   UNL     1       9.606  -0.450  -0.488  0.00  0.00    -0.377 N 
ATOM     31  C   UNL     1       8.503  -0.523   0.475  0.00  0.00    +0.111 C 
ATOM     32  C   UNL     1       8.447   0.755   1.314  0.00  0.00    +0.035 C 
ATOM     33  H   UNL     1      10.544  -0.358  -0.261  0.00  0.00    +0.160 HD
ENDBRANCH  21  23
ENDBRANCH  19  21
ENDBRANCH  18  19
ENDBRANCH   9  18
TORSDOF 7
