REMARK  Name = ZINC12211982
REMARK  10 active torsions:
REMARK  status: ('A' for Active; 'I' for Inactive)
REMARK    1  A    between atoms: C_1  and  C_2
REMARK    2  A    between atoms: C_2  and  C_3
REMARK    3  A    between atoms: C_3  and  C_14
REMARK    4  A    between atoms: N_6  and  C_10
REMARK    5  A    between atoms: C_10  and  C_11
REMARK    6  A    between atoms: C_11  and  C_13
REMARK    7  A    between atoms: C_19  and  C_20
REMARK    8  A    between atoms: C_19  and  N_69
REMARK    9  A    between atoms: C_22  and  C_25
REMARK   10  A    between atoms: C_25  and  N_71
REMARK                            x       y       z     vdW  Elec       q    Type
REMARK                         _______ _______ _______ _____ _____    ______ ____
ROOT
ATOM      1  C   UNL     1      -4.149  -0.403   3.666  0.00  0.00    +0.018 C 
ATOM      2  C   UNL     1      -4.943   0.669   2.915  0.00  0.00    -0.013 C 
ATOM      3  C   UNL     1      -4.481   0.712   1.456  0.00  0.00    -0.078 C 
ATOM      4  C   UNL     1      -2.258  -0.025   2.080  0.00  0.00    -0.078 C 
ATOM      5  C   UNL     1      -2.654  -0.090   3.557  0.00  0.00    -0.013 C 
ATOM      6  N   UNL     1      -3.040   1.042   1.420  0.00  0.00    +0.383 N 
ATOM      7  H   UNL     1      -2.887   1.925   1.921  0.00  0.00    -0.081 HD
ENDROOT
BRANCH   1   8
ATOM      8  C   UNL     1      -4.564  -0.409   5.138  0.00  0.00    +0.115 C 
ATOM      9  C   UNL     1      -4.422   0.976   5.738  0.00  0.00    +0.247 C 
ATOM     10  O   UNL     1      -3.405   1.626   5.847  0.00  0.00    -0.273 OA
ATOM     11  N   UNL     1      -5.662   1.333   6.126  0.00  0.00    -0.220 N 
ATOM     12  C   UNL     1      -6.559   0.377   5.857  0.00  0.00    +0.310 C 
ATOM     13  O   UNL     1      -7.743   0.470   6.114  0.00  0.00    -0.252 OA
ATOM     14  N   UNL     1      -6.003  -0.698   5.270  0.00  0.00    -0.285 N 
ATOM     15  H   UNL     1      -6.460  -1.506   4.988  0.00  0.00    +0.151 HD
BRANCH   8  17
ATOM     16  C   UNL     1      -4.251  -1.501   7.364  0.00  0.00    +0.006 C 
ATOM     17  C   UNL     1      -3.734  -1.425   5.926  0.00  0.00    +0.032 C 
ENDBRANCH   8  17
BRANCH  11  18
ATOM     18  C   UNL     1      -5.989   2.611   6.764  0.00  0.00    +0.148 C 
BRANCH  18  19
ATOM     19  C   UNL     1      -6.333   3.627   5.705  0.00  0.00    -0.062 C 
ATOM     20  C   UNL     1      -7.584   3.830   5.375  0.00  0.00    +0.009 C 
ATOM     21  C   UNL     1      -5.238   4.410   5.027  0.00  0.00    +0.040 C 
ENDBRANCH  18  19
ENDBRANCH  11  18
ENDBRANCH   1   8
BRANCH   6  22
ATOM     22  C   UNL     1      -2.594   1.202   0.020  0.00  0.00    -0.036 C 
BRANCH  22  23
ATOM     23  C   UNL     1      -1.190   1.748   0.017  0.00  0.00    -0.027 A 
ATOM     24  C   UNL     1      -0.013   1.076   0.008  0.00  0.00    +0.011 A 
ATOM     25  C   UNL     1       1.169   1.793   0.001  0.00  0.00    -0.057 A 
ATOM     26  C   UNL     1       1.115   3.148   0.008  0.00  0.00    +0.047 A 
ATOM     27  S   UNL     1      -0.644   3.448   0.027  0.00  0.00    -0.103 S 
BRANCH  25  28
ATOM     28  C   UNL     1       2.497   1.081  -0.015  0.00  0.00    -0.042 C 
BRANCH  28  34
ATOM     29  C   UNL     1       2.005  -0.074  -2.085  0.00  0.00    -0.078 C 
ATOM     30  C   UNL     1       2.384  -0.172  -3.565  0.00  0.00    -0.019 C 
ATOM     31  C   UNL     1       3.829  -0.663  -3.685  0.00  0.00    -0.004 C 
ATOM     32  C   UNL     1       4.751   0.297  -2.928  0.00  0.00    -0.019 C 
ATOM     33  C   UNL     1       4.303   0.381  -1.467  0.00  0.00    -0.078 C 
ATOM     34  N   UNL     1       2.913   0.883  -1.419  0.00  0.00    +0.382 N 
ATOM     35  H   UNL     1       2.867   1.783  -1.911  0.00  0.00    -0.081 HD
ENDBRANCH  28  34
ENDBRANCH  25  28
ENDBRANCH  22  23
ENDBRANCH   6  22
TORSDOF 8
