REMARK  Name = ZINC06509870
REMARK  4 active torsions:
REMARK  status: ('A' for Active; 'I' for Inactive)
REMARK    1  A    between atoms: C_3  and  S_23
REMARK    2  A    between atoms: C_6  and  C_7
REMARK    3  A    between atoms: C_7  and  N_8
REMARK    4  A    between atoms: S_23  and  N_26
REMARK                            x       y       z     vdW  Elec       q    Type
REMARK                         _______ _______ _______ _____ _____    ______ ____
ROOT
ATOM      1  N   UNL     1       1.222  -2.667  -1.405  0.00  0.00    -0.324 N 
ATOM      2  C   UNL     1       1.238  -4.026  -1.664  0.00  0.00    +0.131 A 
ATOM      3  C   UNL     1       1.125  -4.506  -2.999  0.00  0.00    +0.051 A 
ATOM      4  C   UNL     1       0.987  -3.735  -4.239  0.00  0.00    -0.025 A 
ATOM      5  C   UNL     1       0.891  -4.441  -5.383  0.00  0.00    -0.004 A 
ATOM      6  S   UNL     1       0.986  -6.143  -4.891  0.00  0.00    -0.073 S 
ATOM      7  C   UNL     1       1.151  -5.906  -3.142  0.00  0.00    +0.114 A 
ATOM      8  N   UNL     1       1.276  -6.705  -2.099  0.00  0.00    -0.228 NA
ATOM      9  C   UNL     1       1.378  -6.201  -0.884  0.00  0.00    +0.224 A 
ATOM     10  N   UNL     1       1.364  -4.896  -0.676  0.00  0.00    -0.220 NA
ATOM     11  C   UNL     1       0.729  -3.915  -6.776  0.00  0.00    +0.043 C 
ATOM     12  C   UNL     1       1.768  -2.814  -7.027  0.00  0.00    +0.005 C 
ATOM     13  C   UNL     1       1.161  -1.478  -6.612  0.00  0.00    +0.001 C 
ATOM     14  C   UNL     1       0.213  -1.679  -5.431  0.00  0.00    +0.005 C 
ATOM     15  C   UNL     1       0.971  -2.209  -4.221  0.00  0.00    +0.037 C 
ATOM     16  H   UNL     1       1.229  -2.033  -2.139  0.00  0.00    +0.148 HD
ENDROOT
BRANCH   1  17
ATOM     17  C   UNL     1       1.194  -2.186  -0.021  0.00  0.00    +0.138 C 
BRANCH  17  23
ATOM     18  C   UNL     1      -0.022   0.002  -0.030  0.00  0.00    +0.007 A 
ATOM     19  C   UNL     1      -0.034   1.384  -0.023  0.00  0.00    +0.029 A 
ATOM     20  C   UNL     1       1.157   2.085   0.002  0.00  0.00    +0.105 A 
ATOM     21  C   UNL     1       2.360   1.404   0.018  0.00  0.00    +0.029 A 
ATOM     22  C   UNL     1       2.372   0.022   0.011  0.00  0.00    +0.007 A 
ATOM     23  C   UNL     1       1.181  -0.679  -0.013  0.00  0.00    -0.030 A 
BRANCH  20  24
ATOM     24  S   UNL     1       1.143   3.847   0.011  0.00  0.00    +0.056 S 
ATOM     25  O   UNL     1       2.394   4.267  -0.515  0.00  0.00    -0.153 OA
ATOM     26  O   UNL     1      -0.096   4.246  -0.559  0.00  0.00    -0.153 OA
BRANCH  24  27
ATOM     27  N   UNL     1       1.110   4.328   1.595  0.00  0.00    -0.204 NA
ATOM     28  H   UNL     1       1.104   3.666   2.304  0.00  0.00    +0.144 HD
ATOM     29  H   UNL     1       1.099   5.273   1.815  0.00  0.00    +0.144 HD
ENDBRANCH  24  27
ENDBRANCH  20  24
ENDBRANCH  17  23
ENDBRANCH   1  17
TORSDOF 4
