REMARK  Name = ZINC39531288
REMARK  9 active torsions:
REMARK  status: ('A' for Active; 'I' for Inactive)
REMARK    1  A    between atoms: C_4  and  C_7
REMARK    2  A    between atoms: C_7  and  C_8
REMARK    3  A    between atoms: C_11  and  C_14
REMARK    4  A    between atoms: C_14  and  C_16
REMARK    5  A    between atoms: C_14  and  N_28
REMARK    6  A    between atoms: C_16  and  N_17
REMARK    7  A    between atoms: N_17  and  S_18
REMARK    8  A    between atoms: S_18  and  O_21
REMARK    9  A    between atoms: O_21  and  C_22
REMARK                            x       y       z     vdW  Elec       q    Type
REMARK                         _______ _______ _______ _____ _____    ______ ____
ROOT
ATOM      1  C   UNL     1       5.309  -1.689   5.309  0.00  0.00    +0.102 C 
ENDROOT
BRANCH   1   2
ATOM      2  N   UNL     1       5.499  -3.142   5.414  0.00  0.00    -0.290 NA
ATOM      3  C   UNL     1       5.781  -3.537   6.801  0.00  0.00    +0.100 C 
ATOM      4  C   UNL     1       5.894  -5.062   6.880  0.00  0.00    +0.097 C 
ATOM      5  N   UNL     1       6.960  -5.519   5.978  0.00  0.00    -0.299 NA
ATOM      6  C   UNL     1       6.678  -5.123   4.591  0.00  0.00    +0.161 C 
ATOM      7  C   UNL     1       6.565  -3.599   4.511  0.00  0.00    +0.120 C 
ATOM      8 CL   UNL     1       8.016  -5.685   3.521  0.00  0.00    -0.104 Cl
ATOM      9  H   UNL     1       7.860  -5.174   6.277  0.00  0.00    +0.123 HD
ENDBRANCH   1   2
BRANCH   1  13
ATOM     10  C   UNL     1       4.298  -0.672   1.285  0.00  0.00    -0.043 A 
ATOM     11  C   UNL     1       5.158   0.135   2.007  0.00  0.00    +0.004 A 
ATOM     12  C   UNL     1       5.485  -0.194   3.309  0.00  0.00    +0.005 A 
ATOM     13  C   UNL     1       4.952  -1.330   3.890  0.00  0.00    -0.029 A 
ATOM     14  C   UNL     1       4.091  -2.136   3.168  0.00  0.00    +0.005 A 
ATOM     15  C   UNL     1       3.761  -1.805   1.868  0.00  0.00    +0.004 A 
BRANCH  10  16
ATOM     16  C   UNL     1       3.942  -0.314  -0.135  0.00  0.00    +0.070 C 
BRANCH  16  20
ATOM     17  C   UNL     1       0.482   2.191  -0.148  0.00  0.00    +0.000 A 
ATOM     18  C   UNL     1       1.743   2.754  -0.076  0.00  0.00    +0.000 A 
ATOM     19  C   UNL     1       2.862   1.944  -0.071  0.00  0.00    +0.004 A 
ATOM     20  C   UNL     1       2.721   0.570  -0.138  0.00  0.00    -0.043 A 
ATOM     21  C   UNL     1       1.461   0.007  -0.209  0.00  0.00    +0.004 A 
ATOM     22  C   UNL     1       0.341   0.818  -0.215  0.00  0.00    +0.000 A 
ENDBRANCH  16  20
ENDBRANCH  10  16
ENDBRANCH   1  13
BRANCH   1  23
ATOM     23  C   UNL     1       4.179  -1.254   6.245  0.00  0.00    +0.132 C 
BRANCH  23  24
ATOM     24  N   UNL     1       4.039   0.203   6.198  0.00  0.00    -0.159 NA
ATOM     25  H   UNL     1       4.753   0.747   5.829  0.00  0.00    +0.151 HD
BRANCH  24  26
ATOM     26  S   UNL     1       2.664   0.923   6.775  0.00  0.00    +0.192 S 
ATOM     27  O   UNL     1       2.841   2.324   6.617  0.00  0.00    -0.119 OA
ATOM     28  O   UNL     1       1.568   0.224   6.200  0.00  0.00    -0.119 OA
BRANCH  26  29
ATOM     29  O   UNL     1       2.612   0.657   8.273  0.00  0.00    -0.334 OA
BRANCH  29  30
ATOM     30  C   UNL     1       3.482   1.409   8.998  0.00  0.00    +0.158 A 
ATOM     31  C   UNL     1       4.766   0.943   9.242  0.00  0.00    +0.048 A 
ATOM     32  C   UNL     1       5.648   1.709   9.979  0.00  0.00    +0.004 A 
ATOM     33  C   UNL     1       5.253   2.938  10.474  0.00  0.00    +0.000 A 
ATOM     34  C   UNL     1       3.974   3.404  10.232  0.00  0.00    +0.004 A 
ATOM     35  C   UNL     1       3.089   2.644   9.491  0.00  0.00    +0.048 A 
ENDBRANCH  29  30
ENDBRANCH  26  29
ENDBRANCH  24  26
ENDBRANCH  23  24
ENDBRANCH   1  23
TORSDOF 9
