REMARK  Name = ZINC09111170
REMARK  3 active torsions:
REMARK  status: ('A' for Active; 'I' for Inactive)
REMARK    1  A    between atoms: C_1  and  C_2
REMARK    2  A    between atoms: C_8  and  N_10
REMARK    3  A    between atoms: N_16  and  C_17
REMARK                            x       y       z     vdW  Elec       q    Type
REMARK                         _______ _______ _______ _____ _____    ______ ____
ROOT
ATOM      1  N   UNL     1       0.032   0.064   2.264  0.00  0.00    -0.268 NA
ATOM      2  C   UNL     1      -0.083   1.526   2.136  0.00  0.00    +0.193 C 
ATOM      3  N   UNL     1      -0.823   2.045   3.297  0.00  0.00    -0.304 N 
ATOM      4  C   UNL     1      -0.416   1.615   4.545  0.00  0.00    +0.187 C 
ATOM      5  N   UNL     1      -0.081   0.279   4.643  0.00  0.00    -0.304 N 
ATOM      6  C   UNL     1       0.686  -0.303   3.530  0.00  0.00    +0.193 C 
ATOM      7  N   UNL     1      -0.351   2.431   5.580  0.00  0.00    -0.165 NA
ATOM      8  H   UNL     1      -1.564   2.661   3.191  0.00  0.00    +0.150 HD
ATOM      9  H   UNL     1      -0.340  -0.253   5.412  0.00  0.00    +0.150 HD
ENDROOT
BRANCH   7  10
ATOM     10  C   UNL     1       0.051   1.967   6.780  0.00  0.00    +0.327 A 
ATOM     11  N   UNL     1       0.407   0.726   7.029  0.00  0.00    -0.191 NA
ATOM     12  C   UNL     1       0.751   0.627   8.341  0.00  0.00    +0.111 A 
ATOM     13  C   UNL     1       1.196  -0.427   9.142  0.00  0.00    +0.031 A 
ATOM     14  C   UNL     1       1.468  -0.204  10.474  0.00  0.00    +0.002 A 
ATOM     15  C   UNL     1       1.302   1.058  11.022  0.00  0.00    +0.004 A 
ATOM     16  C   UNL     1       0.861   2.108  10.241  0.00  0.00    +0.048 A 
ATOM     17  C   UNL     1       0.584   1.903   8.900  0.00  0.00    +0.157 A 
ATOM     18  O   UNL     1       0.155   2.708   7.900  0.00  0.00    -0.421 OA
ENDBRANCH   7  10
BRANCH   1  25
ATOM     19  C   UNL     1      -0.675  -2.560   1.257  0.00  0.00    +0.009 C 
ATOM     20  C   UNL     1       0.762  -2.036   1.236  0.00  0.00    +0.003 C 
ATOM     21  C   UNL     1       1.506  -2.634   0.041  0.00  0.00    +0.005 C 
ATOM     22  C   UNL     1       0.798  -2.232  -1.254  0.00  0.00    +0.000 C 
ATOM     23  C   UNL     1       0.782  -0.707  -1.375  0.00  0.00    +0.002 C 
ATOM     24  C   UNL     1       0.038  -0.108  -0.179  0.00  0.00    +0.019 C 
ATOM     25  C   UNL     1       0.746  -0.510   1.116  0.00  0.00    +0.062 C 
ENDBRANCH   1  25
TORSDOF 2
