REMARK  Name = ZINC13942037
REMARK  12 active torsions:
REMARK  status: ('A' for Active; 'I' for Inactive)
REMARK    1  A    between atoms: C_1  and  C_2
REMARK    2  A    between atoms: C_2  and  O_3
REMARK    3  A    between atoms: O_3  and  C_4
REMARK    4  A    between atoms: C_6  and  C_14
REMARK    5  A    between atoms: C_9  and  O_10
REMARK    6  A    between atoms: O_10  and  C_11
REMARK    7  A    between atoms: C_11  and  C_12
REMARK    8  A    between atoms: C_14  and  N_47
REMARK    9  A    between atoms: C_15  and  C_16
REMARK   10  A    between atoms: C_15  and  N_47
REMARK   11  A    between atoms: C_16  and  N_17
REMARK   12  A    between atoms: C_18  and  C_20
REMARK                            x       y       z     vdW  Elec       q    Type
REMARK                         _______ _______ _______ _____ _____    ______ ____
ROOT
ATOM      1  N   UNL     1       0.704   0.596   7.232  0.00  0.00    +0.383 N 
ATOM      2  H   UNL     1      -0.255   0.239   7.152  0.00  0.00    -0.085 HD
ATOM      3  H   UNL     1       0.696   1.620   7.153  0.00  0.00    -0.085 HD
ENDROOT
BRANCH   1   4
ATOM      4  C   UNL     1       1.526   0.032   6.145  0.00  0.00    -0.047 C 
BRANCH   4   7
ATOM      5  C   UNL     1       0.807   1.987   2.993  0.00  0.00    +0.163 A 
ATOM      6  C   UNL     1       1.347   1.611   4.212  0.00  0.00    +0.051 A 
ATOM      7  C   UNL     1       0.937   0.438   4.818  0.00  0.00    -0.060 A 
ATOM      8  C   UNL     1      -0.012  -0.363   4.210  0.00  0.00    +0.021 A 
ATOM      9  C   UNL     1      -0.559   0.009   2.996  0.00  0.00    +0.063 A 
ATOM     10  C   UNL     1      -0.148   1.182   2.381  0.00  0.00    +0.176 A 
ATOM     11 BR   UNL     1      -1.863  -1.084   2.172  0.00  0.00    -0.046 Br
BRANCH   5  12
ATOM     12  O   UNL     1       1.209   3.141   2.396  0.00  0.00    -0.489 OA
BRANCH  12  14
ATOM     13  C   UNL     1       2.516   5.169   2.264  0.00  0.00    +0.048 C 
ATOM     14  C   UNL     1       2.192   3.918   3.083  0.00  0.00    +0.226 C 
ENDBRANCH  12  14
ENDBRANCH   5  12
BRANCH  10  15
ATOM     15  O   UNL     1      -0.682   1.547   1.184  0.00  0.00    -0.487 OA
BRANCH  15  16
ATOM     16  C   UNL     1      -0.013   1.086   0.008  0.00  0.00    +0.226 C 
ATOM     17  C   UNL     1      -0.753   1.593  -1.232  0.00  0.00    +0.048 C 
ENDBRANCH  15  16
ENDBRANCH  10  15
ENDBRANCH   4   7
ENDBRANCH   1   4
BRANCH   1  18
ATOM     18  C   UNL     1       1.258   0.214   8.544  0.00  0.00    -0.063 C 
BRANCH  18  19
ATOM     19  C   UNL     1       0.387   0.813   9.650  0.00  0.00    +0.085 C 
BRANCH  19  20
ATOM     20  N   UNL     1       0.930   0.437  10.958  0.00  0.00    -0.312 N 
ATOM     21  C   UNL     1       0.322   0.855  12.086  0.00  0.00    +0.269 C 
ATOM     22  O   UNL     1      -0.677   1.543  12.018  0.00  0.00    -0.268 OA
ATOM     23  H   UNL     1       1.728  -0.112  11.011  0.00  0.00    +0.149 HD
BRANCH  21  24
ATOM     24  C   UNL     1       0.872   0.475  13.408  0.00  0.00    +0.209 A 
ATOM     25  C   UNL     1       0.367   0.822  14.755  0.00  0.00    +0.192 A 
ATOM     26  N   UNL     1       1.230   0.226  15.546  0.00  0.00    -0.033 NA
ATOM     27  O   UNL     1       2.060  -0.345  14.878  0.00  0.00    -0.240 OA
ATOM     28  N   UNL     1       1.929  -0.260  13.679  0.00  0.00    -0.042 NA
ATOM     29  N   UNL     1      -0.742   1.584  15.098  0.00  0.00    -0.339 N 
ATOM     30  H   UNL     1      -1.299   1.968  14.403  0.00  0.00    +0.144 HD
ATOM     31  H   UNL     1      -0.958   1.732  16.032  0.00  0.00    +0.144 HD
ENDBRANCH  21  24
ENDBRANCH  19  20
ENDBRANCH  18  19
ENDBRANCH   1  18
TORSDOF 10
