REMARK  Name = ZINC09430683
REMARK  6 active torsions:
REMARK  status: ('A' for Active; 'I' for Inactive)
REMARK    1  A    between atoms: C_1  and  C_2
REMARK    2  A    between atoms: C_8  and  N_10
REMARK    3  A    between atoms: C_11  and  C_13
REMARK    4  A    between atoms: C_13  and  N_14
REMARK    5  A    between atoms: C_17  and  S_25
REMARK    6  A    between atoms: S_25  and  N_28
REMARK                            x       y       z     vdW  Elec       q    Type
REMARK                         _______ _______ _______ _____ _____    ______ ____
ROOT
ATOM      1  N   UNL     1       0.712  -3.568   3.224  0.00  0.00    -0.256 N 
ATOM      2  C   UNL     1      -0.371  -3.759   4.092  0.00  0.00    +0.081 A 
ATOM      3  C   UNL     1      -1.225  -2.710   4.399  0.00  0.00    +0.055 A 
ATOM      4  C   UNL     1      -2.291  -2.920   5.254  0.00  0.00    +0.107 A 
ATOM      5  C   UNL     1      -2.510  -4.171   5.800  0.00  0.00    +0.032 A 
ATOM      6  C   UNL     1      -1.664  -5.222   5.494  0.00  0.00    +0.049 A 
ATOM      7  C   UNL     1      -0.595  -5.021   4.638  0.00  0.00    +0.143 A 
ATOM      8  O   UNL     1       0.246  -6.042   4.327  0.00  0.00    -0.481 OA
ATOM      9  C   UNL     1       0.813  -6.031   3.014  0.00  0.00    +0.325 C 
ATOM     10  C   UNL     1       1.327  -4.649   2.697  0.00  0.00    +0.258 C 
ATOM     11  O   UNL     1       2.289  -4.510   1.971  0.00  0.00    -0.271 OA
ENDROOT
BRANCH   4  12
ATOM     12  S   UNL     1      -3.373  -1.587   5.651  0.00  0.00    +0.061 S 
ATOM     13  O   UNL     1      -3.275  -0.652   4.585  0.00  0.00    -0.153 OA
ATOM     14  O   UNL     1      -4.609  -2.170   6.041  0.00  0.00    -0.153 OA
BRANCH  12  15
ATOM     15  N   UNL     1      -2.757  -0.840   6.995  0.00  0.00    -0.177 NA
ATOM     16  C   UNL     1      -3.184  -1.296   8.299  0.00  0.00    +0.109 C 
ATOM     17  C   UNL     1      -4.448  -0.527   8.737  0.00  0.00    +0.017 C 
ATOM     18  C   UNL     1      -4.109   0.866   9.066  0.00  0.00    +0.001 C 
ATOM     19  C   UNL     1      -3.562   1.673   7.893  0.00  0.00    +0.001 C 
ATOM     20  C   UNL     1      -2.076   1.438   7.774  0.00  0.00    +0.017 C 
ATOM     21  C   UNL     1      -1.800   0.269   6.812  0.00  0.00    +0.109 C 
ENDBRANCH  12  15
ENDBRANCH   4  12
BRANCH   1  22
ATOM     22  C   UNL     1       1.175  -2.217   2.897  0.00  0.00    +0.209 C 
BRANCH  22  24
ATOM     23  N   UNL     1       0.711  -0.489   1.189  0.00  0.00    -0.311 N 
ATOM     24  C   UNL     1       0.446  -1.718   1.676  0.00  0.00    +0.231 C 
ATOM     25  O   UNL     1      -0.379  -2.421   1.132  0.00  0.00    -0.274 OA
ATOM     26  H   UNL     1       1.370   0.073   1.624  0.00  0.00    +0.149 HD
BRANCH  23  33
ATOM     27  C   UNL     1      -0.735   2.019   1.269  0.00  0.00    +0.009 C 
ATOM     28  C   UNL     1      -0.019   1.526   0.010  0.00  0.00    +0.006 C 
ATOM     29  C   UNL     1       1.417   2.055  -0.000  0.00  0.00    +0.005 C 
ATOM     30  C   UNL     1       2.133   1.562  -1.259  0.00  0.00    +0.000 C 
ATOM     31  C   UNL     1       2.154   0.032  -1.268  0.00  0.00    +0.002 C 
ATOM     32  C   UNL     1       0.718  -0.497  -1.257  0.00  0.00    +0.022 C 
ATOM     33  C   UNL     1       0.002  -0.004   0.002  0.00  0.00    +0.076 C 
ENDBRANCH  23  33
ENDBRANCH  22  24
ENDBRANCH   1  22
TORSDOF 5
