REMARK  Name = ZINC36052852
REMARK  12 active torsions:
REMARK  status: ('A' for Active; 'I' for Inactive)
REMARK    1  A    between atoms: C_1  and  C_2
REMARK    2  A    between atoms: C_2  and  C_3
REMARK    3  A    between atoms: C_4  and  C_32
REMARK    4  A    between atoms: C_5  and  C_25
REMARK    5  A    between atoms: C_8  and  C_13
REMARK    6  A    between atoms: C_14  and  N_16
REMARK    7  A    between atoms: N_16  and  C_17
REMARK    8  A    between atoms: C_17  and  C_18
REMARK    9  A    between atoms: C_18  and  C_19
REMARK   10  A    between atoms: C_28  and  C_31
REMARK   11  A    between atoms: C_32  and  O_34
REMARK   12  A    between atoms: O_34  and  C_35
REMARK                            x       y       z     vdW  Elec       q    Type
REMARK                         _______ _______ _______ _____ _____    ______ ____
ROOT
ATOM      1  C   UNL     1       1.006  -0.937   1.176  0.00  0.00    +0.056 C 
ATOM      2  C   UNL     1       0.206  -1.088   2.293  0.00  0.00    +0.083 C 
ATOM      3  C   UNL     1       0.885  -1.383   3.612  0.00  0.00    +0.150 C 
ATOM      4  N   UNL     1       2.368  -1.488   3.601  0.00  0.00    -0.267 N 
ATOM      5  C   UNL     1       3.191  -1.748   4.679  0.00  0.00    +0.048 C 
ATOM      6  C   UNL     1       4.522  -1.803   4.453  0.00  0.00    +0.072 C 
ATOM      7  S   UNL     1       4.612  -1.482   2.702  0.00  0.00    -0.060 S 
ATOM      8  C   UNL     1       2.973  -1.305   2.389  0.00  0.00    +0.166 C 
ATOM      9  N   UNL     1       2.320  -1.055   1.272  0.00  0.00    -0.229 NA
ENDROOT
BRANCH   3  10
ATOM     10  C   UNL     1       0.332  -2.683   4.137  0.00  0.00    -0.022 A 
ATOM     11  C   UNL     1       0.774  -3.883   3.614  0.00  0.00    +0.006 A 
ATOM     12  C   UNL     1       0.267  -5.075   4.096  0.00  0.00    +0.004 A 
ATOM     13  C   UNL     1      -0.681  -5.067   5.102  0.00  0.00    -0.050 A 
ATOM     14  C   UNL     1      -1.122  -3.867   5.626  0.00  0.00    +0.004 A 
ATOM     15  C   UNL     1      -0.612  -2.674   5.147  0.00  0.00    +0.006 A 
ATOM     16  C   UNL     1      -1.234  -6.367   5.627  0.00  0.00    +0.044 C 
ENDBRANCH   3  10
BRANCH   5  17
ATOM     17  C   UNL     1       2.638  -1.959   6.024  0.00  0.00    +0.091 C 
ATOM     18  C   UNL     1       3.442  -2.365   7.026  0.00  0.00    +0.239 C 
ATOM     19  O   UNL     1       4.778  -2.467   6.825  0.00  0.00    -0.271 OA
BRANCH  18  20
ATOM     20  N   UNL     1       2.902  -2.679   8.262  0.00  0.00    -0.311 N 
ATOM     21  H   UNL     1       1.940  -2.678   8.386  0.00  0.00    +0.149 HD
BRANCH  20  22
ATOM     22  C   UNL     1       3.785  -3.012   9.383  0.00  0.00    +0.110 C 
BRANCH  22  23
ATOM     23  C   UNL     1       2.941  -3.435  10.588  0.00  0.00    +0.074 C 
BRANCH  23  24
ATOM     24  C   UNL     1       3.849  -3.778  11.741  0.00  0.00    +0.043 A 
ATOM     25  C   UNL     1       3.674  -3.149  12.959  0.00  0.00    +0.023 A 
ATOM     26  C   UNL     1       4.514  -3.471  14.014  0.00  0.00    +0.003 A 
ATOM     27  C   UNL     1       5.504  -4.419  13.802  0.00  0.00    +0.020 A 
ATOM     28  C   UNL     1       5.619  -5.006  12.557  0.00  0.00    +0.111 A 
ATOM     29  N   UNL     1       4.798  -4.679  11.578  0.00  0.00    -0.260 NA
ENDBRANCH  23  24
ENDBRANCH  22  23
ENDBRANCH  20  22
ENDBRANCH  18  20
ENDBRANCH   5  17
BRANCH   1  31
ATOM     30  C   UNL     1       0.139   0.863  -0.292  0.00  0.00    +0.010 C 
ATOM     31  C   UNL     1       0.376  -0.643  -0.161  0.00  0.00    +0.053 C 
ENDBRANCH   1  31
BRANCH   2  32
ATOM     32  C   UNL     1      -1.187  -0.971   2.206  0.00  0.00    +0.339 C 
ATOM     33  O   UNL     1      -1.718  -0.809   1.122  0.00  0.00    -0.245 OA
BRANCH  32  34
ATOM     34  O   UNL     1      -1.941  -1.036   3.326  0.00  0.00    -0.465 OA
ATOM     35  C   UNL     1      -3.355  -0.909   3.163  0.00  0.00    +0.280 C 
ENDBRANCH  32  34
ENDBRANCH   2  32
TORSDOF 9
