REMARK  Name = ZINC39596408
REMARK  7 active torsions:
REMARK  status: ('A' for Active; 'I' for Inactive)
REMARK    1  A    between atoms: C_1  and  C_2
REMARK    2  A    between atoms: C_2  and  C_4
REMARK    3  A    between atoms: C_2  and  O_30
REMARK    4  A    between atoms: C_4  and  N_5
REMARK    5  A    between atoms: C_6  and  C_8
REMARK    6  A    between atoms: C_19  and  C_21
REMARK    7  A    between atoms: O_30  and  C_31
REMARK                            x       y       z     vdW  Elec       q    Type
REMARK                         _______ _______ _______ _____ _____    ______ ____
ROOT
ATOM      1  C   UNL     1       1.416  -3.957  -2.581  0.00  0.00    +0.100 C 
ATOM      2  C   UNL     1      -0.012  -4.434  -2.930  0.00  0.00    +0.121 C 
ATOM      3  N   UNL     1       0.008  -4.632  -4.398  0.00  0.00    -0.296 N 
ATOM      4  C   UNL     1       1.337  -5.228  -4.672  0.00  0.00    +0.115 C 
ATOM      5  C   UNL     1       2.299  -4.483  -3.725  0.00  0.00    -0.004 C 
ATOM      6  C   UNL     1       3.353  -5.442  -3.181  0.00  0.00    -0.010 C 
ATOM      7  C   UNL     1       4.255  -5.907  -4.328  0.00  0.00    -0.082 C 
ATOM      8  N   UNL     1       4.898  -4.743  -4.950  0.00  0.00    +0.379 N 
ATOM      9  C   UNL     1       3.881  -3.872  -5.553  0.00  0.00    -0.082 C 
ATOM     10  C   UNL     1       2.964  -3.321  -4.457  0.00  0.00    -0.010 C 
ATOM     11  C   UNL     1      -0.964  -4.337  -5.284  0.00  0.00    +0.248 C 
ATOM     12  O   UNL     1      -1.965  -3.751  -4.917  0.00  0.00    -0.270 OA
ATOM     13  H   UNL     1       5.407  -4.227  -4.248  0.00  0.00    -0.086 HD
ATOM     14  H   UNL     1       5.537  -5.056  -5.665  0.00  0.00    -0.086 HD
ENDROOT
BRANCH  11  15
ATOM     15  C   UNL     1      -0.815  -4.723  -6.693  0.00  0.00    +0.052 A 
ATOM     16  C   UNL     1      -0.027  -5.769  -7.053  0.00  0.00    +0.059 A 
ATOM     17  S   UNL     1      -0.141  -5.859  -8.724  0.00  0.00    -0.096 S 
ATOM     18  C   UNL     1      -1.243  -4.508  -9.036  0.00  0.00    +0.020 A 
ATOM     19  C   UNL     1      -1.515  -3.994  -7.754  0.00  0.00    +0.001 A 
ATOM     20  C   UNL     1      -2.385  -2.891  -7.672  0.00  0.00    +0.010 A 
ATOM     21  C   UNL     1      -2.940  -2.357  -8.808  0.00  0.00    +0.001 A 
ATOM     22  C   UNL     1      -2.659  -2.885 -10.060  0.00  0.00    +0.001 A 
ATOM     23  C   UNL     1      -1.800  -3.961 -10.172  0.00  0.00    +0.015 A 
ENDBRANCH  11  15
BRANCH   1  25
ATOM     24  N   UNL     1       2.460  -1.835  -1.857  0.00  0.00    -0.312 N 
ATOM     25  C   UNL     1       1.468  -2.452  -2.529  0.00  0.00    +0.218 C 
ATOM     26  O   UNL     1       0.617  -1.796  -3.091  0.00  0.00    -0.275 OA
ATOM     27  H   UNL     1       3.140  -2.359  -1.407  0.00  0.00    +0.149 HD
BRANCH  24  28
ATOM     28  C   UNL     1       2.510  -0.371  -1.805  0.00  0.00    +0.148 C 
BRANCH  28  30
ATOM     29  C   UNL     1       3.709   1.591  -0.827  0.00  0.00    +0.053 C 
ATOM     30  C   UNL     1       3.725   0.069  -0.986  0.00  0.00    +0.187 C 
BRANCH  30  31
ATOM     31  O   UNL     1       4.922  -0.327  -1.659  0.00  0.00    -0.488 OA
BRANCH  31  32
ATOM     32  C   UNL     1       6.033  -0.495  -0.893  0.00  0.00    +0.121 A 
ATOM     33  C   UNL     1       5.948  -0.387   0.487  0.00  0.00    +0.048 A 
ATOM     34  C   UNL     1       7.078  -0.558   1.263  0.00  0.00    +0.042 A 
ATOM     35  C   UNL     1       8.295  -0.837   0.664  0.00  0.00    +0.124 A 
ATOM     36  C   UNL     1       8.381  -0.946  -0.713  0.00  0.00    +0.042 A 
ATOM     37  C   UNL     1       7.251  -0.782  -1.492  0.00  0.00    +0.048 A 
ATOM     38  F   UNL     1       9.399  -1.004   1.425  0.00  0.00    -0.205 F 
ENDBRANCH  31  32
ENDBRANCH  30  31
ENDBRANCH  28  30
ENDBRANCH  24  28
ENDBRANCH   1  25
TORSDOF 6
