REMARK  Name = ZINC21811096
REMARK  8 active torsions:
REMARK  status: ('A' for Active; 'I' for Inactive)
REMARK    1  A    between atoms: C_1  and  C_2
REMARK    2  A    between atoms: C_5  and  N_8
REMARK    3  A    between atoms: C_9  and  C_11
REMARK    4  A    between atoms: C_11  and  C_33
REMARK    5  A    between atoms: N_23  and  C_24
REMARK    6  A    between atoms: C_24  and  C_25
REMARK    7  A    between atoms: C_25  and  C_26
REMARK    8  A    between atoms: C_26  and  N_27
REMARK                            x       y       z     vdW  Elec       q    Type
REMARK                         _______ _______ _______ _____ _____    ______ ____
ROOT
ATOM      1  C   UNL     1       2.324   1.379   0.699  0.00  0.00    +0.128 C 
ATOM      2  C   UNL     1       1.221   2.174   0.002  0.00  0.00    +0.157 C 
ATOM      3  N   UNL     1      -0.017   1.389   0.010  0.00  0.00    -0.331 N 
ATOM      4  C   UNL     1      -1.315   1.801   0.015  0.00  0.00    +0.088 A 
ATOM      5  C   UNL     1      -2.194   2.910   0.031  0.00  0.00    +0.067 A 
ATOM      6  C   UNL     1      -3.448   2.426   0.020  0.00  0.00    +0.198 A 
ATOM      7  O   UNL     1      -3.410   1.083  -0.002  0.00  0.00    -0.461 OA
ATOM      8  C   UNL     1      -2.126   0.666  -0.002  0.00  0.00    +0.153 A 
ATOM      9  C   UNL     1      -1.284  -0.457  -0.013  0.00  0.00    +0.079 A 
ATOM     10  C   UNL     1       0.002  -0.004   0.002  0.00  0.00    +0.109 A 
ATOM     11  C   UNL     1       1.273  -0.738   0.020  0.00  0.00    +0.264 C 
ATOM     12  O   UNL     1       1.321  -1.941  -0.160  0.00  0.00    -0.268 OA
ATOM     13  N   UNL     1       2.389  -0.006   0.246  0.00  0.00    -0.281 N 
ATOM     14  C   UNL     1       3.669   2.054   0.419  0.00  0.00    +0.043 C 
ENDROOT
BRANCH   1  16
ATOM     15  N   UNL     1       1.289   0.451   2.744  0.00  0.00    -0.311 N 
ATOM     16  C   UNL     1       2.072   1.394   2.184  0.00  0.00    +0.238 C 
ATOM     17  O   UNL     1       2.573   2.255   2.876  0.00  0.00    -0.273 OA
ATOM     18  H   UNL     1       0.834  -0.330   2.117  0.00  0.00    +0.149 HD
BRANCH  15  23
ATOM     19  C   UNL     1       0.345  -0.936   8.223  0.00  0.00    +0.007 C 
ATOM     20  C   UNL     1       0.601  -0.952   6.715  0.00  0.00    -0.014 C 
ATOM     21  C   UNL     1      -0.537  -0.225   5.996  0.00  0.00    +0.005 C 
ATOM     22  C   UNL     1      -0.281  -0.240   4.488  0.00  0.00    +0.022 C 
ATOM     23  C   UNL     1       1.044   0.465   4.189  0.00  0.00    +0.073 C 
ATOM     24  C   UNL     1       2.182  -0.262   4.907  0.00  0.00    +0.022 C 
ATOM     25  C   UNL     1       1.926  -0.247   6.415  0.00  0.00    +0.005 C 
ENDBRANCH  15  23
ENDBRANCH   1  16
BRANCH  13  26
ATOM     26  C   UNL     1       3.700  -0.622   0.029  0.00  0.00    +0.107 C 
BRANCH  26  27
ATOM     27  C   UNL     1       4.141  -0.390  -1.417  0.00  0.00    +0.000 C 
BRANCH  27  28
ATOM     28  C   UNL     1       5.510  -1.034  -1.644  0.00  0.00    -0.077 C 
BRANCH  28  29
ATOM     29  N   UNL     1       5.933  -0.810  -3.033  0.00  0.00    +0.380 N 
ATOM     30  C   UNL     1       5.050  -1.515  -3.971  0.00  0.00    -0.079 C 
ATOM     31  C   UNL     1       5.430  -1.144  -5.407  0.00  0.00    -0.019 C 
ATOM     32  C   UNL     1       6.889  -1.532  -5.660  0.00  0.00    -0.004 C 
ATOM     33  C   UNL     1       7.782  -0.822  -4.639  0.00  0.00    -0.019 C 
ATOM     34  C   UNL     1       7.335  -1.203  -3.225  0.00  0.00    -0.079 C 
ATOM     35  H   UNL     1       5.854   0.267  -3.243  0.00  0.00    -0.082 HD
ENDBRANCH  28  29
ENDBRANCH  27  28
ENDBRANCH  26  27
ENDBRANCH  13  26
TORSDOF 6
