REMARK  Name = ZINC33524695
REMARK  13 active torsions:
REMARK  status: ('A' for Active; 'I' for Inactive)
REMARK    1  A    between atoms: C_1  and  C_2
REMARK    2  A    between atoms: C_2  and  C_3
REMARK    3  A    between atoms: C_3  and  N_4
REMARK    4  A    between atoms: N_4  and  C_5
REMARK    5  A    between atoms: C_6  and  C_17
REMARK    6  A    between atoms: C_11  and  C_16
REMARK    7  A    between atoms: N_21  and  C_25
REMARK    8  A    between atoms: C_25  and  C_26
REMARK    9  A    between atoms: C_26  and  C_27
REMARK   10  A    between atoms: C_30  and  O_35
REMARK   11  A    between atoms: C_31  and  O_33
REMARK   12  A    between atoms: O_33  and  C_34
REMARK   13  A    between atoms: O_35  and  C_36
REMARK                            x       y       z     vdW  Elec       q    Type
REMARK                         _______ _______ _______ _____ _____    ______ ____
ROOT
ATOM      1  C   UNL     1      -0.013   1.076   0.008  0.00  0.00    +0.037 C 
ATOM      2  C   UNL     1      -1.254   1.643   0.033  0.00  0.00    +0.077 C 
ATOM      3  C   UNL     1      -1.624   3.016  -0.043  0.00  0.00    +0.258 C 
ATOM      4  O   UNL     1      -0.779   3.888  -0.147  0.00  0.00    -0.269 OA
ATOM      5  N   UNL     1      -2.910   3.318   0.003  0.00  0.00    -0.255 N 
ATOM      6  C   UNL     1      -3.847   2.351   0.117  0.00  0.00    +0.121 C 
ATOM      7  S   UNL     1      -5.550   2.509   0.193  0.00  0.00    -0.027 S 
ATOM      8  S   UNL     1      -2.857   0.864   0.161  0.00  0.00    -0.061 S 
ENDROOT
BRANCH   1  10
ATOM      9  C   UNL     1       2.109   2.075   0.753  0.00  0.00    +0.134 A 
ATOM     10  C   UNL     1       1.126   1.876  -0.245  0.00  0.00    +0.081 A 
ATOM     11  C   UNL     1       1.313   2.494  -1.504  0.00  0.00    +0.267 A 
ATOM     12  O   UNL     1       0.494   2.346  -2.395  0.00  0.00    -0.267 OA
ATOM     13  N   UNL     1       2.412   3.253  -1.701  0.00  0.00    -0.267 N 
ATOM     14  C   UNL     1       2.599   3.856  -2.910  0.00  0.00    +0.099 A 
ATOM     15  C   UNL     1       3.691   4.619  -3.142  0.00  0.00    -0.034 A 
ATOM     16  C   UNL     1       4.649   4.799  -2.136  0.00  0.00    +0.008 A 
ATOM     17  C   UNL     1       4.472   4.201  -0.923  0.00  0.00    +0.047 A 
ATOM     18  C   UNL     1       3.330   3.411  -0.700  0.00  0.00    +0.142 A 
ATOM     19  N   UNL     1       3.166   2.829   0.488  0.00  0.00    -0.214 NA
ATOM     20  C   UNL     1       3.877   5.276  -4.486  0.00  0.00    +0.045 C 
BRANCH   9  21
ATOM     21  N   UNL     1       1.968   1.488   1.992  0.00  0.00    -0.328 N 
ATOM     22  H   UNL     1       1.089   0.863   2.208  0.00  0.00    +0.147 HD
BRANCH  21  23
ATOM     23  C   UNL     1       2.989   1.697   3.021  0.00  0.00    +0.102 C 
BRANCH  23  25
ATOM     24  C   UNL     1       3.661   1.160   5.367  0.00  0.00    +0.005 C 
ATOM     25  C   UNL     1       2.594   0.942   4.292  0.00  0.00    +0.015 C 
ENDBRANCH  23  25
ENDBRANCH  21  23
ENDBRANCH   9  21
ENDBRANCH   1  10
BRANCH   5  26
ATOM     26  C   UNL     1      -3.325   4.721  -0.073  0.00  0.00    +0.119 C 
BRANCH  26  27
ATOM     27  C   UNL     1      -3.544   5.110  -1.536  0.00  0.00    +0.054 C 
BRANCH  27  28
ATOM     28  C   UNL     1      -3.971   6.553  -1.614  0.00  0.00    -0.042 A 
ATOM     29  C   UNL     1      -5.315   6.878  -1.573  0.00  0.00    +0.007 A 
ATOM     30  C   UNL     1      -5.712   8.200  -1.638  0.00  0.00    +0.049 A 
ATOM     31  C   UNL     1      -4.763   9.203  -1.756  0.00  0.00    +0.161 A 
ATOM     32  C   UNL     1      -3.411   8.876  -1.803  0.00  0.00    +0.162 A 
ATOM     33  C   UNL     1      -3.020   7.549  -1.731  0.00  0.00    +0.053 A 
BRANCH  32  34
ATOM     34  O   UNL     1      -2.476   9.857  -1.919  0.00  0.00    -0.491 OA
ATOM     35  C   UNL     1      -1.108   9.447  -1.962  0.00  0.00    +0.277 C 
ENDBRANCH  32  34
BRANCH  31  36
ATOM     36  O   UNL     1      -5.152  10.505  -1.826  0.00  0.00    -0.491 OA
ATOM     37  C   UNL     1      -6.556  10.766  -1.772  0.00  0.00    +0.277 C 
ENDBRANCH  31  36
ENDBRANCH  27  28
ENDBRANCH  26  27
ENDBRANCH   5  26
TORSDOF 9
