REMARK  Name = ZINC39125258
REMARK  20 active torsions:
REMARK  status: ('A' for Active; 'I' for Inactive)
REMARK    1  A    between atoms: C_1  and  C_2
REMARK    2  A    between atoms: C_2  and  C_3
REMARK    3  A    between atoms: C_3  and  N_4
REMARK    4  A    between atoms: C_5  and  N_37
REMARK    5  A    between atoms: C_6  and  N_15
REMARK    6  A    between atoms: N_9  and  C_12
REMARK    7  A    between atoms: C_12  and  C_13
REMARK    8  A    between atoms: C_13  and  C_14
REMARK    9  A    between atoms: C_16  and  C_18
REMARK   10  A    between atoms: C_18  and  C_20
REMARK   11  A    between atoms: C_18  and  C_21
REMARK   12  A    between atoms: C_21  and  C_22
REMARK   13  A    between atoms: C_25  and  N_28
REMARK   14  A    between atoms: N_28  and  C_29
REMARK   15  A    between atoms: C_29  and  C_30
REMARK   16  A    between atoms: C_30  and  O_32
REMARK   17  A    between atoms: O_32  and  C_33
REMARK   18  A    between atoms: C_33  and  C_34
REMARK   19  A    between atoms: C_33  and  C_35
REMARK   20  A    between atoms: C_33  and  C_36
REMARK                            x       y       z     vdW  Elec       q    Type
REMARK                         _______ _______ _______ _____ _____    ______ ____
ROOT
ATOM      1  N   UNL     1      -1.387  -4.779  -2.398  0.00  0.00    -0.278 N 
ATOM      2  C   UNL     1      -1.267  -6.122  -2.381  0.00  0.00    +0.221 C 
ATOM      3  O   UNL     1      -1.254  -6.717  -1.323  0.00  0.00    -0.275 OA
ATOM      4  H   UNL     1      -1.471  -4.310  -3.243  0.00  0.00    +0.155 HD
ENDROOT
BRANCH   1   7
ATOM      5  N   UNL     1      -2.438  -2.562   0.338  0.00  0.00    -0.280 N 
ATOM      6  C   UNL     1      -2.464  -3.254  -0.851  0.00  0.00    +0.127 A 
ATOM      7  C   UNL     1      -1.391  -4.055  -1.186  0.00  0.00    +0.137 A 
ATOM      8  C   UNL     1      -0.302  -4.139  -0.299  0.00  0.00    +0.280 A 
ATOM      9  O   UNL     1       0.659  -4.839  -0.571  0.00  0.00    -0.265 OA
ATOM     10  N   UNL     1      -0.327  -3.440   0.853  0.00  0.00    -0.259 N 
ATOM     11  C   UNL     1      -1.379  -2.660   1.161  0.00  0.00    +0.333 A 
ATOM     12  O   UNL     1      -1.373  -2.036   2.204  0.00  0.00    -0.246 OA
BRANCH   6  13
ATOM     13  N   UNL     1      -3.544  -3.150  -1.693  0.00  0.00    -0.343 N 
ATOM     14  H   UNL     1      -4.295  -2.585  -1.452  0.00  0.00    +0.144 HD
ATOM     15  H   UNL     1      -3.556  -3.640  -2.530  0.00  0.00    +0.144 HD
ENDBRANCH   6  13
BRANCH   5  16
ATOM     16  C   UNL     1      -3.570  -1.707   0.707  0.00  0.00    +0.128 C 
BRANCH  16  18
ATOM     17  C   UNL     1      -4.522   0.597   0.551  0.00  0.00    +0.005 C 
ATOM     18  C   UNL     1      -3.340  -0.295   0.165  0.00  0.00    +0.018 C 
ENDBRANCH  16  18
ENDBRANCH   5  16
BRANCH  10  19
ATOM     19  C   UNL     1       0.806  -3.527   1.777  0.00  0.00    +0.130 C 
BRANCH  19  20
ATOM     20  C   UNL     1       1.827  -2.440   1.435  0.00  0.00    +0.018 C 
ATOM     21  C   UNL     1       3.010  -2.530   2.401  0.00  0.00    +0.005 C 
ENDBRANCH  19  20
ENDBRANCH  10  19
ENDBRANCH   1   7
BRANCH   2  22
ATOM     22  C   UNL     1      -1.150  -6.885  -3.675  0.00  0.00    +0.076 C 
ATOM     23  C   UNL     1       0.091  -6.412  -4.435  0.00  0.00    +0.017 C 
BRANCH  22  24
ATOM     24  C   UNL     1      -1.027  -8.380  -3.377  0.00  0.00    +0.047 C 
BRANCH  24  25
ATOM     25  C   UNL     1      -1.033  -9.153  -4.671  0.00  0.00    -0.047 A 
ATOM     26  C   UNL     1      -2.230  -9.588  -5.209  0.00  0.00    +0.005 A 
ATOM     27  C   UNL     1      -2.240 -10.296  -6.395  0.00  0.00    +0.023 A 
ATOM     28  C   UNL     1      -1.044 -10.571  -7.047  0.00  0.00    +0.028 A 
ATOM     29  C   UNL     1       0.156 -10.132  -6.504  0.00  0.00    +0.023 A 
ATOM     30  C   UNL     1       0.158  -9.419  -5.321  0.00  0.00    +0.005 A 
BRANCH  28  31
ATOM     31  N   UNL     1      -1.050 -11.287  -8.246  0.00  0.00    -0.334 N 
ATOM     32  H   UNL     1      -1.889 -11.594  -8.624  0.00  0.00    +0.147 HD
BRANCH  31  33
ATOM     33  C   UNL     1       0.211 -11.576  -8.933  0.00  0.00    +0.222 C 
BRANCH  33  34
ATOM     34  C   UNL     1      -0.069 -12.354 -10.193  0.00  0.00    +0.325 C 
ATOM     35  O   UNL     1      -1.206 -12.639 -10.486  0.00  0.00    -0.249 OA
BRANCH  34  36
ATOM     36  O   UNL     1       0.944 -12.732 -10.988  0.00  0.00    -0.458 OA
BRANCH  36  37
ATOM     37  C   UNL     1       0.605 -13.467 -12.166  0.00  0.00    +0.105 C 
ATOM     38  C   UNL     1      -0.317 -12.622 -13.047  0.00  0.00    +0.055 C 
ATOM     39  C   UNL     1       1.880 -13.806 -12.940  0.00  0.00    +0.055 C 
ATOM     40  C   UNL     1      -0.111 -14.760 -11.771  0.00  0.00    +0.055 C 
ENDBRANCH  36  37
ENDBRANCH  34  36
ENDBRANCH  33  34
ENDBRANCH  31  33
ENDBRANCH  28  31
ENDBRANCH  24  25
ENDBRANCH  22  24
ENDBRANCH   2  22
TORSDOF 14
