REMARK  Name = ZINC32117022
REMARK  5 active torsions:
REMARK  status: ('A' for Active; 'I' for Inactive)
REMARK    1  A    between atoms: C_1  and  C_2
REMARK    2  A    between atoms: C_2  and  N_3
REMARK    3  A    between atoms: N_11  and  C_25
REMARK    4  A    between atoms: N_15  and  N_16
REMARK    5  A    between atoms: C_17  and  C_18
REMARK                            x       y       z     vdW  Elec       q    Type
REMARK                         _______ _______ _______ _____ _____    ______ ____
ROOT
ATOM      1  N   UNL     1      -1.077  -1.598   0.092  0.00  0.00    -0.305 N 
ATOM      2  C   UNL     1      -1.861  -1.626  -1.052  0.00  0.00    +0.153 A 
ATOM      3  C   UNL     1      -1.595  -1.779  -2.425  0.00  0.00    +0.280 A 
ATOM      4  O   UNL     1      -0.451  -1.929  -2.817  0.00  0.00    -0.265 OA
ATOM      5  N   UNL     1      -2.619  -1.758  -3.303  0.00  0.00    -0.273 N 
ATOM      6  H   UNL     1      -2.424  -1.876  -4.379  0.00  0.00    +0.173 HD
ATOM      7  C   UNL     1      -3.886  -1.595  -2.885  0.00  0.00    +0.331 A 
ATOM      8  O   UNL     1      -4.784  -1.582  -3.704  0.00  0.00    -0.246 OA
ATOM      9  N   UNL     1      -4.186  -1.445  -1.581  0.00  0.00    -0.280 N 
ATOM     10  C   UNL     1      -3.176  -1.457  -0.631  0.00  0.00    +0.170 A 
ATOM     11  N   UNL     1      -3.161  -1.337   0.697  0.00  0.00    -0.195 NA
ATOM     12  C   UNL     1      -1.923  -1.423   1.142  0.00  0.00    +0.218 A 
ATOM     13  N   UNL     1      -1.546  -1.345   2.464  0.00  0.00    -0.206 N 
ATOM     14  C   UNL     1      -5.579  -1.269  -1.165  0.00  0.00    +0.155 C 
ATOM     15  H   UNL     1      -0.483  -1.426   2.738  0.00  0.00    +0.177 HD
ENDROOT
BRANCH   1  17
ATOM     16  C   UNL     1       1.029  -0.356   0.047  0.00  0.00    +0.027 C 
ATOM     17  C   UNL     1       0.380  -1.737   0.157  0.00  0.00    +0.122 C 
ENDBRANCH   1  17
BRANCH  13  18
ATOM     18  N   UNL     1      -2.514  -1.163   3.459  0.00  0.00    -0.188 NA
ATOM     19  C   UNL     1      -2.151  -0.970   4.691  0.00  0.00    +0.138 C 
BRANCH  19  20
ATOM     20  C   UNL     1      -0.795  -0.474   4.990  0.00  0.00    -0.005 A 
ATOM     21  C   UNL     1       0.001   0.052   3.970  0.00  0.00    +0.010 A 
ATOM     22  C   UNL     1       1.266   0.520   4.258  0.00  0.00    +0.016 A 
ATOM     23  C   UNL     1       1.751   0.459   5.553  0.00  0.00    +0.018 A 
ATOM     24  C   UNL     1       0.970  -0.067   6.569  0.00  0.00    +0.016 A 
ATOM     25  C   UNL     1      -0.299  -0.533   6.295  0.00  0.00    +0.010 A 
ATOM     26 BR   UNL     1       3.490   1.095   5.938  0.00  0.00    -0.050 Br
ENDBRANCH  19  20
ENDBRANCH  13  18
TORSDOF 3
