REMARK  Name = ZINC13576285
REMARK  7 active torsions:
REMARK  status: ('A' for Active; 'I' for Inactive)
REMARK    1  A    between atoms: C_1  and  O_2
REMARK    2  A    between atoms: O_2  and  C_3
REMARK    3  A    between atoms: C_3  and  C_4
REMARK    4  A    between atoms: C_4  and  C_5
REMARK    5  A    between atoms: C_5  and  N_6
REMARK    6  A    between atoms: C_11  and  C_29
REMARK    7  A    between atoms: C_29  and  C_30
REMARK                            x       y       z     vdW  Elec       q    Type
REMARK                         _______ _______ _______ _____ _____    ______ ____
ROOT
ATOM      1  N   UNL     1       1.272  -4.165  -2.169  0.00  0.00    -0.241 N 
ATOM      2  C   UNL     1       2.231  -4.876  -1.565  0.00  0.00    +0.227 C 
ATOM      3  O   UNL     1       3.218  -4.412  -1.035  0.00  0.00    -0.275 OA
ATOM      4  C   UNL     1       1.891  -6.347  -1.644  0.00  0.00    +0.107 C 
ATOM      5  C   UNL     1       2.901  -7.050  -2.576  0.00  0.00    +0.072 C 
ATOM      6  N   UNL     1       2.068  -7.909  -3.460  0.00  0.00    -0.295 NA
ATOM      7  C   UNL     1       0.874  -7.090  -3.738  0.00  0.00    +0.136 C 
ATOM      8  C   UNL     1       0.540  -6.361  -2.413  0.00  0.00    +0.122 C 
ATOM      9  C   UNL     1       0.273  -4.897  -2.676  0.00  0.00    +0.228 C 
ATOM     10  O   UNL     1      -0.693  -4.454  -3.260  0.00  0.00    -0.275 OA
ATOM     11  C   UNL     1       1.119  -6.124  -4.862  0.00  0.00    +0.006 A 
ATOM     12  C   UNL     1       2.023  -5.103  -5.054  0.00  0.00    +0.046 A 
ATOM     13  C   UNL     1       2.003  -4.372  -6.231  0.00  0.00    +0.124 A 
ATOM     14  C   UNL     1       1.073  -4.673  -7.213  0.00  0.00    +0.040 A 
ATOM     15  C   UNL     1       0.166  -5.695  -7.022  0.00  0.00    +0.026 A 
ATOM     16  C   UNL     1       0.180  -6.433  -5.841  0.00  0.00    +0.039 A 
ATOM     17  N   UNL     1      -0.623  -7.498  -5.421  0.00  0.00    -0.283 N 
ATOM     18  C   UNL     1      -0.280  -7.939  -4.196  0.00  0.00    +0.243 C 
ATOM     19  O   UNL     1      -0.800  -8.847  -3.582  0.00  0.00    -0.273 OA
ATOM     20  F   UNL     1       2.889  -3.370  -6.422  0.00  0.00    -0.205 F 
ATOM     21  H   UNL     1       2.559  -8.133  -4.313  0.00  0.00    +0.124 HD
ATOM     22  H   UNL     1      -1.344  -7.874  -5.950  0.00  0.00    +0.155 HD
ENDROOT
BRANCH   1  23
ATOM     23  C   UNL     1       1.309  -2.703  -2.261  0.00  0.00    +0.118 C 
BRANCH  23  24
ATOM     24  C   UNL     1       0.613  -2.097  -1.041  0.00  0.00    +0.047 C 
BRANCH  24  25
ATOM     25  C   UNL     1       0.652  -0.570  -1.138  0.00  0.00    +0.161 C 
BRANCH  25  27
ATOM     26  C   UNL     1      -0.017   1.425   0.010  0.00  0.00    +0.193 C 
ATOM     27  O   UNL     1       0.002  -0.004   0.002  0.00  0.00    -0.383 OA
ENDBRANCH  25  27
ENDBRANCH  24  25
ENDBRANCH  23  24
ENDBRANCH   1  23
BRANCH   5  28
ATOM     28  C   UNL     1       3.872  -7.906  -1.760  0.00  0.00    +0.056 C 
BRANCH  28  29
ATOM     29  C   UNL     1       4.921  -8.484  -2.674  0.00  0.00    -0.021 A 
ATOM     30  C   UNL     1       4.895  -9.694  -3.255  0.00  0.00    +0.087 A 
ATOM     31  N   UNL     1       6.019  -9.871  -4.015  0.00  0.00    -0.360 N 
ATOM     32  H   UNL     1       6.223 -10.667  -4.531  0.00  0.00    +0.165 HD
ATOM     33  C   UNL     1       6.816  -8.751  -3.940  0.00  0.00    +0.047 A 
ATOM     34  C   UNL     1       6.161  -7.831  -3.101  0.00  0.00    +0.003 A 
ATOM     35  C   UNL     1       6.741  -6.588  -2.843  0.00  0.00    +0.010 A 
ATOM     36  C   UNL     1       7.943  -6.269  -3.410  0.00  0.00    +0.001 A 
ATOM     37  C   UNL     1       8.591  -7.171  -4.242  0.00  0.00    +0.002 A 
ATOM     38  C   UNL     1       8.041  -8.408  -4.502  0.00  0.00    +0.026 A 
ENDBRANCH  28  29
ENDBRANCH   5  28
TORSDOF 6
