REMARK  Name = ZINC58846496
REMARK  9 active torsions:
REMARK  status: ('A' for Active; 'I' for Inactive)
REMARK    1  A    between atoms: C_1  and  C_2
REMARK    2  A    between atoms: C_6  and  C_39
REMARK    3  A    between atoms: C_7  and  N_8
REMARK    4  A    between atoms: N_8  and  S_9
REMARK    5  A    between atoms: S_9  and  C_12
REMARK    6  A    between atoms: C_25  and  C_28
REMARK    7  A    between atoms: C_31  and  O_37
REMARK    8  A    between atoms: C_32  and  N_34
REMARK    9  A    between atoms: O_37  and  C_38
REMARK                            x       y       z     vdW  Elec       q    Type
REMARK                         _______ _______ _______ _____ _____    ______ ____
ROOT
ATOM      1  C   UNL     1       1.568  -1.491   4.033  0.00  0.00    +0.109 A 
ATOM      2  C   UNL     1       1.914  -2.759   3.602  0.00  0.00    +0.030 A 
ATOM      3  C   UNL     1       3.213  -3.201   3.747  0.00  0.00    +0.025 A 
ATOM      4  C   UNL     1       4.172  -2.374   4.323  0.00  0.00    +0.031 A 
ATOM      5  C   UNL     1       3.830  -1.098   4.744  0.00  0.00    -0.018 A 
ATOM      6  C   UNL     1       2.520  -0.665   4.596  0.00  0.00    +0.034 A 
ATOM      7  C   UNL     1       4.838  -0.169   5.329  0.00  0.00    +0.049 C 
ATOM      8  C   UNL     1       4.708  -0.059   6.827  0.00  0.00    -0.023 C 
ATOM      9  C   UNL     1       5.890   0.062   7.377  0.00  0.00    -0.030 C 
ATOM     10  C   UNL     1       6.979   0.045   6.327  0.00  0.00    +0.033 C 
ATOM     11  C   UNL     1       6.291  -0.577   5.090  0.00  0.00    +0.029 C 
ATOM     12  C   UNL     1       6.517  -2.075   5.128  0.00  0.00    +0.105 C 
ATOM     13  N   UNL     1       5.472  -2.840   4.479  0.00  0.00    -0.336 N 
ATOM     14  H   UNL     1       5.684  -3.730   4.159  0.00  0.00    +0.147 HD
ENDROOT
BRANCH  12  15
ATOM     15  C   UNL     1       6.642  -2.504   6.566  0.00  0.00    -0.025 A 
ATOM     16  C   UNL     1       5.506  -2.685   7.334  0.00  0.00    +0.009 A 
ATOM     17  C   UNL     1       5.617  -3.079   8.653  0.00  0.00    +0.048 A 
ATOM     18  C   UNL     1       6.871  -3.294   9.208  0.00  0.00    +0.150 A 
ATOM     19  C   UNL     1       8.009  -3.113   8.436  0.00  0.00    +0.168 A 
ATOM     20  C   UNL     1       7.892  -2.723   7.116  0.00  0.00    +0.042 A 
BRANCH  19  21
ATOM     21  N   UNL     1       9.347  -3.341   9.025  0.00  0.00    +0.060 N 
ATOM     22  O   UNL     1      10.339  -3.182   8.352  0.00  0.00    -0.126 OA
ATOM     23  O   UNL     1       9.449  -3.685  10.179  0.00  0.00    -0.126 OA
ENDBRANCH  19  21
BRANCH  18  24
ATOM     24  O   UNL     1       6.983  -3.681  10.506  0.00  0.00    -0.493 OA
ATOM     25  C   UNL     1       5.769  -3.848  11.241  0.00  0.00    +0.277 C 
ENDBRANCH  18  24
ENDBRANCH  12  15
BRANCH   1  26
ATOM     26  S   UNL     1      -0.092  -0.927   3.858  0.00  0.00    +0.072 S 
ATOM     27  O   UNL     1      -0.316   0.007   4.906  0.00  0.00    -0.150 OA
ATOM     28  O   UNL     1      -0.898  -2.084   3.684  0.00  0.00    -0.150 OA
BRANCH  26  29
ATOM     29  N   UNL     1      -0.172  -0.075   2.440  0.00  0.00    -0.216 N 
ATOM     30  H   UNL     1      -0.346   0.879   2.456  0.00  0.00    +0.174 HD
BRANCH  29  37
ATOM     31  C   UNL     1       2.189   0.487   0.955  0.00  0.00    +0.046 C 
ATOM     32  C   UNL     1       1.149  -0.486   0.463  0.00  0.00    -0.028 A 
ATOM     33  C   UNL     1       1.329  -1.141  -0.740  0.00  0.00    +0.005 A 
ATOM     34  C   UNL     1       0.376  -2.034  -1.193  0.00  0.00    +0.001 A 
ATOM     35  C   UNL     1      -0.761  -2.276  -0.444  0.00  0.00    +0.005 A 
ATOM     36  C   UNL     1      -0.948  -1.625   0.760  0.00  0.00    -0.028 A 
ATOM     37  C   UNL     1       0.011  -0.731   1.220  0.00  0.00    +0.054 A 
ATOM     38  C   UNL     1      -2.187  -1.889   1.576  0.00  0.00    +0.046 C 
ENDBRANCH  29  37
ENDBRANCH  26  29
ENDBRANCH   1  26
TORSDOF 6
