REMARK  Name = ZINC16162051
REMARK  14 active torsions:
REMARK  status: ('A' for Active; 'I' for Inactive)
REMARK    1  A    between atoms: C_1  and  C_2
REMARK    2  A    between atoms: C_2  and  C_3
REMARK    3  A    between atoms: C_6  and  S_9
REMARK    4  A    between atoms: S_9  and  N_12
REMARK    5  A    between atoms: N_12  and  C_13
REMARK    6  A    between atoms: C_13  and  C_14
REMARK    7  A    between atoms: C_14  and  C_35
REMARK    8  A    between atoms: C_16  and  N_23
REMARK    9  A    between atoms: C_19  and  C_21
REMARK   10  A    between atoms: C_19  and  C_22
REMARK   11  A    between atoms: N_23  and  S_24
REMARK   12  A    between atoms: S_24  and  C_27
REMARK   13  A    between atoms: C_30  and  C_33
REMARK   14  A    between atoms: C_33  and  C_34
REMARK                            x       y       z     vdW  Elec       q    Type
REMARK                         _______ _______ _______ _____ _____    ______ ____
ROOT
ATOM      1  C   UNL     1      -8.323   1.729   4.024  0.00  0.00    -0.016 C 
ATOM      2  C   UNL     1      -9.630   1.040   3.647  0.00  0.00    +0.028 C 
ATOM      3  C   UNL     1     -10.739   1.409   4.631  0.00  0.00    +0.078 C 
ATOM      4  C   UNL     1     -10.970   2.917   4.571  0.00  0.00    +0.026 C 
ATOM      5  C   UNL     1      -9.711   3.674   4.979  0.00  0.00    -0.033 C 
ATOM      6  C   UNL     1      -8.484   3.227   4.207  0.00  0.00    +0.014 C 
ATOM      7  C   UNL     1      -9.946   5.170   4.673  0.00  0.00    +0.011 C 
ATOM      8  C   UNL     1      -9.491   3.547   6.489  0.00  0.00    +0.011 C 
ATOM      9  C   UNL     1      -7.731   1.080   5.278  0.00  0.00    +0.012 C 
ENDROOT
BRANCH   3  10
ATOM     10  N   UNL     1     -11.975   0.717   4.242  0.00  0.00    -0.187 NA
ATOM     11  H   UNL     1     -12.177   0.576   3.304  0.00  0.00    +0.148 HD
BRANCH  10  12
ATOM     12  S   UNL     1     -13.024   0.180   5.405  0.00  0.00    +0.059 S 
ATOM     13  O   UNL     1     -14.120  -0.413   4.721  0.00  0.00    -0.153 OA
ATOM     14  O   UNL     1     -12.245  -0.531   6.357  0.00  0.00    -0.153 OA
BRANCH  12  15
ATOM     15  C   UNL     1     -13.657   1.601   6.232  0.00  0.00    +0.105 A 
ATOM     16  C   UNL     1     -13.007   2.098   7.347  0.00  0.00    +0.029 A 
ATOM     17  C   UNL     1     -13.502   3.215   7.994  0.00  0.00    +0.005 A 
ATOM     18  C   UNL     1     -14.650   3.830   7.531  0.00  0.00    -0.048 A 
ATOM     19  C   UNL     1     -15.302   3.330   6.420  0.00  0.00    +0.005 A 
ATOM     20  C   UNL     1     -14.806   2.215   5.771  0.00  0.00    +0.029 A 
BRANCH  18  21
ATOM     21  C   UNL     1     -15.191   5.046   8.239  0.00  0.00    +0.032 C 
ATOM     22  C   UNL     1     -16.171   4.608   9.329  0.00  0.00    +0.009 C 
ENDBRANCH  18  21
ENDBRANCH  12  15
ENDBRANCH  10  12
ENDBRANCH   3  10
BRANCH   1  23
ATOM     23  C   UNL     1      -7.322   1.496   2.869  0.00  0.00    +0.112 C 
BRANCH  23  24
ATOM     24  N   UNL     1      -7.109   0.057   2.692  0.00  0.00    -0.189 NA
ATOM     25  H   UNL     1      -7.389  -0.564   3.382  0.00  0.00    +0.148 HD
BRANCH  24  26
ATOM     26  S   UNL     1      -6.390  -0.508   1.311  0.00  0.00    +0.058 S 
ATOM     27  O   UNL     1      -7.059   0.110   0.222  0.00  0.00    -0.153 OA
ATOM     28  O   UNL     1      -6.301  -1.920   1.449  0.00  0.00    -0.153 OA
BRANCH  26  32
ATOM     29  C   UNL     1      -2.143   1.058   1.278  0.00  0.00    -0.048 A 
ATOM     30  C   UNL     1      -3.156   1.797   0.698  0.00  0.00    +0.005 A 
ATOM     31  C   UNL     1      -4.453   1.316   0.703  0.00  0.00    +0.029 A 
ATOM     32  C   UNL     1      -4.737   0.101   1.298  0.00  0.00    +0.105 A 
ATOM     33  C   UNL     1      -3.724  -0.636   1.883  0.00  0.00    +0.029 A 
ATOM     34  C   UNL     1      -2.427  -0.158   1.872  0.00  0.00    +0.005 A 
BRANCH  29  36
ATOM     35  C   UNL     1      -0.013   1.086   0.008  0.00  0.00    +0.009 C 
ATOM     36  C   UNL     1      -0.729   1.579   1.267  0.00  0.00    +0.032 C 
ENDBRANCH  29  36
ENDBRANCH  26  32
ENDBRANCH  24  26
ENDBRANCH  23  24
ENDBRANCH   1  23
TORSDOF 9
