REMARK  Name = ZINC19707618
REMARK  5 active torsions:
REMARK  status: ('A' for Active; 'I' for Inactive)
REMARK    1  A    between atoms: C_1  and  C_2
REMARK    2  A    between atoms: C_2  and  C_3
REMARK    3  A    between atoms: C_3  and  N_4
REMARK    4  A    between atoms: N_14  and  C_19
REMARK    5  A    between atoms: N_17  and  N_18
REMARK                            x       y       z     vdW  Elec       q    Type
REMARK                         _______ _______ _______ _____ _____    ______ ____
ROOT
ATOM      1  N   UNL     1      -8.535   0.538   0.758  0.00  0.00    -0.297 NA
ATOM      2  C   UNL     1      -8.502   1.070  -0.612  0.00  0.00    +0.089 C 
ATOM      3  C   UNL     1      -7.136   1.697  -0.899  0.00  0.00    +0.052 C 
ATOM      4  C   UNL     1      -6.058   0.677  -0.541  0.00  0.00    -0.020 A 
ATOM      5  C   UNL     1      -6.362  -0.370   0.256  0.00  0.00    +0.010 A 
ATOM      6  S   UNL     1      -4.853  -1.284   0.408  0.00  0.00    -0.072 S 
ATOM      7  C   UNL     1      -3.815  -0.254  -0.599  0.00  0.00    +0.118 A 
ATOM      8  C   UNL     1      -4.680   0.770  -1.022  0.00  0.00    +0.076 A 
ATOM      9  C   UNL     1      -4.098   1.766  -1.868  0.00  0.00    +0.268 A 
ATOM     10  O   UNL     1      -4.772   2.693  -2.284  0.00  0.00    -0.266 OA
ATOM     11  N   UNL     1      -2.798   1.667  -2.197  0.00  0.00    -0.248 N 
ATOM     12  C   UNL     1      -2.027   0.636  -1.741  0.00  0.00    +0.218 A 
ATOM     13  N   UNL     1      -2.539  -0.297  -0.966  0.00  0.00    -0.207 NA
ATOM     14  N   UNL     1      -0.704   0.569  -2.099  0.00  0.00    -0.253 N 
ATOM     15  C   UNL     1      -7.696  -0.670   0.866  0.00  0.00    +0.127 C 
ATOM     16  H   UNL     1      -0.289   1.297  -2.812  0.00  0.00    +0.169 HD
ENDROOT
BRANCH  11  17
ATOM     17  C   UNL     1      -2.222   2.641  -3.025  0.00  0.00    +0.053 A 
ATOM     18  C   UNL     1      -1.638   3.770  -2.468  0.00  0.00    +0.026 A 
ATOM     19  C   UNL     1      -1.067   4.726  -3.286  0.00  0.00    +0.002 A 
ATOM     20  C   UNL     1      -1.087   4.563  -4.659  0.00  0.00    +0.000 A 
ATOM     21  C   UNL     1      -1.673   3.442  -5.217  0.00  0.00    +0.002 A 
ATOM     22  C   UNL     1      -2.240   2.480  -4.404  0.00  0.00    +0.026 A 
ENDBRANCH  11  17
BRANCH  14  23
ATOM     23  N   UNL     1       0.099  -0.402  -1.570  0.00  0.00    -0.254 NA
ATOM     24  H   UNL     1       1.117  -0.295  -1.972  0.00  0.00    +0.140 HD
ATOM     25  H   UNL     1       0.124  -0.300  -0.475  0.00  0.00    +0.140 HD
ENDBRANCH  14  23
BRANCH   1  26
ATOM     26  C   UNL     1      -9.914   0.261   1.182  0.00  0.00    +0.084 C 
BRANCH  26  28
ATOM     27  C   UNL     1     -11.997  -1.010   0.645  0.00  0.00    +0.005 C 
ATOM     28  C   UNL     1     -10.561  -0.721   0.203  0.00  0.00    +0.012 C 
ENDBRANCH  26  28
ENDBRANCH   1  26
TORSDOF 4
