REMARK  Name = ZINC12250168
REMARK  11 active torsions:
REMARK  status: ('A' for Active; 'I' for Inactive)
REMARK    1  A    between atoms: C_1  and  C_2
REMARK    2  A    between atoms: C_2  and  C_3
REMARK    3  A    between atoms: C_6  and  N_9
REMARK    4  A    between atoms: C_10  and  C_12
REMARK    5  A    between atoms: C_13  and  C_38
REMARK    6  A    between atoms: C_15  and  S_26
REMARK    7  A    between atoms: C_16  and  C_24
REMARK    8  A    between atoms: C_17  and  C_19
REMARK    9  A    between atoms: S_26  and  C_27
REMARK   10  A    between atoms: C_27  and  C_28
REMARK   11  A    between atoms: N_30  and  C_31
REMARK                            x       y       z     vdW  Elec       q    Type
REMARK                         _______ _______ _______ _____ _____    ______ ____
ROOT
ATOM      1  C   UNL     1      10.679  -2.759  -0.380  0.00  0.00    +0.047 C 
ATOM      2  C   UNL     1       9.488  -3.018   0.183  0.00  0.00    +0.015 C 
ATOM      3  N   UNL     1       8.399  -2.236  -0.082  0.00  0.00    -0.312 N 
ATOM      4  C   UNL     1       8.559  -0.986  -0.636  0.00  0.00    +0.080 C 
ATOM      5  C   UNL     1       9.729  -0.644  -1.240  0.00  0.00    +0.072 C 
ATOM      6  C   UNL     1      10.870  -1.616  -1.335  0.00  0.00    +0.134 C 
ATOM      7  C   UNL     1       9.351  -4.184   1.127  0.00  0.00    +0.061 C 
ATOM      8  H   UNL     1       7.388  -2.605   0.148  0.00  0.00    +0.152 HD
ENDROOT
BRANCH   6   9
ATOM      9  C   UNL     1      12.157  -0.904  -1.005  0.00  0.00    +0.118 A 
ATOM     10  C   UNL     1      13.194  -0.725  -1.843  0.00  0.00    +0.045 A 
ATOM     11  C   UNL     1      14.181  -0.012  -1.125  0.00  0.00    +0.041 A 
ATOM     12  C   UNL     1      13.689   0.202   0.108  0.00  0.00    +0.195 A 
ATOM     13  O   UNL     1      12.460  -0.335   0.173  0.00  0.00    -0.467 OA
ENDBRANCH   6   9
BRANCH   1  15
ATOM     14  N   UNL     1      12.421  -3.441   1.113  0.00  0.00    -0.282 N 
ATOM     15  C   UNL     1      11.784  -3.586  -0.066  0.00  0.00    +0.247 C 
ATOM     16  O   UNL     1      12.160  -4.429  -0.861  0.00  0.00    -0.270 OA
ATOM     17  H   UNL     1      12.014  -2.763   1.878  0.00  0.00    +0.155 HD
BRANCH  14  21
ATOM     18  C   UNL     1      15.927  -5.561   1.863  0.00  0.00    -0.048 A 
ATOM     19  C   UNL     1      15.075  -5.246   2.905  0.00  0.00    +0.005 A 
ATOM     20  C   UNL     1      13.912  -4.543   2.660  0.00  0.00    +0.023 A 
ATOM     21  C   UNL     1      13.598  -4.153   1.365  0.00  0.00    +0.034 A 
ATOM     22  C   UNL     1      14.453  -4.476   0.319  0.00  0.00    +0.023 A 
ATOM     23  C   UNL     1      15.617  -5.174   0.572  0.00  0.00    +0.005 A 
BRANCH  18  25
ATOM     24  C   UNL     1      16.918  -7.828   2.023  0.00  0.00    +0.009 C 
ATOM     25  C   UNL     1      17.196  -6.328   2.134  0.00  0.00    +0.032 C 
ENDBRANCH  18  25
ENDBRANCH  14  21
ENDBRANCH   1  15
BRANCH   5  26
ATOM     26  C   UNL     1       9.875   0.668  -1.796  0.00  0.00    +0.098 C 
ATOM     27  N   UNL     1       9.991   1.708  -2.236  0.00  0.00    -0.191 NA
ENDBRANCH   5  26
BRANCH   4  28
ATOM     28  S   UNL     1       7.242   0.182  -0.555  0.00  0.00    -0.100 S 
BRANCH  28  29
ATOM     29  C   UNL     1       6.004  -0.801   0.325  0.00  0.00    +0.171 C 
BRANCH  29  30
ATOM     30  C   UNL     1       4.753   0.019   0.514  0.00  0.00    +0.227 C 
ATOM     31  O   UNL     1       4.704   1.156   0.095  0.00  0.00    -0.275 OA
ATOM     32  N   UNL     1       3.689  -0.512   1.149  0.00  0.00    -0.285 N 
ATOM     33  H   UNL     1       3.766  -1.505   1.614  0.00  0.00    +0.155 HD
BRANCH  32  34
ATOM     34  C   UNL     1       2.486   0.202   1.215  0.00  0.00    +0.034 A 
ATOM     35  C   UNL     1       2.068   0.961   0.131  0.00  0.00    +0.026 A 
ATOM     36  C   UNL     1       0.881   1.665   0.198  0.00  0.00    +0.040 A 
ATOM     37  C   UNL     1       0.109   1.613   1.347  0.00  0.00    +0.124 A 
ATOM     38  C   UNL     1       0.525   0.857   2.429  0.00  0.00    +0.040 A 
ATOM     39  C   UNL     1       1.710   0.151   2.365  0.00  0.00    +0.026 A 
ATOM     40  F   UNL     1      -1.048   2.307   1.413  0.00  0.00    -0.205 F 
ENDBRANCH  32  34
ENDBRANCH  29  30
ENDBRANCH  28  29
ENDBRANCH   4  28
TORSDOF 9
