REMARK  Name = ZINC16022144
REMARK  7 active torsions:
REMARK  status: ('A' for Active; 'I' for Inactive)
REMARK    1  A    between atoms: C_1  and  C_2
REMARK    2  A    between atoms: C_2  and  C_3
REMARK    3  A    between atoms: C_2  and  C_4
REMARK    4  A    between atoms: C_4  and  C_5
REMARK    5  A    between atoms: N_13  and  C_16
REMARK    6  A    between atoms: C_16  and  C_17
REMARK    7  A    between atoms: C_17  and  C_18
REMARK                            x       y       z     vdW  Elec       q    Type
REMARK                         _______ _______ _______ _____ _____    ______ ____
ROOT
ATOM      1  C   UNL     1      -2.135  -0.131  -1.286  0.00  0.00    +0.068 C 
ATOM      2  C   UNL     1      -3.612  -0.580  -1.260  0.00  0.00    +0.107 C 
ATOM      3  C   UNL     1      -3.918  -1.024  -2.717  0.00  0.00    +0.122 C 
ATOM      4  C   UNL     1      -4.931  -0.005  -3.187  0.00  0.00    +0.228 C 
ATOM      5  O   UNL     1      -5.439   0.021  -4.287  0.00  0.00    -0.275 OA
ATOM      6  N   UNL     1      -5.180   0.862  -2.199  0.00  0.00    -0.241 N 
ATOM      7  C   UNL     1      -4.495   0.631  -1.055  0.00  0.00    +0.227 C 
ATOM      8  O   UNL     1      -4.567   1.280  -0.034  0.00  0.00    -0.275 OA
ATOM      9  C   UNL     1      -2.592  -0.842  -3.465  0.00  0.00    +0.136 C 
ATOM     10  N   UNL     1      -1.536  -0.850  -2.442  0.00  0.00    -0.295 NA
ATOM     11  C   UNL     1      -2.388  -1.916  -4.495  0.00  0.00    +0.006 A 
ATOM     12  C   UNL     1      -2.314  -3.290  -4.430  0.00  0.00    +0.046 A 
ATOM     13  C   UNL     1      -2.113  -4.029  -5.584  0.00  0.00    +0.124 A 
ATOM     14  C   UNL     1      -1.987  -3.381  -6.802  0.00  0.00    +0.040 A 
ATOM     15  C   UNL     1      -2.061  -2.006  -6.870  0.00  0.00    +0.026 A 
ATOM     16  C   UNL     1      -2.264  -1.256  -5.713  0.00  0.00    +0.039 A 
ATOM     17  N   UNL     1      -2.373   0.125  -5.528  0.00  0.00    -0.283 N 
ATOM     18  C   UNL     1      -2.567   0.450  -4.235  0.00  0.00    +0.243 C 
ATOM     19  O   UNL     1      -2.698   1.567  -3.781  0.00  0.00    -0.273 OA
ATOM     20  F   UNL     1      -2.039  -5.376  -5.522  0.00  0.00    -0.205 F 
ATOM     21  H   UNL     1      -0.705  -0.380  -2.768  0.00  0.00    +0.123 HD
ATOM     22  H   UNL     1      -2.315   0.774  -6.247  0.00  0.00    +0.155 HD
ENDROOT
BRANCH   1  23
ATOM     23  C   UNL     1      -1.433  -0.534   0.013  0.00  0.00    +0.022 C 
BRANCH  23  25
ATOM     24  C   UNL     1      -0.019   1.526   0.010  0.00  0.00    +0.007 C 
ATOM     25  C   UNL     1       0.002  -0.004   0.002  0.00  0.00    -0.016 C 
ATOM     26  C   UNL     1       0.742  -0.511   1.242  0.00  0.00    +0.007 C 
ENDBRANCH  23  25
ENDBRANCH   1  23
BRANCH   6  27
ATOM     27  C   UNL     1      -6.124   1.974  -2.340  0.00  0.00    +0.121 C 
BRANCH  27  28
ATOM     28  C   UNL     1      -7.520   1.514  -1.913  0.00  0.00    +0.054 C 
BRANCH  28  29
ATOM     29  C   UNL     1      -8.491   2.656  -2.058  0.00  0.00    -0.046 A 
ATOM     30  C   UNL     1      -8.701   3.523  -1.002  0.00  0.00    +0.004 A 
ATOM     31  C   UNL     1      -9.592   4.572  -1.134  0.00  0.00    +0.000 A 
ATOM     32  C   UNL     1     -10.273   4.753  -2.323  0.00  0.00    +0.000 A 
ATOM     33  C   UNL     1     -10.063   3.887  -3.380  0.00  0.00    +0.000 A 
ATOM     34  C   UNL     1      -9.169   2.841  -3.248  0.00  0.00    +0.004 A 
ENDBRANCH  28  29
ENDBRANCH  27  28
ENDBRANCH   6  27
TORSDOF 5
