REMARK  Name = ZINC02192306
REMARK  7 active torsions:
REMARK  status: ('A' for Active; 'I' for Inactive)
REMARK    1  A    between atoms: C_3  and  C_6
REMARK    2  A    between atoms: C_6  and  N_39
REMARK    3  A    between atoms: C_7  and  C_25
REMARK    4  A    between atoms: C_7  and  N_39
REMARK    5  A    between atoms: N_10  and  C_14
REMARK    6  A    between atoms: C_17  and  O_20
REMARK    7  A    between atoms: O_20  and  C_21
REMARK                            x       y       z     vdW  Elec       q    Type
REMARK                         _______ _______ _______ _____ _____    ______ ____
ROOT
ATOM      1  C   UNL     1      -0.615   1.477  -1.196  0.00  0.00    +0.177 C 
ATOM      2  C   UNL     1       0.295   0.997  -2.309  0.00  0.00    +0.242 C 
ATOM      3  O   UNL     1       1.467   1.265  -2.464  0.00  0.00    -0.274 OA
ATOM      4  N   UNL     1      -0.471   0.212  -3.093  0.00  0.00    -0.194 N 
ATOM      5  C   UNL     1      -1.725   0.130  -2.633  0.00  0.00    +0.312 C 
ATOM      6  O   UNL     1      -2.600  -0.521  -3.170  0.00  0.00    -0.252 OA
ATOM      7  N   UNL     1      -1.909   0.847  -1.510  0.00  0.00    -0.294 N 
ATOM      8  H   UNL     1      -2.732   0.932  -1.005  0.00  0.00    +0.149 HD
ENDROOT
BRANCH   4   9
ATOM      9  C   UNL     1      -0.010  -0.439  -4.247  0.00  0.00    +0.046 A 
ATOM     10  C   UNL     1      -0.836  -1.330  -4.919  0.00  0.00    +0.027 A 
ATOM     11  C   UNL     1      -0.384  -1.966  -6.058  0.00  0.00    +0.048 A 
ATOM     12  C   UNL     1       0.900  -1.724  -6.525  0.00  0.00    +0.130 A 
ATOM     13  C   UNL     1       1.728  -0.838  -5.851  0.00  0.00    +0.048 A 
ATOM     14  C   UNL     1       1.275  -0.197  -4.715  0.00  0.00    +0.027 A 
BRANCH  12  15
ATOM     15  O   UNL     1       1.346  -2.355  -7.643  0.00  0.00    -0.406 OA
BRANCH  15  16
ATOM     16  C   UNL     1       0.441  -3.254  -8.286  0.00  0.00    +0.575 C 
ATOM     17  F   UNL     1      -0.706  -2.557  -8.681  0.00  0.00    -0.133 F 
ATOM     18  F   UNL     1       1.057  -3.812  -9.411  0.00  0.00    -0.133 F 
ATOM     19  F   UNL     1       0.084  -4.273  -7.397  0.00  0.00    -0.133 F 
ENDBRANCH  15  16
ENDBRANCH  12  15
ENDBRANCH   4   9
BRANCH   1  20
ATOM     20  C   UNL     1      -0.735   3.002  -1.218  0.00  0.00    +0.404 C 
ATOM     21  F   UNL     1       0.538   3.572  -1.111  0.00  0.00    -0.170 F 
ATOM     22  F   UNL     1      -1.328   3.405  -2.419  0.00  0.00    -0.170 F 
ATOM     23  F   UNL     1      -1.525   3.423  -0.143  0.00  0.00    -0.170 F 
ENDBRANCH   1  20
BRANCH   1  24
ATOM     24  N   UNL     1      -0.125   1.011   0.116  0.00  0.00    +0.410 N 
ATOM     25  H   UNL     1      -0.772   1.323   0.849  0.00  0.00    -0.081 HD
ATOM     26  H   UNL     1      -0.078  -0.015   0.115  0.00  0.00    -0.081 HD
BRANCH  24  27
ATOM     27  C   UNL     1       1.217   1.560   0.386  0.00  0.00    -0.003 C 
BRANCH  27  30
ATOM     28  C   UNL     1       2.769  -0.377   3.111  0.00  0.00    +0.041 A 
ATOM     29  C   UNL     1       2.482  -0.177   1.741  0.00  0.00    +0.042 A 
ATOM     30  C   UNL     1       1.754   0.951   1.656  0.00  0.00    +0.088 A 
ATOM     31  O   UNL     1       1.591   1.445   2.894  0.00  0.00    -0.470 OA
ATOM     32  C   UNL     1       2.199   0.641   3.781  0.00  0.00    +0.195 A 
ENDBRANCH  27  30
ENDBRANCH  24  27
ENDBRANCH   1  24
TORSDOF 7
