REMARK  Name = ZINC38320358
REMARK  9 active torsions:
REMARK  status: ('A' for Active; 'I' for Inactive)
REMARK    1  A    between atoms: C_1  and  C_2
REMARK    2  A    between atoms: C_2  and  C_4
REMARK    3  A    between atoms: C_2  and  N_21
REMARK    4  A    between atoms: C_10  and  C_15
REMARK    5  A    between atoms: N_21  and  C_22
REMARK    6  A    between atoms: C_22  and  C_23
REMARK    7  A    between atoms: C_23  and  C_24
REMARK    8  A    between atoms: C_24  and  C_25
REMARK    9  A    between atoms: C_24  and  C_26
REMARK                            x       y       z     vdW  Elec       q    Type
REMARK                         _______ _______ _______ _____ _____    ______ ____
ROOT
ATOM      1  C   UNL     1      -1.412  -0.526   0.013  0.00  0.00    +0.097 A 
ATOM      2  N   UNL     1      -2.280  -0.119  -0.949  0.00  0.00    -0.312 N 
ATOM      3  H   UNL     1      -1.979   0.502  -1.630  0.00  0.00    +0.170 HD
ATOM      4  C   UNL     1      -3.551  -0.562  -0.975  0.00  0.00    +0.260 A 
ATOM      5  O   UNL     1      -4.318  -0.188  -1.846  0.00  0.00    -0.267 OA
ATOM      6  C   UNL     1      -3.988  -1.478   0.034  0.00  0.00    +0.080 A 
ATOM      7  C   UNL     1      -5.297  -2.093   0.218  0.00  0.00    +0.004 A 
ATOM      8  C   UNL     1      -5.478  -2.941   1.259  0.00  0.00    +0.056 A 
ATOM      9  S   UNL     1      -3.885  -2.960   2.058  0.00  0.00    -0.076 S 
ATOM     10  C   UNL     1      -3.021  -1.841   0.986  0.00  0.00    +0.116 A 
ATOM     11  N   UNL     1      -1.779  -1.365   0.944  0.00  0.00    -0.228 NA
ENDROOT
BRANCH   7  12
ATOM     12  C   UNL     1      -6.409  -1.796  -0.716  0.00  0.00    -0.017 A 
ATOM     13  C   UNL     1      -6.723  -0.474  -1.032  0.00  0.00    +0.008 A 
ATOM     14  C   UNL     1      -7.759  -0.204  -1.903  0.00  0.00    +0.001 A 
ATOM     15  C   UNL     1      -8.485  -1.240  -2.462  0.00  0.00    +0.000 A 
ATOM     16  C   UNL     1      -8.177  -2.553  -2.153  0.00  0.00    +0.001 A 
ATOM     17  C   UNL     1      -7.140  -2.836  -1.287  0.00  0.00    +0.008 A 
ENDBRANCH   7  12
BRANCH   1  19
ATOM     18  C   UNL     1      -0.019   1.526   0.010  0.00  0.00    -0.006 C 
ATOM     19  C   UNL     1       0.002  -0.004   0.002  0.00  0.00    -0.007 C 
BRANCH  19  20
ATOM     20  N   UNL     1       0.713  -0.491   1.192  0.00  0.00    +0.385 N 
ATOM     21  H   UNL     1       0.290  -0.099   2.020  0.00  0.00    -0.085 HD
ATOM     22  H   UNL     1       0.655  -1.497   1.230  0.00  0.00    -0.085 HD
BRANCH  20  23
ATOM     23  C   UNL     1       2.122  -0.083   1.122  0.00  0.00    -0.081 C 
BRANCH  23  24
ATOM     24  C   UNL     1       2.862  -0.589   2.361  0.00  0.00    -0.016 C 
BRANCH  24  25
ATOM     25  C   UNL     1       4.330  -0.164   2.288  0.00  0.00    -0.019 C 
ATOM     26  C   UNL     1       4.423   1.361   2.357  0.00  0.00    +0.007 C 
ATOM     27  C   UNL     1       5.097  -0.775   3.463  0.00  0.00    +0.007 C 
ENDBRANCH  24  25
ENDBRANCH  23  24
ENDBRANCH  20  23
ENDBRANCH  19  20
ENDBRANCH   1  19
TORSDOF 6
