REMARK  Name = ZINC39630695
REMARK  11 active torsions:
REMARK  status: ('A' for Active; 'I' for Inactive)
REMARK    1  A    between atoms: C_1  and  C_2
REMARK    2  A    between atoms: C_2  and  C_3
REMARK    3  A    between atoms: C_2  and  C_4
REMARK    4  A    between atoms: C_2  and  C_32
REMARK    5  A    between atoms: C_4  and  N_5
REMARK    6  A    between atoms: C_6  and  C_8
REMARK    7  A    between atoms: C_19  and  C_21
REMARK    8  A    between atoms: C_24  and  C_28
REMARK    9  A    between atoms: C_32  and  N_33
REMARK   10  A    between atoms: N_33  and  C_34
REMARK   11  A    between atoms: N_33  and  C_35
REMARK                            x       y       z     vdW  Elec       q    Type
REMARK                         _______ _______ _______ _____ _____    ______ ____
ROOT
ATOM      1  C   UNL     1      -1.661  -1.182   4.123  0.00  0.00    +0.100 C 
ATOM      2  C   UNL     1      -2.130   0.289   4.179  0.00  0.00    +0.121 C 
ATOM      3  N   UNL     1      -3.603   0.207   4.320  0.00  0.00    -0.296 N 
ATOM      4  C   UNL     1      -3.822  -0.930   5.246  0.00  0.00    +0.115 C 
ATOM      5  C   UNL     1      -2.772  -1.978   4.827  0.00  0.00    -0.004 C 
ATOM      6  C   UNL     1      -3.391  -2.987   3.864  0.00  0.00    -0.010 C 
ATOM      7  C   UNL     1      -4.454  -3.805   4.602  0.00  0.00    -0.082 C 
ATOM      8  N   UNL     1      -3.837  -4.499   5.739  0.00  0.00    +0.379 N 
ATOM      9  C   UNL     1      -3.327  -3.520   6.706  0.00  0.00    -0.082 C 
ATOM     10  C   UNL     1      -2.216  -2.689   6.057  0.00  0.00    -0.010 C 
ATOM     11  C   UNL     1      -4.533   0.990   3.738  0.00  0.00    +0.247 C 
ATOM     12  O   UNL     1      -4.191   1.923   3.038  0.00  0.00    -0.270 OA
ATOM     13  H   UNL     1      -4.526  -5.085   6.188  0.00  0.00    -0.086 HD
ATOM     14  H   UNL     1      -3.075  -5.072   5.409  0.00  0.00    -0.086 HD
ENDROOT
BRANCH  11  15
ATOM     15  C   UNL     1      -5.970   0.713   3.950  0.00  0.00    +0.040 A 
ATOM     16  C   UNL     1      -6.400   0.110   5.134  0.00  0.00    +0.014 A 
ATOM     17  C   UNL     1      -7.742  -0.145   5.327  0.00  0.00    +0.016 A 
ATOM     18  C   UNL     1      -8.662   0.194   4.352  0.00  0.00    +0.090 A 
ATOM     19  C   UNL     1      -8.243   0.792   3.175  0.00  0.00    +0.136 A 
ATOM     20  C   UNL     1      -6.902   1.059   2.971  0.00  0.00    +0.052 A 
ATOM     21  F   UNL     1      -9.147   1.121   2.226  0.00  0.00    -0.205 F 
BRANCH  18  22
ATOM     22  C   UNL     1     -10.126  -0.088   4.571  0.00  0.00    +0.420 C 
ATOM     23  F   UNL     1     -10.303  -0.691   5.821  0.00  0.00    -0.166 F 
ATOM     24  F   UNL     1     -10.844   1.112   4.525  0.00  0.00    -0.166 F 
ATOM     25  F   UNL     1     -10.590  -0.947   3.569  0.00  0.00    -0.166 F 
ENDBRANCH  18  22
ENDBRANCH  11  15
BRANCH   1  27
ATOM     26  N   UNL     1      -0.720  -2.677   2.391  0.00  0.00    -0.315 N 
ATOM     27  C   UNL     1      -1.518  -1.633   2.692  0.00  0.00    +0.218 C 
ATOM     28  O   UNL     1      -2.120  -1.056   1.812  0.00  0.00    -0.275 OA
ATOM     29  H   UNL     1      -0.238  -3.138   3.095  0.00  0.00    +0.149 HD
BRANCH  26  30
ATOM     30  C   UNL     1      -0.581  -3.115   1.000  0.00  0.00    +0.108 C 
BRANCH  30  32
ATOM     31  C   UNL     1       1.743  -3.897   1.479  0.00  0.00    +0.010 C 
ATOM     32  C   UNL     1       0.373  -4.309   0.934  0.00  0.00    -0.034 C 
ATOM     33  C   UNL     1      -0.186  -5.457   1.777  0.00  0.00    +0.010 C 
BRANCH  32  34
ATOM     34  C   UNL     1       0.518  -4.767  -0.518  0.00  0.00    -0.072 C 
BRANCH  34  35
ATOM     35  N   UNL     1       1.341  -5.983  -0.569  0.00  0.00    +0.376 N 
ATOM     36  C   UNL     1       0.490  -7.159  -0.339  0.00  0.00    -0.097 C 
ATOM     37  C   UNL     1       1.977  -6.090  -1.888  0.00  0.00    -0.097 C 
ATOM     38  H   UNL     1       2.052  -5.938   0.145  0.00  0.00    -0.083 HD
ENDBRANCH  34  35
ENDBRANCH  32  34
ENDBRANCH  30  32
ENDBRANCH  26  30
ENDBRANCH   1  27
TORSDOF 7
