REMARK  Name = ZINC20893878
REMARK  8 active torsions:
REMARK  status: ('A' for Active; 'I' for Inactive)
REMARK    1  A    between atoms: C_1  and  C_2
REMARK    2  A    between atoms: C_5  and  C_22
REMARK    3  A    between atoms: C_7  and  S_8
REMARK    4  A    between atoms: S_8  and  N_11
REMARK    5  A    between atoms: N_11  and  C_12
REMARK    6  A    between atoms: C_14  and  C_21
REMARK    7  A    between atoms: C_17  and  O_18
REMARK    8  A    between atoms: O_18  and  C_19
REMARK                            x       y       z     vdW  Elec       q    Type
REMARK                         _______ _______ _______ _____ _____    ______ ____
ROOT
ATOM      1  C   UNL     1       0.668  -0.196  -0.168  0.00  0.00    +0.046 C 
ATOM      2  C   UNL     1       0.470   1.294  -0.285  0.00  0.00    -0.024 A 
ATOM      3  C   UNL     1       1.410   2.064  -0.946  0.00  0.00    +0.006 A 
ATOM      4  C   UNL     1       1.234   3.428  -1.056  0.00  0.00    +0.010 A 
ATOM      5  C   UNL     1       0.108   4.030  -0.498  0.00  0.00    +0.004 A 
ATOM      6  C   UNL     1      -0.835   3.250   0.168  0.00  0.00    +0.039 A 
ATOM      7  C   UNL     1      -0.652   1.885   0.266  0.00  0.00    +0.112 A 
ENDROOT
BRANCH   5   8
ATOM      8  C   UNL     1      -0.087   5.496  -0.614  0.00  0.00    +0.095 A 
ATOM      9  C   UNL     1      -0.560   6.235   0.502  0.00  0.00    -0.011 A 
ATOM     10  C   UNL     1      -0.720   7.572   0.362  0.00  0.00    +0.024 A 
ATOM     11  C   UNL     1      -0.414   8.151  -0.894  0.00  0.00    +0.268 A 
ATOM     12  O   UNL     1      -0.550   9.351  -1.067  0.00  0.00    -0.266 OA
ATOM     13  N   UNL     1       0.026   7.368  -1.896  0.00  0.00    -0.242 N 
ATOM     14  H   UNL     1       0.262   7.810  -2.876  0.00  0.00    +0.192 HD
ATOM     15  N   UNL     1       0.184   6.103  -1.744  0.00  0.00    -0.171 NA
ATOM     16  C   UNL     1      -1.203   8.461   1.473  0.00  0.00    +0.041 C 
ATOM     17  C   UNL     1      -1.878   7.633   2.566  0.00  0.00    +0.005 C 
ATOM     18  C   UNL     1      -0.939   6.483   2.951  0.00  0.00    +0.005 C 
ATOM     19  C   UNL     1      -0.866   5.505   1.779  0.00  0.00    +0.038 C 
ENDBRANCH   5   8
BRANCH   7  20
ATOM     20  S   UNL     1      -1.847   0.895   1.101  0.00  0.00    +0.073 S 
ATOM     21  O   UNL     1      -1.131   0.088   2.025  0.00  0.00    -0.150 OA
ATOM     22  O   UNL     1      -2.890   1.772   1.504  0.00  0.00    -0.150 OA
BRANCH  20  23
ATOM     23  N   UNL     1      -2.501  -0.133  -0.021  0.00  0.00    -0.213 N 
ATOM     24  H   UNL     1      -2.313  -1.215   0.051  0.00  0.00    +0.174 HD
BRANCH  23  25
ATOM     25  C   UNL     1      -3.291   0.374  -1.059  0.00  0.00    +0.090 A 
ATOM     26  C   UNL     1      -3.038   1.637  -1.572  0.00  0.00    +0.033 A 
ATOM     27  C   UNL     1      -3.820   2.136  -2.597  0.00  0.00    -0.030 A 
ATOM     28  C   UNL     1      -4.856   1.377  -3.114  0.00  0.00    +0.047 A 
ATOM     29  C   UNL     1      -5.113   0.116  -2.607  0.00  0.00    +0.067 A 
ATOM     30  C   UNL     1      -4.330  -0.392  -1.583  0.00  0.00    +0.144 A 
ATOM     31 CL   UNL     1      -5.834   2.009  -4.401  0.00  0.00    -0.083 Cl
ATOM     32  C   UNL     1      -3.544   3.509  -3.153  0.00  0.00    +0.045 C 
BRANCH  30  33
ATOM     33  O   UNL     1      -4.579  -1.634  -1.087  0.00  0.00    -0.493 OA
ATOM     34  C   UNL     1      -5.660  -2.362  -1.673  0.00  0.00    +0.277 C 
ENDBRANCH  30  33
ENDBRANCH  23  25
ENDBRANCH  20  23
ENDBRANCH   7  20
TORSDOF 5
