REMARK  Name = ZINC14034807
REMARK  6 active torsions:
REMARK  status: ('A' for Active; 'I' for Inactive)
REMARK    1  A    between atoms: C_1  and  C_2
REMARK    2  A    between atoms: C_2  and  N_3
REMARK    3  A    between atoms: C_4  and  C_6
REMARK    4  A    between atoms: C_6  and  C_7
REMARK    5  A    between atoms: C_15  and  C_19
REMARK    6  A    between atoms: C_16  and  C_18
REMARK                            x       y       z     vdW  Elec       q    Type
REMARK                         _______ _______ _______ _____ _____    ______ ____
ROOT
ATOM      1  C   UNL     1       2.504   1.332  -0.029  0.00  0.00    +0.112 C 
ATOM      2  C   UNL     1       3.564   2.438  -0.137  0.00  0.00    +0.103 C 
ATOM      3  S   UNL     1       2.513   3.937  -0.088  0.00  0.00    -0.086 S 
ATOM      4  C   UNL     1       0.916   3.164   0.056  0.00  0.00    +0.172 A 
ATOM      5  N   UNL     1       1.129   1.819   0.069  0.00  0.00    -0.283 N 
ATOM      6  C   UNL     1       0.020   1.020   0.175  0.00  0.00    +0.258 A 
ATOM      7  O   UNL     1       0.143  -0.193   0.193  0.00  0.00    -0.267 OA
ATOM      8  C   UNL     1      -1.252   1.594   0.257  0.00  0.00    +0.035 A 
ATOM      9  C   UNL     1      -1.379   2.953   0.241  0.00  0.00    +0.049 A 
ATOM     10  N   UNL     1      -0.284   3.701   0.138  0.00  0.00    -0.228 NA
ATOM     11  C   UNL     1      -2.739   3.596   0.332  0.00  0.00    +0.066 C 
ATOM     12  C   UNL     1      -2.474   0.719   0.366  0.00  0.00    +0.051 C 
ENDROOT
BRANCH   1  13
ATOM     13  C   UNL     1       2.613   0.432  -1.261  0.00  0.00    +0.121 C 
BRANCH  13  15
ATOM     14  N   UNL     1       4.348  -0.944  -2.363  0.00  0.00    -0.316 N 
ATOM     15  C   UNL     1       3.980  -0.203  -1.300  0.00  0.00    +0.215 C 
ATOM     16  O   UNL     1       4.747  -0.047  -0.374  0.00  0.00    -0.276 OA
ATOM     17  H   UNL     1       3.735  -1.069  -3.104  0.00  0.00    +0.149 HD
BRANCH  14  19
ATOM     18  C   UNL     1       5.840  -2.341  -3.707  0.00  0.00    +0.024 C 
ATOM     19  C   UNL     1       5.677  -1.561  -2.401  0.00  0.00    +0.101 C 
ENDBRANCH  14  19
ENDBRANCH  13  15
ENDBRANCH   1  13
TORSDOF 3
