REMARK  Name = ZINC66599431
REMARK  12 active torsions:
REMARK  status: ('A' for Active; 'I' for Inactive)
REMARK    1  A    between atoms: C_1  and  C_2
REMARK    2  A    between atoms: C_2  and  C_3
REMARK    3  A    between atoms: C_3  and  C_4
REMARK    4  A    between atoms: C_4  and  N_5
REMARK    5  A    between atoms: C_10  and  C_12
REMARK    6  A    between atoms: C_12  and  N_13
REMARK    7  A    between atoms: C_19  and  C_22
REMARK    8  A    between atoms: N_24  and  C_25
REMARK    9  A    between atoms: C_25  and  C_26
REMARK   10  A    between atoms: C_26  and  C_27
REMARK   11  A    between atoms: C_27  and  C_28
REMARK   12  A    between atoms: C_27  and  C_29
REMARK                            x       y       z     vdW  Elec       q    Type
REMARK                         _______ _______ _______ _____ _____    ______ ____
ROOT
ATOM      1  N   UNL     1      -0.790  -3.767  -1.633  0.00  0.00    -0.301 N 
ATOM      2  C   UNL     1      -2.088  -4.082  -1.454  0.00  0.00    +0.302 C 
ATOM      3  O   UNL     1      -2.639  -4.849  -2.220  0.00  0.00    -0.253 OA
ATOM      4  N   UNL     1      -2.776  -3.545  -0.427  0.00  0.00    -0.286 N 
ATOM      5  C   UNL     1      -4.155  -3.968  -0.148  0.00  0.00    +0.110 C 
ATOM      6  C   UNL     1      -5.050  -2.726  -0.094  0.00  0.00    +0.032 C 
ATOM      7  C   UNL     1      -4.479  -1.734   0.922  0.00  0.00    +0.078 C 
ATOM      8  C   UNL     1      -3.078  -1.302   0.483  0.00  0.00    +0.032 C 
ATOM      9  C   UNL     1      -2.159  -2.532   0.439  0.00  0.00    +0.110 C 
ATOM     10  H   UNL     1      -0.370  -3.100  -1.067  0.00  0.00    +0.150 HD
ENDROOT
BRANCH   7  11
ATOM     11  C   UNL     1      -5.376  -0.525   1.003  0.00  0.00    +0.216 C 
ATOM     12  O   UNL     1      -6.373  -0.463   0.315  0.00  0.00    -0.276 OA
ATOM     13  N   UNL     1      -5.069   0.486   1.839  0.00  0.00    -0.315 N 
ATOM     14  H   UNL     1      -4.271   0.437   2.388  0.00  0.00    +0.149 HD
BRANCH  13  15
ATOM     15  C   UNL     1      -5.941   1.661   1.917  0.00  0.00    +0.104 C 
BRANCH  15  16
ATOM     16  C   UNL     1      -5.370   2.653   2.933  0.00  0.00    +0.022 C 
BRANCH  16  17
ATOM     17  C   UNL     1      -6.280   3.880   3.014  0.00  0.00    -0.016 C 
ATOM     18  C   UNL     1      -5.779   4.814   4.118  0.00  0.00    +0.007 C 
ATOM     19  C   UNL     1      -6.262   4.618   1.674  0.00  0.00    +0.007 C 
ENDBRANCH  16  17
ENDBRANCH  15  16
ENDBRANCH  13  15
ENDBRANCH   7  11
BRANCH   1  20
ATOM     20  C   UNL     1      -0.013  -4.432  -2.683  0.00  0.00    +0.090 C 
BRANCH  20  26
ATOM     21  N   UNL     1       1.948  -4.224  -1.233  0.00  0.00    +0.383 N 
ATOM     22  C   UNL     1       3.371  -3.873  -1.157  0.00  0.00    -0.078 C 
ATOM     23  C   UNL     1       3.547  -2.379  -1.437  0.00  0.00    -0.019 C 
ATOM     24  C   UNL     1       3.015  -2.061  -2.837  0.00  0.00    -0.003 C 
ATOM     25  C   UNL     1       1.551  -2.499  -2.928  0.00  0.00    -0.014 C 
ATOM     26  C   UNL     1       1.449  -3.989  -2.593  0.00  0.00    -0.051 C 
ATOM     27  H   UNL     1       1.428  -3.654  -0.582  0.00  0.00    -0.081 HD
BRANCH  21  28
ATOM     28  C   UNL     1       1.776  -5.641  -0.888  0.00  0.00    -0.078 C 
BRANCH  28  29
ATOM     29  C   UNL     1       2.187  -5.865   0.569  0.00  0.00    -0.019 C 
BRANCH  29  31
ATOM     30  C   UNL     1       2.419  -7.565   2.385  0.00  0.00    +0.004 C 
ATOM     31  C   UNL     1       2.007  -7.341   0.928  0.00  0.00    -0.005 C 
ENDBRANCH  29  31
ENDBRANCH  28  29
ENDBRANCH  21  28
ENDBRANCH  20  26
ENDBRANCH   1  20
TORSDOF 9
