REMARK  Name = ZINC11905254
REMARK  7 active torsions:
REMARK  status: ('A' for Active; 'I' for Inactive)
REMARK    1  A    between atoms: C_1  and  C_2
REMARK    2  A    between atoms: C_7  and  C_9
REMARK    3  A    between atoms: C_7  and  C_25
REMARK    4  A    between atoms: C_7  and  N_53
REMARK    5  A    between atoms: C_9  and  N_10
REMARK    6  A    between atoms: C_11  and  C_13
REMARK    7  A    between atoms: C_15  and  C_18
REMARK                            x       y       z     vdW  Elec       q    Type
REMARK                         _______ _______ _______ _____ _____    ______ ____
ROOT
ATOM      1  N   UNL     1       4.046  -0.856  -0.042  0.00  0.00    -0.311 N 
ATOM      2  C   UNL     1       3.496   0.374  -0.030  0.00  0.00    +0.266 C 
ATOM      3  O   UNL     1       4.208   1.359  -0.032  0.00  0.00    -0.268 OA
ATOM      4  H   UNL     1       3.478  -1.641  -0.040  0.00  0.00    +0.149 HD
ENDROOT
BRANCH   2   5
ATOM      5  C   UNL     1       2.020   0.526  -0.014  0.00  0.00    +0.168 A 
ATOM      6  C   UNL     1       1.290   1.743  -0.001  0.00  0.00    +0.086 A 
ATOM      7  C   UNL     1      -0.016   1.340   0.009  0.00  0.00    +0.168 A 
ATOM      8  O   UNL     1       0.002  -0.004   0.002  0.00  0.00    -0.354 OA
ATOM      9  N   UNL     1       1.131  -0.436  -0.011  0.00  0.00    -0.073 NA
BRANCH   7  10
ATOM     10  C   UNL     1      -1.212   2.210   0.020  0.00  0.00    +0.020 A 
ATOM     11  C   UNL     1      -1.068   3.599   0.032  0.00  0.00    +0.013 A 
ATOM     12  C   UNL     1      -2.187   4.405   0.037  0.00  0.00    +0.016 A 
ATOM     13  C   UNL     1      -3.451   3.840   0.041  0.00  0.00    +0.018 A 
ATOM     14  C   UNL     1      -3.600   2.463   0.034  0.00  0.00    +0.016 A 
ATOM     15  C   UNL     1      -2.488   1.646   0.024  0.00  0.00    +0.013 A 
ATOM     16 BR   UNL     1      -4.980   4.952   0.055  0.00  0.00    -0.050 Br
ENDBRANCH   7  10
ENDBRANCH   2   5
BRANCH   1  17
ATOM     17  C   UNL     1       5.504  -1.006  -0.057  0.00  0.00    +0.097 C 
BRANCH  17  18
ATOM     18  C   UNL     1       5.863  -2.493  -0.068  0.00  0.00    +0.016 C 
BRANCH  18  25
ATOM     19  C   UNL     1       4.146  -5.237  -4.779  0.00  0.00    +0.007 C 
ATOM     20  C   UNL     1       5.011  -4.605  -3.687  0.00  0.00    -0.018 C 
ATOM     21  C   UNL     1       4.693  -5.259  -2.340  0.00  0.00    -0.015 C 
ATOM     22  C   UNL     1       5.517  -4.582  -1.242  0.00  0.00    -0.078 C 
ATOM     23  C   UNL     1       5.535  -2.491  -2.467  0.00  0.00    -0.078 C 
ATOM     24  C   UNL     1       4.712  -3.106  -3.601  0.00  0.00    -0.015 C 
ATOM     25  N   UNL     1       5.165  -3.147  -1.194  0.00  0.00    +0.387 N 
ATOM     26  H   UNL     1       4.152  -3.057  -1.056  0.00  0.00    -0.081 HD
ENDBRANCH  18  25
BRANCH  18  27
ATOM     27  C   UNL     1       7.355  -2.648  -0.207  0.00  0.00    +0.093 A 
ATOM     28  C   UNL     1       8.218  -2.896   0.795  0.00  0.00    +0.043 A 
ATOM     29  C   UNL     1       9.507  -2.966   0.219  0.00  0.00    +0.041 A 
ATOM     30  C   UNL     1       9.356  -2.749  -1.100  0.00  0.00    +0.195 A 
ATOM     31  O   UNL     1       8.051  -2.557  -1.353  0.00  0.00    -0.469 OA
ENDBRANCH  18  27
ENDBRANCH  17  18
ENDBRANCH   1  17
TORSDOF 6
