REMARK  Name = ZINC36593649
REMARK  13 active torsions:
REMARK  status: ('A' for Active; 'I' for Inactive)
REMARK    1  A    between atoms: C_1  and  C_2
REMARK    2  A    between atoms: C_2  and  C_3
REMARK    3  A    between atoms: C_3  and  C_5
REMARK    4  A    between atoms: C_3  and  C_6
REMARK    5  A    between atoms: C_6  and  C_8
REMARK    6  A    between atoms: C_6  and  N_12
REMARK    7  A    between atoms: C_8  and  O_10
REMARK    8  A    between atoms: O_10  and  C_11
REMARK    9  A    between atoms: C_24  and  C_26
REMARK   10  A    between atoms: C_28  and  O_34
REMARK   11  A    between atoms: C_30  and  O_32
REMARK   12  A    between atoms: O_32  and  C_33
REMARK   13  A    between atoms: O_34  and  C_35
REMARK                            x       y       z     vdW  Elec       q    Type
REMARK                         _______ _______ _______ _____ _____    ______ ____
ROOT
ATOM      1  N   UNL     1      -0.012  -4.405   2.441  0.00  0.00    -0.286 N 
ATOM      2  C   UNL     1       0.910  -3.670   3.093  0.00  0.00    +0.304 C 
ATOM      3  O   UNL     1       1.323  -2.637   2.602  0.00  0.00    -0.253 OA
ATOM      4  N   UNL     1       1.375  -4.079   4.290  0.00  0.00    -0.273 N 
ATOM      5  C   UNL     1       2.297  -3.238   5.067  0.00  0.00    +0.116 C 
ATOM      6  C   UNL     1       1.613  -2.818   6.375  0.00  0.00    +0.074 C 
ATOM      7  C   UNL     1       0.939  -4.022   6.978  0.00  0.00    +0.040 A 
ATOM      8  C   UNL     1       0.647  -5.159   6.310  0.00  0.00    +0.062 A 
ATOM      9  N   UNL     1       0.053  -5.999   7.160  0.00  0.00    -0.348 N 
ATOM     10  C   UNL     1      -0.034  -5.429   8.334  0.00  0.00    +0.171 A 
ATOM     11  N   UNL     1       0.511  -4.193   8.260  0.00  0.00    -0.349 N 
ATOM     12  H   UNL     1       0.582  -3.550   8.983  0.00  0.00    +0.166 HD
ATOM     13  C   UNL     1       0.966  -5.378   4.855  0.00  0.00    +0.156 C 
ATOM     14  H   UNL     1      -0.284  -5.267   2.795  0.00  0.00    +0.151 HD
ATOM     15  H   UNL     1      -0.264  -6.889   6.942  0.00  0.00    +0.167 HD
ENDROOT
BRANCH  13  16
ATOM     16  C   UNL     1       2.092  -6.371   4.725  0.00  0.00    -0.014 A 
ATOM     17  C   UNL     1       3.280  -6.158   5.399  0.00  0.00    +0.051 A 
ATOM     18  C   UNL     1       4.319  -7.071   5.281  0.00  0.00    +0.124 A 
ATOM     19  C   UNL     1       4.164  -8.197   4.487  0.00  0.00    +0.091 A 
ATOM     20  C   UNL     1       2.972  -8.407   3.811  0.00  0.00    +0.124 A 
ATOM     21  C   UNL     1       1.934  -7.494   3.937  0.00  0.00    +0.051 A 
BRANCH  20  22
ATOM     22  O   UNL     1       2.817  -9.509   3.031  0.00  0.00    -0.495 OA
ATOM     23  C   UNL     1       3.925 -10.409   2.953  0.00  0.00    +0.277 C 
ENDBRANCH  20  22
BRANCH  18  24
ATOM     24  O   UNL     1       5.486  -6.862   5.944  0.00  0.00    -0.495 OA
ATOM     25  C   UNL     1       6.512  -7.843   5.777  0.00  0.00    +0.277 C 
ENDBRANCH  18  24
ENDBRANCH  13  16
BRANCH   1  26
ATOM     26  C   UNL     1      -0.604  -3.904   1.198  0.00  0.00    +0.186 C 
BRANCH  26  27
ATOM     27  C   UNL     1      -1.095  -5.083   0.355  0.00  0.00    +0.017 C 
ATOM     28  C   UNL     1      -2.234  -5.794   1.088  0.00  0.00    +0.010 C 
BRANCH  27  30
ATOM     29  C   UNL     1      -1.974  -5.756  -1.885  0.00  0.00    +0.004 C 
ATOM     30  C   UNL     1      -1.599  -4.569  -0.995  0.00  0.00    +0.002 C 
ENDBRANCH  27  30
ENDBRANCH  26  27
BRANCH  26  31
ATOM     31  C   UNL     1      -1.765  -3.000   1.524  0.00  0.00    +0.328 C 
ATOM     32  O   UNL     1      -2.067  -2.796   2.675  0.00  0.00    -0.249 OA
BRANCH  31  33
ATOM     33  O   UNL     1      -2.463  -2.422   0.534  0.00  0.00    -0.467 OA
ATOM     34  C   UNL     1      -3.552  -1.578   0.915  0.00  0.00    +0.280 C 
ENDBRANCH  31  33
ENDBRANCH  26  31
ENDBRANCH   1  26
TORSDOF 8
