REMARK  Name = ZINC00816093
REMARK  6 active torsions:
REMARK  status: ('A' for Active; 'I' for Inactive)
REMARK    1  A    between atoms: C_1  and  C_2
REMARK    2  A    between atoms: C_2  and  O_3
REMARK    3  A    between atoms: O_3  and  C_4
REMARK    4  A    between atoms: C_7  and  C_10
REMARK    5  A    between atoms: C_24  and  C_26
REMARK    6  A    between atoms: C_24  and  C_27
REMARK                            x       y       z     vdW  Elec       q    Type
REMARK                         _______ _______ _______ _____ _____    ______ ____
ROOT
ATOM      1  C   UNL     1      -2.001  -6.092  -0.011  0.00  0.00    +0.086 C 
ATOM      2  C   UNL     1      -1.362  -6.667   1.220  0.00  0.00    -0.011 A 
ATOM      3  C   UNL     1      -2.019  -6.592   2.436  0.00  0.00    +0.056 A 
ATOM      4  C   UNL     1      -1.437  -7.117   3.578  0.00  0.00    +0.167 A 
ATOM      5  C   UNL     1      -0.184  -7.723   3.505  0.00  0.00    +0.168 A 
ATOM      6  C   UNL     1       0.473  -7.799   2.289  0.00  0.00    +0.073 A 
ATOM      7  C   UNL     1      -0.117  -7.274   1.147  0.00  0.00    +0.039 A 
ATOM      8  N   UNL     1       0.535  -7.361  -0.085  0.00  0.00    -0.317 N 
ATOM      9  C   UNL     1      -0.173  -7.253  -1.248  0.00  0.00    +0.016 C 
ATOM     10  C   UNL     1      -1.384  -6.656  -1.266  0.00  0.00    +0.024 C 
ATOM     11  C   UNL     1      -2.114  -6.541  -2.462  0.00  0.00    +0.162 C 
ATOM     12  O   UNL     1      -3.204  -6.003  -2.446  0.00  0.00    -0.292 OA
ATOM     13  C   UNL     1      -1.572  -7.068  -3.762  0.00  0.00    +0.086 C 
ATOM     14  C   UNL     1      -0.041  -7.022  -3.718  0.00  0.00    -0.023 C 
ATOM     15  C   UNL     1       0.433  -7.826  -2.506  0.00  0.00    +0.058 C 
ATOM     16  C   UNL     1       0.426  -5.571  -3.587  0.00  0.00    +0.011 C 
ATOM     17  C   UNL     1       0.533  -7.634  -4.997  0.00  0.00    +0.011 C 
ATOM     18  O   UNL     1       0.166  -8.154   4.752  0.00  0.00    -0.453 OA
ATOM     19  C   UNL     1      -0.698  -7.446   5.660  0.00  0.00    +0.466 C 
ATOM     20  O   UNL     1      -1.871  -7.171   4.872  0.00  0.00    -0.453 OA
ATOM     21  H   UNL     1       1.495  -7.499  -0.116  0.00  0.00    +0.152 HD
ENDROOT
BRANCH   1  25
ATOM     22  C   UNL     1      -1.498  -1.848   0.006  0.00  0.00    +0.121 A 
ATOM     23  C   UNL     1      -0.388  -2.679  -0.014  0.00  0.00    +0.046 A 
ATOM     24  C   UNL     1      -0.553  -4.051  -0.014  0.00  0.00    +0.008 A 
ATOM     25  C   UNL     1      -1.824  -4.596  -0.005  0.00  0.00    -0.035 A 
ATOM     26  C   UNL     1      -2.932  -3.769   0.010  0.00  0.00    +0.008 A 
ATOM     27  C   UNL     1      -2.772  -2.397   0.016  0.00  0.00    +0.046 A 
BRANCH  22  28
ATOM     28  O   UNL     1      -1.339  -0.499   0.012  0.00  0.00    -0.492 OA
BRANCH  28  30
ATOM     29  C   UNL     1      -0.019   1.526   0.010  0.00  0.00    +0.048 C 
ATOM     30  C   UNL     1       0.002  -0.004   0.002  0.00  0.00    +0.225 C 
ENDBRANCH  28  30
ENDBRANCH  22  28
ENDBRANCH   1  25
TORSDOF 3
