REMARK  Name = ZINC43764275
REMARK  16 active torsions:
REMARK  status: ('A' for Active; 'I' for Inactive)
REMARK    1  A    between atoms: C_1  and  C_2
REMARK    2  A    between atoms: C_2  and  C_4
REMARK    3  A    between atoms: C_2  and  C_10
REMARK    4  A    between atoms: C_4  and  C_5
REMARK    5  A    between atoms: C_5  and  C_6
REMARK    6  A    between atoms: C_6  and  C_7
REMARK    7  A    between atoms: C_7  and  C_8
REMARK    8  A    between atoms: C_7  and  C_9
REMARK    9  A    between atoms: C_16  and  C_43
REMARK   10  A    between atoms: C_24  and  O_39
REMARK   11  A    between atoms: C_26  and  N_35
REMARK   12  A    between atoms: C_27  and  C_34
REMARK   13  A    between atoms: C_31  and  O_33
REMARK   14  A    between atoms: C_36  and  C_38
REMARK   15  A    between atoms: O_39  and  C_40
REMARK   16  A    between atoms: C_40  and  C_42
REMARK                            x       y       z     vdW  Elec       q    Type
REMARK                         _______ _______ _______ _____ _____    ______ ____
ROOT
ATOM      1  C   UNL     1      -0.539  -1.151   1.330  0.00  0.00    -0.002 C 
ATOM      2  C   UNL     1      -0.490  -2.697   1.411  0.00  0.00    +0.004 C 
ATOM      3  C   UNL     1       0.989  -3.073   1.703  0.00  0.00    +0.004 C 
ATOM      4  C   UNL     1       1.762  -1.861   1.172  0.00  0.00    -0.001 C 
ATOM      5  C   UNL     1       0.874  -0.682   1.662  0.00  0.00    -0.026 C 
ATOM      6  C   UNL     1       1.354   0.573   0.960  0.00  0.00    +0.007 C 
ATOM      7  C   UNL     1       2.792   0.842   1.435  0.00  0.00    +0.005 C 
ATOM      8  C   UNL     1       3.703  -0.348   1.151  0.00  0.00    +0.001 C 
ATOM      9  C   UNL     1       3.152  -1.660   1.745  0.00  0.00    -0.000 C 
ATOM     10  C   UNL     1       4.061  -2.828   1.359  0.00  0.00    +0.051 C 
ATOM     11  C   UNL     1       5.470  -2.579   1.902  0.00  0.00    +0.203 C 
ATOM     12  C   UNL     1       6.026  -1.284   1.305  0.00  0.00    +0.103 C 
ATOM     13  C   UNL     1       5.100  -0.085   1.714  0.00  0.00    -0.002 C 
ATOM     14  C   UNL     1       5.656   1.208   1.114  0.00  0.00    +0.009 C 
ATOM     15  C   UNL     1       7.056   1.470   1.672  0.00  0.00    +0.003 C 
ATOM     16  C   UNL     1       7.976   0.303   1.308  0.00  0.00    +0.033 C 
ATOM     17  C   UNL     1       7.434  -1.035   1.848  0.00  0.00    +0.142 C 
ATOM     18  C   UNL     1       5.019   0.049   3.236  0.00  0.00    +0.014 C 
ATOM     19  C   UNL     1       1.022  -0.516   3.176  0.00  0.00    +0.012 C 
ENDROOT
BRANCH  12  20
ATOM     20  N   UNL     1       6.080  -1.403  -0.154  0.00  0.00    -0.304 N 
ATOM     21  C   UNL     1       6.869  -2.334  -0.725  0.00  0.00    +0.211 C 
ATOM     22  O   UNL     1       7.461  -3.135  -0.033  0.00  0.00    -0.276 OA
ATOM     23  C   UNL     1       7.017  -2.380  -2.224  0.00  0.00    +0.109 C 
ATOM     24  H   UNL     1       5.547  -0.813  -0.709  0.00  0.00    +0.149 HD
ENDBRANCH  12  20
BRANCH   1  26
ATOM     25  C   UNL     1      -2.386  -1.079  -0.350  0.00  0.00    +0.008 C 
ATOM     26  C   UNL     1      -0.927  -0.706  -0.081  0.00  0.00    -0.010 C 
BRANCH  26  27
ATOM     27  C   UNL     1      -0.026  -1.403  -1.102  0.00  0.00    +0.003 C 
BRANCH  27  28
ATOM     28  C   UNL     1      -0.432  -0.979  -2.515  0.00  0.00    +0.001 C 
BRANCH  28  29
ATOM     29  C   UNL     1       0.469  -1.677  -3.536  0.00  0.00    +0.003 C 
BRANCH  29  30
ATOM     30  C   UNL     1       0.062  -1.253  -4.949  0.00  0.00    -0.017 C 
ATOM     31  C   UNL     1       1.041  -1.851  -5.962  0.00  0.00    +0.007 C 
ATOM     32  C   UNL     1      -1.351  -1.758  -5.245  0.00  0.00    +0.007 C 
ENDBRANCH  29  30
ENDBRANCH  28  29
ENDBRANCH  27  28
ENDBRANCH  26  27
ENDBRANCH   1  26
BRANCH  17  33
ATOM     33  O   UNL     1       8.282  -2.128   1.492  0.00  0.00    -0.390 OA
ATOM     34  H   UNL     1       9.193  -2.038   1.805  0.00  0.00    +0.210 HD
ENDBRANCH  17  33
BRANCH  11  35
ATOM     35  O   UNL     1       6.319  -3.671   1.543  0.00  0.00    -0.459 OA
BRANCH  35  36
ATOM     36  C   UNL     1       6.389  -4.697   2.406  0.00  0.00    +0.304 C 
ATOM     37  O   UNL     1       5.750  -4.668   3.432  0.00  0.00    -0.251 OA
ATOM     38  C   UNL     1       7.263  -5.884   2.095  0.00  0.00    +0.136 C 
ENDBRANCH  35  36
ENDBRANCH  11  35
TORSDOF 9
