REMARK  Name = ZINC17197311
REMARK  4 active torsions:
REMARK  status: ('A' for Active; 'I' for Inactive)
REMARK    1  A    between atoms: C_1  and  O_2
REMARK    2  A    between atoms: O_2  and  C_3
REMARK    3  A    between atoms: C_8  and  N_9
REMARK    4  A    between atoms: C_12  and  C_18
REMARK                            x       y       z     vdW  Elec       q    Type
REMARK                         _______ _______ _______ _____ _____    ______ ____
ROOT
ATOM      1  N   UNL     1      -1.240   2.070   0.019  0.00  0.00    -0.253 N 
ATOM      2  C   UNL     1      -1.817   2.391   1.194  0.00  0.00    +0.265 A 
ATOM      3  O   UNL     1      -1.281   2.086   2.245  0.00  0.00    -0.267 OA
ATOM      4  C   UNL     1      -3.043   3.079   1.198  0.00  0.00    +0.072 A 
ATOM      5  C   UNL     1      -3.622   3.408   0.008  0.00  0.00    +0.258 A 
ATOM      6  N   UNL     1      -3.000   3.062  -1.164  0.00  0.00    -0.302 N 
ATOM      7  C   UNL     1      -1.825   2.408  -1.144  0.00  0.00    +0.168 A 
ATOM      8  S   UNL     1      -1.066   1.993  -2.622  0.00  0.00    -0.012 S 
ATOM      9  O   UNL     1      -4.799   4.069  -0.016  0.00  0.00    -0.267 OA
ATOM     10  H   UNL     1      -3.462   3.320  -2.128  0.00  0.00    +0.171 HD
ENDROOT
BRANCH   4  11
ATOM     11  C   UNL     1      -3.707   3.449   2.499  0.00  0.00    +0.001 C 
ATOM     12  C   UNL     1      -4.106   2.193   3.229  0.00  0.00    -0.054 A 
ATOM     13  C   UNL     1      -4.674   1.158   2.500  0.00  0.00    +0.002 A 
ATOM     14  C   UNL     1      -5.056  -0.010   3.128  0.00  0.00    +0.000 A 
ATOM     15  C   UNL     1      -4.874  -0.150   4.491  0.00  0.00    +0.000 A 
ATOM     16  C   UNL     1      -4.308   0.878   5.218  0.00  0.00    +0.004 A 
ATOM     17  C   UNL     1      -3.921   2.051   4.587  0.00  0.00    -0.047 A 
ATOM     18  C   UNL     1      -3.303   3.145   5.420  0.00  0.00    +0.016 C 
ATOM     19  C   UNL     1      -3.335   4.466   4.652  0.00  0.00    -0.077 C 
ATOM     20  N   UNL     1      -2.776   4.240   3.310  0.00  0.00    +0.387 N 
ATOM     21  H   UNL     1      -1.822   3.701   3.404  0.00  0.00    -0.085 HD
ATOM     22  H   UNL     1      -2.602   5.212   2.825  0.00  0.00    -0.085 HD
ENDBRANCH   4  11
BRANCH   1  28
ATOM     23  C   UNL     1       1.182   2.092   0.002  0.00  0.00    +0.144 A 
ATOM     24  C   UNL     1       2.387   1.408  -0.014  0.00  0.00    +0.048 A 
ATOM     25  C   UNL     1       2.398   0.026  -0.021  0.00  0.00    +0.004 A 
ATOM     26  C   UNL     1       1.208  -0.678  -0.013  0.00  0.00    +0.002 A 
ATOM     27  C   UNL     1       0.002  -0.004   0.002  0.00  0.00    +0.030 A 
ATOM     28  C   UNL     1      -0.017   1.383   0.010  0.00  0.00    +0.093 A 
BRANCH  23  30
ATOM     29  C   UNL     1       2.437   4.112   0.000  0.00  0.00    +0.277 C 
ATOM     30  O   UNL     1       1.170   3.452   0.009  0.00  0.00    -0.493 OA
ENDBRANCH  23  30
ENDBRANCH   1  28
TORSDOF 3
