REMARK  Name = ZINC63541289
REMARK  9 active torsions:
REMARK  status: ('A' for Active; 'I' for Inactive)
REMARK    1  A    between atoms: C_1  and  C_2
REMARK    2  A    between atoms: C_2  and  C_3
REMARK    3  A    between atoms: C_6  and  N_9
REMARK    4  A    between atoms: C_10  and  C_12
REMARK    5  A    between atoms: C_12  and  S_13
REMARK    6  A    between atoms: S_13  and  C_14
REMARK    7  A    between atoms: N_25  and  C_26
REMARK    8  A    between atoms: C_26  and  C_27
REMARK    9  A    between atoms: C_27  and  C_28
REMARK                            x       y       z     vdW  Elec       q    Type
REMARK                         _______ _______ _______ _____ _____    ______ ____
ROOT
ATOM      1  C   UNL     1       7.205  -2.860  -7.246  0.00  0.00    +0.223 C 
ATOM      2  N   UNL     1       6.667  -4.162  -7.657  0.00  0.00    -0.300 N 
ATOM      3  C   UNL     1       5.378  -4.225  -8.156  0.00  0.00    +0.151 A 
ATOM      4  C   UNL     1       4.868  -3.100  -8.830  0.00  0.00    +0.165 A 
ATOM      5  N   UNL     1       3.646  -3.135  -9.344  0.00  0.00    -0.246 NA
ATOM      6  C   UNL     1       2.912  -4.222  -9.205  0.00  0.00    +0.131 A 
ATOM      7  C   UNL     1       3.409  -5.327  -8.528  0.00  0.00    +0.132 A 
ATOM      8  N   UNL     1       4.629  -5.307  -8.018  0.00  0.00    -0.237 NA
ATOM      9  C   UNL     1       5.716  -1.895  -8.933  0.00  0.00    +0.270 C 
ATOM     10  O   UNL     1       5.378  -0.965  -9.640  0.00  0.00    -0.268 OA
ATOM     11  N   UNL     1       6.864  -1.838  -8.235  0.00  0.00    -0.268 N 
ATOM     12  H   UNL     1       7.206  -4.965  -7.580  0.00  0.00    +0.150 HD
ENDROOT
BRANCH   1  13
ATOM     13  S   UNL     1       6.501  -2.400  -5.639  0.00  0.00    -0.110 S 
BRANCH  13  14
ATOM     14  C   UNL     1       4.715  -2.327  -5.947  0.00  0.00    +0.168 C 
BRANCH  14  16
ATOM     15  N   UNL     1       2.657  -1.834  -4.665  0.00  0.00    -0.285 N 
ATOM     16  C   UNL     1       4.000  -1.949  -4.676  0.00  0.00    +0.227 C 
ATOM     17  O   UNL     1       4.634  -1.749  -3.661  0.00  0.00    -0.275 OA
ATOM     18  H   UNL     1       2.145  -2.067  -5.455  0.00  0.00    +0.155 HD
BRANCH  15  22
ATOM     19  C   UNL     1       0.708  -0.471  -1.245  0.00  0.00    -0.048 A 
ATOM     20  C   UNL     1       1.965   0.011  -1.561  0.00  0.00    +0.005 A 
ATOM     21  C   UNL     1       2.614  -0.438  -2.695  0.00  0.00    +0.023 A 
ATOM     22  C   UNL     1       2.003  -1.377  -3.516  0.00  0.00    +0.033 A 
ATOM     23  C   UNL     1       0.741  -1.860  -3.195  0.00  0.00    +0.023 A 
ATOM     24  C   UNL     1       0.100  -1.410  -2.058  0.00  0.00    +0.005 A 
BRANCH  19  26
ATOM     25  C   UNL     1       0.372  -0.872   1.179  0.00  0.00    +0.009 C 
ATOM     26  C   UNL     1       0.003   0.021  -0.007  0.00  0.00    +0.032 C 
ENDBRANCH  19  26
ENDBRANCH  15  22
ENDBRANCH  14  16
ENDBRANCH  13  14
ENDBRANCH   1  13
BRANCH  11  27
ATOM     27  C   UNL     1       7.789  -0.727  -8.472  0.00  0.00    +0.115 C 
BRANCH  27  28
ATOM     28  C   UNL     1       8.774  -1.110  -9.578  0.00  0.00    +0.052 C 
BRANCH  28  29
ATOM     29  C   UNL     1       9.726   0.033  -9.821  0.00  0.00    -0.040 C 
ATOM     30  C   UNL     1      10.957   0.194  -9.286  0.00  0.00    -0.001 A 
ATOM     31  C   UNL     1      11.748  -0.616  -8.351  0.00  0.00    +0.010 A 
ATOM     32  C   UNL     1      12.979  -0.186  -7.990  0.00  0.00    +0.001 A 
ATOM     33  C   UNL     1      13.515   1.011  -8.483  0.00  0.00    +0.002 A 
ATOM     34  C   UNL     1      12.849   1.808  -9.345  0.00  0.00    +0.026 A 
ATOM     35  C   UNL     1      11.547   1.453  -9.793  0.00  0.00    +0.043 A 
ATOM     36  N   UNL     1      10.712   2.048 -10.610  0.00  0.00    -0.380 N 
ATOM     37  C   UNL     1       9.500   1.229 -10.719  0.00  0.00    +0.144 C 
ATOM     38  H   UNL     1      10.871   2.888 -11.069  0.00  0.00    +0.160 HD
ENDBRANCH  28  29
ENDBRANCH  27  28
ENDBRANCH  11  27
TORSDOF 8
