REMARK  Name = ZINC56016492
REMARK  7 active torsions:
REMARK  status: ('A' for Active; 'I' for Inactive)
REMARK    1  A    between atoms: C_1  and  C_2
REMARK    2  A    between atoms: C_2  and  C_3
REMARK    3  A    between atoms: C_2  and  C_4
REMARK    4  A    between atoms: C_2  and  N_24
REMARK    5  A    between atoms: N_6  and  C_7
REMARK    6  A    between atoms: C_7  and  C_8
REMARK    7  A    between atoms: N_27  and  C_28
REMARK                            x       y       z     vdW  Elec       q    Type
REMARK                         _______ _______ _______ _____ _____    ______ ____
ROOT
ATOM      1  C   UNL     1      -3.993  -1.215  -2.544  0.00  0.00    -0.014 A 
ATOM      2  C   UNL     1      -4.622  -0.107  -3.098  0.00  0.00    +0.010 A 
ATOM      3  C   UNL     1      -5.091  -0.194  -4.396  0.00  0.00    +0.042 A 
ATOM      4  C   UNL     1      -4.917  -1.382  -5.100  0.00  0.00    +0.099 A 
ATOM      5  N   UNL     1      -4.312  -2.416  -4.537  0.00  0.00    -0.349 N 
ATOM      6  C   UNL     1      -3.850  -2.359  -3.302  0.00  0.00    +0.089 A 
ATOM      7  N   UNL     1      -5.384  -1.484  -6.405  0.00  0.00    -0.312 N 
ATOM      8  C   UNL     1      -6.175  -0.406  -7.021  0.00  0.00    +0.111 C 
ATOM      9  C   UNL     1      -5.369   0.161  -8.189  0.00  0.00    +0.054 C 
ATOM     10  C   UNL     1      -4.827  -0.947  -9.054  0.00  0.00    -0.041 A 
ATOM     11  C   UNL     1      -4.452  -0.625 -10.352  0.00  0.00    +0.004 A 
ATOM     12  C   UNL     1      -3.939  -1.590 -11.194  0.00  0.00    +0.000 A 
ATOM     13  C   UNL     1      -3.795  -2.890 -10.744  0.00  0.00    +0.000 A 
ATOM     14  C   UNL     1      -4.171  -3.212  -9.456  0.00  0.00    +0.005 A 
ATOM     15  C   UNL     1      -4.692  -2.243  -8.610  0.00  0.00    -0.027 A 
ATOM     16  C   UNL     1      -5.102  -2.666  -7.226  0.00  0.00    +0.141 C 
ATOM     17  H   UNL     1      -4.202  -3.234  -5.046  0.00  0.00    +0.167 HD
ENDROOT
BRANCH   1  18
ATOM     18  C   UNL     1      -3.466  -1.165  -1.133  0.00  0.00    +0.141 C 
BRANCH  18  21
ATOM     19  C   UNL     1      -1.403  -0.560   0.012  0.00  0.00    +0.236 C 
ATOM     20  O   UNL     1      -1.938  -0.843   1.063  0.00  0.00    -0.273 OA
ATOM     21  N   UNL     1      -2.082  -0.686  -1.145  0.00  0.00    -0.309 N 
ATOM     22  H   UNL     1      -1.654  -0.460  -1.986  0.00  0.00    +0.149 HD
BRANCH  19  24
ATOM     23  C   UNL     1       0.032   1.462  -0.003  0.00  0.00    +0.041 C 
ATOM     24  C   UNL     1       0.022  -0.068   0.000  0.00  0.00    +0.106 C 
ATOM     25  C   UNL     1       0.749  -0.581   1.244  0.00  0.00    +0.041 C 
BRANCH  24  26
ATOM     26  N   UNL     1       0.699  -0.563  -1.201  0.00  0.00    -0.286 N 
ATOM     27  C   UNL     1       1.990  -0.247  -1.425  0.00  0.00    +0.300 C 
ATOM     28  O   UNL     1       2.592   0.449  -0.630  0.00  0.00    -0.253 OA
ATOM     29  N   UNL     1       2.614  -0.703  -2.529  0.00  0.00    -0.302 N 
ATOM     30  C   UNL     1       4.017  -0.359  -2.773  0.00  0.00    +0.129 C 
ATOM     31  H   UNL     1       0.219  -1.119  -1.834  0.00  0.00    +0.151 HD
ATOM     32  H   UNL     1       2.133  -1.258  -3.163  0.00  0.00    +0.150 HD
ENDBRANCH  24  26
ENDBRANCH  19  24
ENDBRANCH  18  21
ENDBRANCH   1  18
TORSDOF 4
