REMARK  Name = ZINC35668668
REMARK  2 active torsions:
REMARK  status: ('A' for Active; 'I' for Inactive)
REMARK    1  A    between atoms: C_4  and  C_7
REMARK    2  A    between atoms: C_27  and  O_29
REMARK                            x       y       z     vdW  Elec       q    Type
REMARK                         _______ _______ _______ _____ _____    ______ ____
ROOT
ATOM      1  C   UNL     1       3.693  -0.683  -0.037  0.00  0.00    +0.137 C 
ATOM      2  N   UNL     1       4.776   0.071  -0.155  0.00  0.00    -0.231 NA
ATOM      3  C   UNL     1       6.018  -0.439  -0.130  0.00  0.00    +0.076 A 
ATOM      4  C   UNL     1       7.145   0.342  -0.403  0.00  0.00    +0.028 A 
ATOM      5  C   UNL     1       8.387  -0.228  -0.375  0.00  0.00    +0.002 A 
ATOM      6  C   UNL     1       8.552  -1.576  -0.079  0.00  0.00    +0.001 A 
ATOM      7  C   UNL     1       7.471  -2.367   0.199  0.00  0.00    +0.013 A 
ATOM      8  C   UNL     1       6.193  -1.813   0.185  0.00  0.00    +0.043 A 
ATOM      9  C   UNL     1       4.989  -2.575   0.490  0.00  0.00    +0.161 C 
ATOM     10  N   UNL     1       5.003  -3.697   1.192  0.00  0.00    -0.133 NA
ATOM     11  N   UNL     1       3.922  -4.345   1.485  0.00  0.00    -0.144 NA
ATOM     12  C   UNL     1       2.807  -3.997   0.893  0.00  0.00    +0.166 C 
ATOM     13  C   UNL     1       1.469  -4.291   1.168  0.00  0.00    +0.214 C 
ATOM     14  O   UNL     1       1.069  -5.072   2.018  0.00  0.00    -0.285 OA
ATOM     15  C   UNL     1       0.612  -3.497   0.274  0.00  0.00    +0.032 A 
ATOM     16  C   UNL     1      -0.785  -3.428   0.227  0.00  0.00    +0.012 A 
ATOM     17  C   UNL     1      -1.346  -2.607  -0.737  0.00  0.00    +0.001 A 
ATOM     18  C   UNL     1      -0.562  -1.884  -1.613  0.00  0.00    +0.000 A 
ATOM     19  C   UNL     1       0.825  -1.937  -1.571  0.00  0.00    +0.009 A 
ATOM     20  C   UNL     1       1.411  -2.743  -0.612  0.00  0.00    +0.020 A 
ATOM     21  C   UNL     1       2.820  -3.048  -0.307  0.00  0.00    +0.216 C 
ATOM     22  N   UNL     1       3.783  -2.024   0.053  0.00  0.00    -0.229 N 
ENDROOT
BRANCH   1  26
ATOM     23  C   UNL     1      -0.016   1.380   0.011  0.00  0.00    +0.000 A 
ATOM     24  C   UNL     1       0.172   0.282   0.832  0.00  0.00    +0.001 A 
ATOM     25  C   UNL     1       1.375  -0.393   0.821  0.00  0.00    +0.011 A 
ATOM     26  C   UNL     1       2.404   0.034  -0.021  0.00  0.00    +0.015 A 
ATOM     27  C   UNL     1       2.207   1.142  -0.847  0.00  0.00    +0.011 A 
ATOM     28  C   UNL     1       0.999   1.808  -0.826  0.00  0.00    +0.001 A 
ENDBRANCH   1  26
BRANCH  21  29
ATOM     29  O   UNL     1       3.365  -3.780  -1.429  0.00  0.00    -0.362 OA
ATOM     30  H   UNL     1       2.864  -4.573  -1.661  0.00  0.00    +0.213 HD
ENDBRANCH  21  29
TORSDOF 2
