REMARK  Name = ZINC08820600
REMARK  10 active torsions:
REMARK  status: ('A' for Active; 'I' for Inactive)
REMARK    1  A    between atoms: C_1  and  C_2
REMARK    2  A    between atoms: C_2  and  C_10
REMARK    3  A    between atoms: C_3  and  C_4
REMARK    4  A    between atoms: N_14  and  C_18
REMARK    5  A    between atoms: C_18  and  C_19
REMARK    6  A    between atoms: C_19  and  C_20
REMARK    7  A    between atoms: C_20  and  C_21
REMARK    8  A    between atoms: N_23  and  N_24
REMARK    9  A    between atoms: C_25  and  C_27
REMARK   10  A    between atoms: C_32  and  N_33
REMARK                            x       y       z     vdW  Elec       q    Type
REMARK                         _______ _______ _______ _____ _____    ______ ____
ROOT
ATOM      1  C   UNL     1       4.015   6.110   2.320  0.00  0.00    +0.029 C 
ENDROOT
BRANCH   1   2
ATOM      2  C   UNL     1       5.304   6.928   2.420  0.00  0.00    +0.115 C 
BRANCH   2   7
ATOM      3  C   UNL     1       4.281  11.026   5.030  0.00  0.00    +0.023 C 
ATOM      4  C   UNL     1       4.490  10.262   3.919  0.00  0.00    +0.077 C 
ATOM      5  C   UNL     1       4.824   8.830   3.812  0.00  0.00    +0.258 C 
ATOM      6  O   UNL     1       4.958   8.130   4.799  0.00  0.00    -0.269 OA
ATOM      7  N   UNL     1       4.971   8.344   2.591  0.00  0.00    -0.255 N 
ATOM      8  C   UNL     1       4.827   9.124   1.501  0.00  0.00    +0.121 C 
ATOM      9  S   UNL     1       4.983   8.688  -0.147  0.00  0.00    -0.027 S 
ATOM     10  S   UNL     1       4.432  10.723   2.193  0.00  0.00    -0.061 S 
BRANCH   3  12
ATOM     11  C   UNL     1       3.416  12.876   3.544  0.00  0.00    +0.044 C 
ATOM     12  C   UNL     1       3.813  12.348   4.899  0.00  0.00    -0.049 C 
ATOM     13  C   UNL     1       3.719  13.145   5.989  0.00  0.00    +0.011 C 
BRANCH  13  14
ATOM     14  C   UNL     1       3.400  14.572   5.832  0.00  0.00    -0.025 A 
ATOM     15  C   UNL     1       3.908  15.291   4.744  0.00  0.00    +0.008 A 
ATOM     16  C   UNL     1       3.600  16.627   4.601  0.00  0.00    +0.001 A 
ATOM     17  C   UNL     1       2.800  17.260   5.536  0.00  0.00    +0.000 A 
ATOM     18  C   UNL     1       2.298  16.558   6.618  0.00  0.00    +0.001 A 
ATOM     19  C   UNL     1       2.591  15.220   6.773  0.00  0.00    +0.008 A 
ENDBRANCH  13  14
ENDBRANCH   3  12
ENDBRANCH   2   7
ENDBRANCH   1   2
BRANCH   1  20
ATOM     20  C   UNL     1       4.362   4.630   2.140  0.00  0.00    +0.099 C 
BRANCH  20  21
ATOM     21  C   UNL     1       3.092   3.825   2.042  0.00  0.00    +0.229 C 
ATOM     22  O   UNL     1       2.016   4.379   2.109  0.00  0.00    -0.274 OA
ATOM     23  N   UNL     1       3.153   2.488   1.880  0.00  0.00    -0.234 N 
ATOM     24  H   UNL     1       4.014   2.045   1.826  0.00  0.00    +0.173 HD
BRANCH  23  25
ATOM     25  N   UNL     1       1.973   1.739   1.788  0.00  0.00    -0.230 N 
ATOM     26  C   UNL     1       2.034   0.402   1.626  0.00  0.00    +0.262 C 
ATOM     27  O   UNL     1       3.113  -0.153   1.559  0.00  0.00    -0.269 OA
ATOM     28  H   UNL     1       1.112   2.183   1.838  0.00  0.00    +0.173 HD
BRANCH  26  29
ATOM     29  C   UNL     1       0.788  -0.388   1.530  0.00  0.00    +0.068 A 
ATOM     30  C   UNL     1      -0.452   0.240   1.651  0.00  0.00    +0.015 A 
ATOM     31  C   UNL     1      -1.611  -0.502   1.556  0.00  0.00    +0.001 A 
ATOM     32  C   UNL     1      -1.545  -1.869   1.351  0.00  0.00    +0.002 A 
ATOM     33  C   UNL     1      -0.319  -2.499   1.234  0.00  0.00    +0.033 A 
ATOM     34  C   UNL     1       0.848  -1.767   1.323  0.00  0.00    +0.138 A 
BRANCH  34  35
ATOM     35  N   UNL     1       2.159  -2.443   1.199  0.00  0.00    +0.057 N 
ATOM     36  O   UNL     1       2.389  -3.153   0.237  0.00  0.00    -0.126 OA
ATOM     37  O   UNL     1       3.007  -2.288   2.059  0.00  0.00    -0.126 OA
ENDBRANCH  34  35
ENDBRANCH  26  29
ENDBRANCH  23  25
ENDBRANCH  20  21
ENDBRANCH   1  20
TORSDOF 9
