REMARK  Name = ZINC63234422
REMARK  8 active torsions:
REMARK  status: ('A' for Active; 'I' for Inactive)
REMARK    1  A    between atoms: C_1  and  C_2
REMARK    2  A    between atoms: C_5  and  C_8
REMARK    3  A    between atoms: N_18  and  C_19
REMARK    4  A    between atoms: C_19  and  C_20
REMARK    5  A    between atoms: C_20  and  C_22
REMARK    6  A    between atoms: C_20  and  C_30
REMARK    7  A    between atoms: C_25  and  O_28
REMARK    8  A    between atoms: O_28  and  C_29
REMARK                            x       y       z     vdW  Elec       q    Type
REMARK                         _______ _______ _______ _____ _____    ______ ____
ROOT
ATOM      1  C   UNL     1       0.059  -4.253  -0.021  0.00  0.00    +0.099 A 
ATOM      2  C   UNL     1       0.854  -4.968   0.910  0.00  0.00    +0.013 A 
ATOM      3  C   UNL     1       1.647  -4.334   1.870  0.00  0.00    +0.011 A 
ATOM      4  C   UNL     1       2.385  -5.089   2.734  0.00  0.00    +0.001 A 
ATOM      5  C   UNL     1       2.360  -6.480   2.673  0.00  0.00    +0.001 A 
ATOM      6  C   UNL     1       1.596  -7.129   1.748  0.00  0.00    +0.012 A 
ATOM      7  C   UNL     1       0.827  -6.385   0.848  0.00  0.00    +0.023 A 
ATOM      8  C   UNL     1       0.010  -6.985  -0.138  0.00  0.00    +0.120 A 
ATOM      9  N   UNL     1      -0.687  -6.209  -0.952  0.00  0.00    -0.263 N 
ATOM     10  N   UNL     1      -0.668  -4.930  -0.893  0.00  0.00    -0.172 NA
ATOM     11  N   UNL     1      -0.059  -8.363  -0.251  0.00  0.00    -0.328 N 
ATOM     12  H   UNL     1       0.455  -8.925   0.350  0.00  0.00    +0.147 HD
ATOM     13  H   UNL     1      -1.244  -6.631  -1.624  0.00  0.00    +0.190 HD
ENDROOT
BRANCH   1  18
ATOM     14  C   UNL     1      -0.017   1.503   0.009  0.00  0.00    +0.044 C 
ATOM     15  C   UNL     1       0.003  -0.004   0.001  0.00  0.00    -0.050 A 
ATOM     16  C   UNL     1       1.206  -0.678   0.118  0.00  0.00    +0.004 A 
ATOM     17  C   UNL     1       1.231  -2.057   0.111  0.00  0.00    +0.010 A 
ATOM     18  C   UNL     1       0.040  -2.773  -0.013  0.00  0.00    +0.003 A 
ATOM     19  C   UNL     1      -1.170  -2.088  -0.130  0.00  0.00    +0.010 A 
ATOM     20  C   UNL     1      -1.182  -0.708  -0.117  0.00  0.00    +0.004 A 
ENDBRANCH   1  18
BRANCH  11  21
ATOM     21  C   UNL     1      -0.909  -8.973  -1.276  0.00  0.00    +0.115 C 
BRANCH  21  22
ATOM     22  C   UNL     1      -0.805 -10.496  -1.185  0.00  0.00    +0.064 C 
BRANCH  22  23
ATOM     23  C   UNL     1      -1.373 -10.961   0.131  0.00  0.00    -0.033 C 
ATOM     24  C   UNL     1      -0.721 -11.638   1.104  0.00  0.00    -0.000 A 
ATOM     25  C   UNL     1       0.658 -12.126   1.224  0.00  0.00    +0.010 A 
ATOM     26  C   UNL     1       1.025 -12.787   2.345  0.00  0.00    +0.001 A 
ATOM     27  C   UNL     1       0.124 -13.017   3.393  0.00  0.00    +0.002 A 
ATOM     28  C   UNL     1      -1.159 -12.600   3.357  0.00  0.00    +0.026 A 
ATOM     29  C   UNL     1      -1.653 -11.893   2.225  0.00  0.00    +0.043 A 
ATOM     30  N   UNL     1      -2.835 -11.395   1.956  0.00  0.00    -0.380 N 
ATOM     31  C   UNL     1      -2.784 -10.760   0.634  0.00  0.00    +0.145 C 
ATOM     32  H   UNL     1      -3.612 -11.435   2.535  0.00  0.00    +0.160 HD
ENDBRANCH  22  23
BRANCH  22  33
ATOM     33  C   UNL     1      -1.581 -11.122  -2.316  0.00  0.00    -0.038 A 
ATOM     34  C   UNL     1      -2.937 -10.881  -2.438  0.00  0.00    +0.008 A 
ATOM     35  C   UNL     1      -3.651 -11.453  -3.473  0.00  0.00    +0.046 A 
ATOM     36  C   UNL     1      -3.006 -12.269  -4.391  0.00  0.00    +0.120 A 
ATOM     37  C   UNL     1      -1.645 -12.509  -4.266  0.00  0.00    +0.046 A 
ATOM     38  C   UNL     1      -0.934 -11.930  -3.232  0.00  0.00    +0.008 A 
BRANCH  36  39
ATOM     39  O   UNL     1      -3.706 -12.834  -5.410  0.00  0.00    -0.495 OA
ATOM     40  C   UNL     1      -2.976 -13.663  -6.317  0.00  0.00    +0.277 C 
ENDBRANCH  36  39
ENDBRANCH  22  33
ENDBRANCH  21  22
ENDBRANCH  11  21
TORSDOF 6
