REMARK  Name = ZINC03109784
REMARK  5 active torsions:
REMARK  status: ('A' for Active; 'I' for Inactive)
REMARK    1  A    between atoms: C_6  and  S_7
REMARK    2  A    between atoms: S_7  and  N_10
REMARK    3  A    between atoms: N_12  and  O_13
REMARK    4  A    between atoms: C_18  and  S_20
REMARK    5  A    between atoms: S_20  and  N_23
REMARK                            x       y       z     vdW  Elec       q    Type
REMARK                         _______ _______ _______ _____ _____    ______ ____
ROOT
ATOM      1  C   UNL     1      -0.017   1.379   0.010  0.00  0.00    +0.029 A 
ATOM      2  C   UNL     1       1.165   2.096   0.002  0.00  0.00    +0.011 A 
ATOM      3  C   UNL     1       2.385   1.426  -0.013  0.00  0.00    -0.008 A 
ATOM      4  C   UNL     1       2.402   0.022  -0.021  0.00  0.00    +0.014 A 
ATOM      5  C   UNL     1       1.205  -0.685  -0.013  0.00  0.00    +0.039 A 
ATOM      6  C   UNL     1       0.002  -0.004   0.002  0.00  0.00    +0.106 A 
ATOM      7  C   UNL     1       3.818  -0.414  -0.037  0.00  0.00    +0.118 C 
ATOM      8  N   UNL     1       4.251  -1.641  -0.048  0.00  0.00    -0.086 NA
ATOM      9  C   UNL     1       4.649   0.814  -0.039  0.00  0.00    +0.014 A 
ATOM     10  C   UNL     1       3.782   1.919  -0.024  0.00  0.00    -0.008 A 
ATOM     11  C   UNL     1       4.314   3.205  -0.023  0.00  0.00    +0.011 A 
ATOM     12  C   UNL     1       5.683   3.387  -0.036  0.00  0.00    +0.029 A 
ATOM     13  C   UNL     1       6.535   2.297  -0.051  0.00  0.00    +0.106 A 
ATOM     14  C   UNL     1       6.025   1.013  -0.052  0.00  0.00    +0.039 A 
ENDROOT
BRANCH   6  15
ATOM     15  S   UNL     1      -1.514  -0.902   0.012  0.00  0.00    +0.056 S 
ATOM     16  O   UNL     1      -1.224  -2.183   0.553  0.00  0.00    -0.153 OA
ATOM     17  O   UNL     1      -2.493  -0.040   0.577  0.00  0.00    -0.153 OA
BRANCH  15  18
ATOM     18  N   UNL     1      -1.950  -1.143  -1.567  0.00  0.00    -0.204 NA
ATOM     19  H   UNL     1      -1.390  -0.803  -2.283  0.00  0.00    +0.144 HD
ATOM     20  H   UNL     1      -2.767  -1.623  -1.777  0.00  0.00    +0.144 HD
ENDBRANCH  15  18
ENDBRANCH   6  15
BRANCH  13  21
ATOM     21  S   UNL     1       8.279   2.548  -0.068  0.00  0.00    +0.056 S 
ATOM     22  O   UNL     1       8.853   1.376  -0.631  0.00  0.00    -0.153 OA
ATOM     23  O   UNL     1       8.498   3.841  -0.615  0.00  0.00    -0.153 OA
BRANCH  21  24
ATOM     24  N   UNL     1       8.781   2.610   1.508  0.00  0.00    -0.204 NA
ATOM     25  H   UNL     1       9.673   2.312   1.746  0.00  0.00    +0.144 HD
ATOM     26  H   UNL     1       8.183   2.944   2.195  0.00  0.00    +0.144 HD
ENDBRANCH  21  24
ENDBRANCH  13  21
BRANCH   8  27
ATOM     27  O   UNL     1       5.642  -1.902  -0.064  0.00  0.00    -0.409 OA
ATOM     28  H   UNL     1       5.867  -2.842  -0.071  0.00  0.00    +0.328 HD
ENDBRANCH   8  27
TORSDOF 5
