REMARK  Name = ZINC63141786
REMARK  9 active torsions:
REMARK  status: ('A' for Active; 'I' for Inactive)
REMARK    1  A    between atoms: C_1  and  O_2
REMARK    2  A    between atoms: O_2  and  C_3
REMARK    3  A    between atoms: C_6  and  C_11
REMARK    4  A    between atoms: C_8  and  O_9
REMARK    5  A    between atoms: O_9  and  C_10
REMARK    6  A    between atoms: C_11  and  N_12
REMARK    7  A    between atoms: C_32  and  C_34
REMARK    8  A    between atoms: C_34  and  C_35
REMARK    9  A    between atoms: C_35  and  C_36
REMARK                            x       y       z     vdW  Elec       q    Type
REMARK                         _______ _______ _______ _____ _____    ______ ____
ROOT
ATOM      1  N   UNL     1      -5.798  -2.977  -1.198  0.00  0.00    -0.287 N 
ATOM      2  C   UNL     1      -6.365  -1.859  -1.934  0.00  0.00    +0.204 C 
ATOM      3  C   UNL     1      -6.736  -2.233  -3.331  0.00  0.00    +0.234 C 
ATOM      4  O   UNL     1      -7.221  -1.372  -4.034  0.00  0.00    -0.274 OA
ATOM      5  N   UNL     1      -6.571  -3.450  -3.862  0.00  0.00    -0.283 N 
ATOM      6  C   UNL     1      -5.981  -4.560  -3.121  0.00  0.00    +0.167 C 
ATOM      7  C   UNL     1      -5.617  -4.188  -1.722  0.00  0.00    +0.237 C 
ATOM      8  O   UNL     1      -5.128  -5.045  -1.016  0.00  0.00    -0.274 OA
ATOM      9  C   UNL     1      -4.732  -5.078  -3.857  0.00  0.00    +0.065 C 
ATOM     10  C   UNL     1      -5.112  -5.205  -5.312  0.00  0.00    -0.034 C 
ATOM     11  C   UNL     1      -4.992  -6.212  -6.168  0.00  0.00    -0.001 A 
ATOM     12  C   UNL     1      -4.346  -7.529  -6.048  0.00  0.00    +0.010 A 
ATOM     13  C   UNL     1      -4.432  -8.339  -7.136  0.00  0.00    +0.001 A 
ATOM     14  C   UNL     1      -5.087  -7.976  -8.317  0.00  0.00    +0.002 A 
ATOM     15  C   UNL     1      -5.698  -6.782  -8.518  0.00  0.00    +0.026 A 
ATOM     16  C   UNL     1      -5.669  -5.841  -7.448  0.00  0.00    +0.043 A 
ATOM     17  N   UNL     1      -6.146  -4.633  -7.377  0.00  0.00    -0.376 N 
ATOM     18  C   UNL     1      -5.782  -4.069  -6.076  0.00  0.00    +0.127 C 
ATOM     19  C   UNL     1      -7.010  -3.659  -5.260  0.00  0.00    +0.104 C 
ATOM     20  H   UNL     1      -6.657  -4.183  -8.068  0.00  0.00    +0.160 HD
ENDROOT
BRANCH   1  21
ATOM     21  C   UNL     1      -5.399  -2.758   0.195  0.00  0.00    +0.143 C 
BRANCH  21  25
ATOM     22  C   UNL     1      -1.328  -1.457   0.323  0.00  0.00    +0.162 A 
ATOM     23  C   UNL     1      -2.352  -0.529   0.226  0.00  0.00    +0.050 A 
ATOM     24  C   UNL     1      -3.667  -0.953   0.185  0.00  0.00    +0.009 A 
ATOM     25  C   UNL     1      -3.964  -2.302   0.240  0.00  0.00    -0.026 A 
ATOM     26  C   UNL     1      -2.947  -3.233   0.337  0.00  0.00    +0.054 A 
ATOM     27  C   UNL     1      -1.626  -2.815   0.373  0.00  0.00    +0.162 A 
BRANCH  22  29
ATOM     28  C   UNL     1       0.198   0.367   0.309  0.00  0.00    +0.277 C 
ATOM     29  O   UNL     1      -0.033  -1.042   0.364  0.00  0.00    -0.491 OA
ENDBRANCH  22  29
BRANCH  27  30
ATOM     30  O   UNL     1      -0.624  -3.730   0.463  0.00  0.00    -0.491 OA
ATOM     31  C   UNL     1      -1.005  -5.107   0.510  0.00  0.00    +0.277 C 
ENDBRANCH  27  30
ENDBRANCH  21  25
ENDBRANCH   1  21
BRANCH  19  32
ATOM     32  C   UNL     1      -7.595  -2.360  -5.820  0.00  0.00    +0.029 C 
BRANCH  32  33
ATOM     33  C   UNL     1      -8.091  -2.598  -7.247  0.00  0.00    +0.037 C 
BRANCH  33  34
ATOM     34  C   UNL     1      -8.808  -1.368  -7.741  0.00  0.00    -0.047 A 
ATOM     35  C   UNL     1     -10.168  -1.230  -7.533  0.00  0.00    +0.003 A 
ATOM     36  C   UNL     1     -10.825  -0.101  -7.986  0.00  0.00    +0.000 A 
ATOM     37  C   UNL     1     -10.123   0.889  -8.647  0.00  0.00    +0.000 A 
ATOM     38  C   UNL     1      -8.764   0.751  -8.855  0.00  0.00    +0.000 A 
ATOM     39  C   UNL     1      -8.105  -0.375  -8.398  0.00  0.00    +0.003 A 
ENDBRANCH  33  34
ENDBRANCH  32  33
ENDBRANCH  19  32
TORSDOF 7
