REMARK  Name = ZINC05092925
REMARK  5 active torsions:
REMARK  status: ('A' for Active; 'I' for Inactive)
REMARK    1  A    between atoms: C_1  and  C_2
REMARK    2  A    between atoms: C_8  and  C_24
REMARK    3  A    between atoms: C_9  and  C_11
REMARK    4  A    between atoms: N_13  and  C_14
REMARK    5  A    between atoms: C_17  and  N_21
REMARK                            x       y       z     vdW  Elec       q    Type
REMARK                         _______ _______ _______ _____ _____    ______ ____
ROOT
ATOM      1  C   UNL     1       5.973   0.909  -0.046  0.00  0.00    +0.284 C 
ATOM      2  O   UNL     1       6.651  -0.102  -0.065  0.00  0.00    -0.266 OA
ATOM      3  N   UNL     1       6.567   2.119  -0.049  0.00  0.00    -0.278 N 
ATOM      4  H   UNL     1       6.029   2.923  -0.115  0.00  0.00    +0.155 HD
ENDROOT
BRANCH   1  13
ATOM      5  C   UNL     1      -1.295  -0.769   0.070  0.00  0.00    +0.044 C 
ATOM      6  C   UNL     1       0.002  -0.003   0.052  0.00  0.00    -0.050 A 
ATOM      7  C   UNL     1      -0.016   1.385   0.062  0.00  0.00    +0.007 A 
ATOM      8  C   UNL     1       1.158   2.106   0.046  0.00  0.00    +0.047 A 
ATOM      9  C   UNL     1       2.378   1.440   0.020  0.00  0.00    +0.136 A 
ATOM     10  C   UNL     1       2.391   0.032   0.011  0.00  0.00    +0.024 A 
ATOM     11  C   UNL     1       1.189  -0.679   0.027  0.00  0.00    +0.015 A 
ATOM     12  C   UNL     1       3.802  -0.351  -0.016  0.00  0.00    +0.008 A 
ATOM     13  C   UNL     1       4.508   0.810  -0.021  0.00  0.00    +0.194 A 
ATOM     14  O   UNL     1       3.659   1.859   0.000  0.00  0.00    -0.450 OA
ATOM     15  C   UNL     1       4.361  -1.751  -0.035  0.00  0.00    +0.048 C 
ENDBRANCH   1  13
BRANCH   3  16
ATOM     16  C   UNL     1       7.960   2.215   0.044  0.00  0.00    +0.052 A 
ATOM     17  C   UNL     1       8.690   1.193   0.637  0.00  0.00    +0.027 A 
ATOM     18  C   UNL     1      10.064   1.291   0.727  0.00  0.00    +0.034 A 
ATOM     19  C   UNL     1      10.715   2.404   0.227  0.00  0.00    +0.128 A 
ATOM     20  C   UNL     1       9.992   3.423  -0.365  0.00  0.00    +0.054 A 
ATOM     21  C   UNL     1       8.616   3.330  -0.463  0.00  0.00    +0.064 A 
ATOM     22 CL   UNL     1       7.709   4.606  -1.213  0.00  0.00    -0.082 Cl
BRANCH  19  23
ATOM     23  N   UNL     1      12.188   2.504   0.324  0.00  0.00    +0.056 N 
ATOM     24  O   UNL     1      12.826   1.607   0.845  0.00  0.00    -0.126 OA
ATOM     25  O   UNL     1      12.762   3.484  -0.116  0.00  0.00    -0.126 OA
ENDBRANCH  19  23
ENDBRANCH   3  16
TORSDOF 3
