REMARK  Name = ZINC03377687
REMARK  10 active torsions:
REMARK  status: ('A' for Active; 'I' for Inactive)
REMARK    1  A    between atoms: C_1  and  C_2
REMARK    2  A    between atoms: C_2  and  O_3
REMARK    3  A    between atoms: O_3  and  C_4
REMARK    4  A    between atoms: C_4  and  C_6
REMARK    5  A    between atoms: C_10  and  N_11
REMARK    6  A    between atoms: C_12  and  C_14
REMARK    7  A    between atoms: C_14  and  C_16
REMARK    8  A    between atoms: C_14  and  N_64
REMARK    9  A    between atoms: C_17  and  N_64
REMARK   10  A    between atoms: C_26  and  C_30
REMARK                            x       y       z     vdW  Elec       q    Type
REMARK                         _______ _______ _______ _____ _____    ______ ____
ROOT
ATOM      1  N   UNL     1      -0.757   2.089  -4.941  0.00  0.00    -0.281 N 
ATOM      2  C   UNL     1      -1.638   2.645  -5.795  0.00  0.00    +0.203 C 
ATOM      3  O   UNL     1      -2.747   2.951  -5.409  0.00  0.00    -0.277 OA
ATOM      4  H   UNL     1       0.130   1.845  -5.249  0.00  0.00    +0.155 HD
ENDROOT
BRANCH   1   9
ATOM      5  C   UNL     1      -0.356   1.310  -2.601  0.00  0.00    +0.091 A 
ATOM      6  C   UNL     1      -0.976   1.186  -1.292  0.00  0.00    -0.021 A 
ATOM      7  C   UNL     1      -2.248   1.634  -1.213  0.00  0.00    -0.004 A 
ATOM      8  S   UNL     1      -2.625   2.214  -2.843  0.00  0.00    -0.077 S 
ATOM      9  C   UNL     1      -1.117   1.866  -3.621  0.00  0.00    +0.086 A 
ATOM     10  C   UNL     1      -3.132   1.634  -0.005  0.00  0.00    +0.046 C 
ATOM     11  C   UNL     1      -2.512   0.703   1.048  0.00  0.00    -0.009 C 
ATOM     12  C   UNL     1      -1.021   1.036   1.187  0.00  0.00    +0.008 C 
ATOM     13  C   UNL     1      -0.274   0.598  -0.074  0.00  0.00    +0.037 C 
ATOM     14  C   UNL     1      -3.211   0.913   2.393  0.00  0.00    +0.008 C 
BRANCH   5  15
ATOM     15  C   UNL     1       1.020   0.865  -2.835  0.00  0.00    +0.342 C 
ATOM     16  O   UNL     1       1.237  -0.277  -3.190  0.00  0.00    -0.245 OA
BRANCH  15  17
ATOM     17  O   UNL     1       2.045   1.723  -2.656  0.00  0.00    -0.461 OA
BRANCH  17  19
ATOM     18  C   UNL     1       4.405   2.322  -2.653  0.00  0.00    +0.048 C 
ATOM     19  C   UNL     1       3.382   1.214  -2.906  0.00  0.00    +0.229 C 
ENDBRANCH  17  19
ENDBRANCH  15  17
ENDBRANCH   5  15
ENDBRANCH   1   9
BRANCH   2  20
ATOM     20  C   UNL     1      -1.247   2.888  -7.230  0.00  0.00    +0.014 C 
ATOM     21  C   UNL     1      -0.041   3.829  -7.278  0.00  0.00    -0.004 C 
BRANCH  20  22
ATOM     22  N   UNL     1      -2.381   3.503  -7.944  0.00  0.00    +0.388 N 
ATOM     23  H   UNL     1      -2.372   4.518  -7.783  0.00  0.00    -0.084 HD
ATOM     24  H   UNL     1      -3.260   3.108  -7.588  0.00  0.00    -0.084 HD
BRANCH  22  25
ATOM     25  C   UNL     1      -2.279   3.239  -9.391  0.00  0.00    -0.071 C 
ATOM     26  C   UNL     1      -2.993   4.356 -10.157  0.00  0.00    -0.016 C 
ATOM     27  C   UNL     1      -2.569   4.317 -11.627  0.00  0.00    -0.002 C 
ATOM     28  C   UNL     1      -1.055   4.115 -11.717  0.00  0.00    -0.000 C 
ATOM     29  C   UNL     1      -0.759   2.742 -12.324  0.00  0.00    -0.000 C 
ATOM     30  C   UNL     1      -1.004   1.657 -11.274  0.00  0.00    -0.000 C 
ATOM     31  C   UNL     1      -2.508   1.437 -11.107  0.00  0.00    -0.002 C 
ATOM     32  C   UNL     1      -2.941   1.897  -9.713  0.00  0.00    -0.016 C 
ENDBRANCH  22  25
ENDBRANCH  20  22
ENDBRANCH   2  20
TORSDOF 7
