REMARK  Name = ZINC11298057
REMARK  5 active torsions:
REMARK  status: ('A' for Active; 'I' for Inactive)
REMARK    1  A    between atoms: C_1  and  N_2
REMARK    2  A    between atoms: N_2  and  C_3
REMARK    3  A    between atoms: C_6  and  C_11
REMARK    4  A    between atoms: C_11  and  C_19
REMARK    5  A    between atoms: C_12  and  C_13
REMARK                            x       y       z     vdW  Elec       q    Type
REMARK                         _______ _______ _______ _____ _____    ______ ____
ROOT
ATOM      1  C   UNL     1      -0.082  -2.782  -0.011  0.00  0.00    +0.132 C 
ATOM      2  N   UNL     1       1.178  -2.035  -0.020  0.00  0.00    -0.306 N 
ATOM      3  C   UNL     1       2.455  -2.752  -0.036  0.00  0.00    +0.132 C 
ATOM      4  C   UNL     1       1.161  -0.655  -0.013  0.00  0.00    +0.222 A 
ATOM      5  N   UNL     1       2.304   0.023  -0.020  0.00  0.00    -0.194 NA
ATOM      6  C   UNL     1       2.288   1.355  -0.013  0.00  0.00    +0.177 A 
ATOM      7  N   UNL     1       1.125   2.006   0.002  0.00  0.00    -0.194 NA
ATOM      8  C   UNL     1      -0.016   1.325   0.009  0.00  0.00    +0.217 A 
ATOM      9  N   UNL     1       0.002  -0.004   0.002  0.00  0.00    -0.181 NA
ATOM     10  N   UNL     1      -1.221   1.999   0.019  0.00  0.00    -0.327 N 
ATOM     11  H   UNL     1      -2.054   1.502   0.020  0.00  0.00    +0.145 HD
ATOM     12  H   UNL     1      -1.234   2.969   0.024  0.00  0.00    +0.145 HD
ENDROOT
BRANCH   6  13
ATOM     13  C   UNL     1       3.557   2.110  -0.020  0.00  0.00    +0.097 C 
ATOM     14  C   UNL     1       3.539   3.491  -0.013  0.00  0.00    +0.037 C 
BRANCH  14  15
ATOM     15  C   UNL     1       4.751   4.212  -0.020  0.00  0.00    +0.015 A 
ATOM     16  C   UNL     1       4.953   5.590  -0.020  0.00  0.00    +0.031 A 
ATOM     17  C   UNL     1       6.252   6.028  -0.025  0.00  0.00    +0.025 A 
ATOM     18  C   UNL     1       7.261   5.115  -0.040  0.00  0.00    +0.061 A 
ATOM     19  S   UNL     1       6.425   3.596  -0.039  0.00  0.00    -0.096 S 
ATOM     20 BR   UNL     1       6.638   7.879  -0.019  0.00  0.00    -0.050 Br
ENDBRANCH  14  15
BRANCH  13  21
ATOM     21  C   UNL     1       4.806   1.410  -0.035  0.00  0.00    +0.103 C 
ATOM     22  N   UNL     1       5.797   0.855  -0.048  0.00  0.00    -0.191 NA
ENDBRANCH  13  21
ENDBRANCH   6  13
TORSDOF 3
