REMARK  Name = ZINC12559485
REMARK  12 active torsions:
REMARK  status: ('A' for Active; 'I' for Inactive)
REMARK    1  A    between atoms: C_1  and  N_2
REMARK    2  A    between atoms: C_6  and  S_28
REMARK    3  A    between atoms: C_10  and  C_11
REMARK    4  A    between atoms: C_11  and  C_12
REMARK    5  A    between atoms: C_12  and  C_13
REMARK    6  A    between atoms: N_15  and  C_16
REMARK    7  A    between atoms: C_16  and  C_17
REMARK    8  A    between atoms: C_17  and  C_18
REMARK    9  A    between atoms: C_18  and  C_19
REMARK   10  A    between atoms: C_20  and  C_26
REMARK   11  A    between atoms: C_21  and  N_25
REMARK   12  A    between atoms: S_28  and  N_31
REMARK                            x       y       z     vdW  Elec       q    Type
REMARK                         _______ _______ _______ _____ _____    ______ ____
ROOT
ATOM      1  C   UNL     1       0.031  -0.341   2.523  0.00  0.00    +0.083 C 
ENDROOT
BRANCH   1  11
ATOM      2  C   UNL     1      -0.018   1.461   0.010  0.00  0.00    +0.150 C 
ATOM      3  N   UNL     1       0.002  -0.004   0.002  0.00  0.00    -0.331 N 
ATOM      4  C   UNL     1       0.009  -0.816  -1.114  0.00  0.00    +0.069 A 
ATOM      5  C   UNL     1      -0.000  -0.579  -2.482  0.00  0.00    +0.030 A 
ATOM      6  C   UNL     1       0.011  -1.643  -3.360  0.00  0.00    +0.030 A 
ATOM      7  C   UNL     1       0.030  -2.946  -2.884  0.00  0.00    +0.108 A 
ATOM      8  C   UNL     1       0.038  -3.199  -1.542  0.00  0.00    +0.058 A 
ATOM      9  C   UNL     1       0.028  -2.136  -0.634  0.00  0.00    +0.091 A 
ATOM     10  N   UNL     1       0.033  -2.063   0.722  0.00  0.00    -0.232 NA
ATOM     11  C   UNL     1       0.024  -0.816   1.093  0.00  0.00    +0.111 A 
BRANCH   7  12
ATOM     12  S   UNL     1       0.043  -4.290  -4.024  0.00  0.00    +0.061 S 
ATOM     13  O   UNL     1      -0.490  -5.413  -3.334  0.00  0.00    -0.153 OA
ATOM     14  O   UNL     1      -0.519  -3.802  -5.234  0.00  0.00    -0.153 OA
BRANCH  12  15
ATOM     15  N   UNL     1       1.628  -4.643  -4.347  0.00  0.00    -0.177 NA
ATOM     16  C   UNL     1       2.332  -3.980  -5.453  0.00  0.00    +0.109 C 
ATOM     17  C   UNL     1       3.619  -3.349  -4.912  0.00  0.00    +0.017 C 
ATOM     18  C   UNL     1       4.444  -4.419  -4.194  0.00  0.00    +0.003 C 
ATOM     19  C   UNL     1       3.644  -4.975  -3.013  0.00  0.00    +0.017 C 
ATOM     20  C   UNL     1       2.360  -5.620  -3.529  0.00  0.00    +0.109 C 
ENDBRANCH  12  15
ENDBRANCH   7  12
ENDBRANCH   1  11
BRANCH   1  21
ATOM     21  C   UNL     1      -1.408  -0.199   3.021  0.00  0.00    +0.103 C 
BRANCH  21  22
ATOM     22  C   UNL     1      -1.400   0.277   4.451  0.00  0.00    +0.213 C 
ATOM     23  O   UNL     1      -0.347   0.482   5.016  0.00  0.00    -0.276 OA
ATOM     24  N   UNL     1      -2.564   0.474   5.102  0.00  0.00    -0.315 N 
ATOM     25  H   UNL     1      -3.406   0.310   4.650  0.00  0.00    +0.149 HD
BRANCH  24  26
ATOM     26  C   UNL     1      -2.556   0.936   6.492  0.00  0.00    +0.104 C 
BRANCH  26  27
ATOM     27  C   UNL     1      -3.996   1.079   6.991  0.00  0.00    +0.025 C 
BRANCH  27  28
ATOM     28  C   UNL     1      -3.988   1.561   8.443  0.00  0.00    +0.060 C 
BRANCH  28  29
ATOM     29  C   UNL     1      -5.406   1.701   8.933  0.00  0.00    +0.082 A 
ATOM     30  C   UNL     1      -6.206   2.863   8.837  0.00  0.00    +0.113 A 
ATOM     31  C   UNL     1      -7.437   2.558   9.410  0.00  0.00    +0.129 A 
ATOM     32  N   UNL     1      -7.375   1.277   9.828  0.00  0.00    -0.263 N 
ATOM     33  H   UNL     1      -8.088   0.788  10.267  0.00  0.00    +0.190 HD
ATOM     34  N   UNL     1      -6.109   0.770   9.515  0.00  0.00    -0.176 NA
BRANCH  31  35
ATOM     35  N   UNL     1      -8.520   3.409   9.529  0.00  0.00    -0.342 N 
ATOM     36  H   UNL     1      -8.463   4.317   9.194  0.00  0.00    +0.144 HD
ATOM     37  H   UNL     1      -9.338   3.097   9.947  0.00  0.00    +0.144 HD
ENDBRANCH  31  35
BRANCH  30  38
ATOM     38  C   UNL     1      -5.822   4.116   8.260  0.00  0.00    +0.104 C 
ATOM     39  N   UNL     1      -5.517   5.111   7.802  0.00  0.00    -0.191 NA
ENDBRANCH  30  38
ENDBRANCH  28  29
ENDBRANCH  27  28
ENDBRANCH  26  27
ENDBRANCH  24  26
ENDBRANCH  21  22
ENDBRANCH   1  21
TORSDOF 11
