REMARK  Name = ZINC13093236
REMARK  10 active torsions:
REMARK  status: ('A' for Active; 'I' for Inactive)
REMARK    1  A    between atoms: C_1  and  C_2
REMARK    2  A    between atoms: C_2  and  C_4
REMARK    3  A    between atoms: C_2  and  S_15
REMARK    4  A    between atoms: N_6  and  C_7
REMARK    5  A    between atoms: C_10  and  C_13
REMARK    6  A    between atoms: S_15  and  C_16
REMARK    7  A    between atoms: C_20  and  C_35
REMARK    8  A    between atoms: N_26  and  C_27
REMARK    9  A    between atoms: C_27  and  C_28
REMARK   10  A    between atoms: C_28  and  C_29
REMARK                            x       y       z     vdW  Elec       q    Type
REMARK                         _______ _______ _______ _____ _____    ______ ____
ROOT
ATOM      1  C   UNL     1       5.389  -3.074  -1.880  0.00  0.00    +0.173 A 
ATOM      2  N   UNL     1       6.504  -3.743  -1.714  0.00  0.00    -0.223 NA
ATOM      3  C   UNL     1       7.705  -3.120  -1.683  0.00  0.00    +0.080 A 
ATOM      4  C   UNL     1       8.893  -3.835  -1.506  0.00  0.00    +0.043 A 
ATOM      5  C   UNL     1      10.103  -3.153  -1.481  0.00  0.00    +0.065 A 
ATOM      6  C   UNL     1      10.137  -1.761  -1.631  0.00  0.00    +0.016 A 
ATOM      7  C   UNL     1       8.983  -1.052  -1.803  0.00  0.00    +0.016 A 
ATOM      8  C   UNL     1       7.758  -1.716  -1.832  0.00  0.00    +0.065 A 
ATOM      9  C   UNL     1       6.491  -0.991  -2.022  0.00  0.00    +0.262 A 
ATOM     10  O   UNL     1       6.470   0.217  -2.161  0.00  0.00    -0.267 OA
ATOM     11  N   UNL     1       5.349  -1.718  -2.032  0.00  0.00    -0.287 N 
ENDROOT
BRANCH   5  12
ATOM     12  C   UNL     1      11.365  -3.903  -1.295  0.00  0.00    +0.387 C 
ATOM     13  O   UNL     1      11.340  -5.111  -1.165  0.00  0.00    -0.241 OA
ATOM     14  O   UNL     1      12.541  -3.247  -1.269  0.00  0.00    -0.241 OA
ENDBRANCH   5  12
BRANCH   1  15
ATOM     15  S   UNL     1       3.870  -3.967  -1.909  0.00  0.00    -0.075 S 
BRANCH  15  17
ATOM     16  C   UNL     1       5.345  -6.053  -2.878  0.00  0.00    +0.029 C 
ATOM     17  C   UNL     1       4.491  -5.651  -1.673  0.00  0.00    +0.137 C 
BRANCH  17  18
ATOM     18  C   UNL     1       3.329  -6.601  -1.542  0.00  0.00    +0.230 C 
ATOM     19  O   UNL     1       2.256  -6.318  -2.030  0.00  0.00    -0.274 OA
ATOM     20  N   UNL     1       3.483  -7.766  -0.880  0.00  0.00    -0.285 N 
ATOM     21  H   UNL     1       4.358  -8.028  -0.556  0.00  0.00    +0.155 HD
BRANCH  20  22
ATOM     22  C   UNL     1       2.381  -8.595  -0.663  0.00  0.00    +0.033 A 
ATOM     23  C   UNL     1       1.124  -8.038  -0.454  0.00  0.00    +0.024 A 
ATOM     24  C   UNL     1       0.034  -8.853  -0.243  0.00  0.00    +0.020 A 
ATOM     25  C   UNL     1       0.195 -10.241  -0.230  0.00  0.00    +0.052 A 
ATOM     26  C   UNL     1       1.460 -10.797  -0.435  0.00  0.00    +0.020 A 
ATOM     27  C   UNL     1       2.545  -9.976  -0.650  0.00  0.00    +0.024 A 
BRANCH  25  28
ATOM     28  C   UNL     1      -0.936 -11.092  -0.006  0.00  0.00    +0.099 C 
ATOM     29  N   UNL     1      -1.832 -11.767   0.171  0.00  0.00    -0.191 NA
ENDBRANCH  25  28
ENDBRANCH  20  22
ENDBRANCH  17  18
ENDBRANCH  15  17
ENDBRANCH   1  15
BRANCH  11  30
ATOM     30  C   UNL     1       4.061  -1.044  -2.212  0.00  0.00    +0.132 C 
BRANCH  30  31
ATOM     31  C   UNL     1       3.494  -0.654  -0.846  0.00  0.00    +0.057 C 
BRANCH  31  32
ATOM     32  C   UNL     1       2.168   0.039  -1.032  0.00  0.00    -0.046 A 
ATOM     33  C   UNL     1       0.999  -0.698  -1.048  0.00  0.00    +0.004 A 
ATOM     34  C   UNL     1      -0.216  -0.062  -1.219  0.00  0.00    +0.000 A 
ATOM     35  C   UNL     1      -0.263   1.310  -1.374  0.00  0.00    +0.000 A 
ATOM     36  C   UNL     1       0.906   2.048  -1.357  0.00  0.00    +0.000 A 
ATOM     37  C   UNL     1       2.122   1.412  -1.186  0.00  0.00    +0.004 A 
ENDBRANCH  31  32
ENDBRANCH  30  31
ENDBRANCH  11  30
TORSDOF 9
