REMARK  Name = ZINC58845645
REMARK  4 active torsions:
REMARK  status: ('A' for Active; 'I' for Inactive)
REMARK    1  A    between atoms: C_4  and  N_7
REMARK    2  A    between atoms: N_7  and  S_8
REMARK    3  A    between atoms: S_8  and  C_11
REMARK    4  A    between atoms: C_24  and  C_27
REMARK                            x       y       z     vdW  Elec       q    Type
REMARK                         _______ _______ _______ _____ _____    ______ ____
ROOT
ATOM      1  C   UNL     1       2.624  -3.189   0.323  0.00  0.00    +0.109 A 
ATOM      2  C   UNL     1       1.293  -3.157   0.696  0.00  0.00    +0.030 A 
ATOM      3  C   UNL     1       0.422  -4.112   0.212  0.00  0.00    +0.025 A 
ATOM      4  C   UNL     1       0.881  -5.102  -0.651  0.00  0.00    +0.031 A 
ATOM      5  C   UNL     1       2.213  -5.128  -1.037  0.00  0.00    -0.018 A 
ATOM      6  C   UNL     1       3.079  -4.165  -0.541  0.00  0.00    +0.034 A 
ATOM      7  C   UNL     1       2.733  -6.149  -1.991  0.00  0.00    +0.049 C 
ATOM      8  C   UNL     1       3.527  -7.225  -1.294  0.00  0.00    -0.023 C 
ATOM      9  C   UNL     1       3.324  -8.383  -1.870  0.00  0.00    -0.030 C 
ATOM     10  C   UNL     1       2.362  -8.248  -3.030  0.00  0.00    +0.033 C 
ATOM     11  C   UNL     1       1.653  -6.899  -2.768  0.00  0.00    +0.029 C 
ATOM     12  C   UNL     1       0.400  -7.173  -1.962  0.00  0.00    +0.105 C 
ATOM     13  N   UNL     1      -0.003  -6.069  -1.116  0.00  0.00    -0.336 N 
ATOM     14  H   UNL     1      -0.932  -6.013  -0.841  0.00  0.00    +0.147 HD
ENDROOT
BRANCH  12  15
ATOM     15  C   UNL     1       0.632  -8.399  -1.118  0.00  0.00    -0.023 A 
ATOM     16  C   UNL     1       1.339  -8.299   0.066  0.00  0.00    +0.009 A 
ATOM     17  C   UNL     1       1.554  -9.421   0.844  0.00  0.00    +0.050 A 
ATOM     18  C   UNL     1       1.062 -10.650   0.438  0.00  0.00    +0.166 A 
ATOM     19  C   UNL     1       0.350 -10.752  -0.754  0.00  0.00    +0.167 A 
ATOM     20  C   UNL     1       0.133  -9.622  -1.526  0.00  0.00    +0.055 A 
ATOM     21  O   UNL     1      -0.024 -12.053  -0.929  0.00  0.00    -0.453 OA
ATOM     22  C   UNL     1       0.814 -12.817  -0.042  0.00  0.00    +0.466 C 
ATOM     23  O   UNL     1       1.134 -11.888   1.010  0.00  0.00    -0.453 OA
ENDBRANCH  12  15
BRANCH   1  24
ATOM     24  S   UNL     1       3.740  -1.977   0.946  0.00  0.00    +0.072 S 
ATOM     25  O   UNL     1       5.050  -2.497   0.761  0.00  0.00    -0.150 OA
ATOM     26  O   UNL     1       3.248  -1.589   2.221  0.00  0.00    -0.150 OA
BRANCH  24  27
ATOM     27  N   UNL     1       3.617  -0.648  -0.034  0.00  0.00    -0.216 N 
ATOM     28  H   UNL     1       3.319   0.199   0.333  0.00  0.00    +0.174 HD
BRANCH  27  32
ATOM     29  C   UNL     1       4.584  -0.940  -4.073  0.00  0.00    +0.000 A 
ATOM     30  C   UNL     1       3.421  -0.299  -3.687  0.00  0.00    +0.002 A 
ATOM     31  C   UNL     1       3.097  -0.200  -2.348  0.00  0.00    +0.024 A 
ATOM     32  C   UNL     1       3.941  -0.746  -1.389  0.00  0.00    +0.048 A 
ATOM     33  C   UNL     1       5.108  -1.390  -1.780  0.00  0.00    +0.024 A 
ATOM     34  C   UNL     1       5.426  -1.485  -3.121  0.00  0.00    +0.002 A 
ENDBRANCH  27  32
ENDBRANCH  24  27
ENDBRANCH   1  24
TORSDOF 4
