REMARK  Name = ZINC09034187
REMARK  13 active torsions:
REMARK  status: ('A' for Active; 'I' for Inactive)
REMARK    1  A    between atoms: C_1  and  N_64
REMARK    2  A    between atoms: C_4  and  C_5
REMARK    3  A    between atoms: C_8  and  O_13
REMARK    4  A    between atoms: C_9  and  O_11
REMARK    5  A    between atoms: O_11  and  C_12
REMARK    6  A    between atoms: O_13  and  C_14
REMARK    7  A    between atoms: C_18  and  C_26
REMARK    8  A    between atoms: C_20  and  C_24
REMARK    9  A    between atoms: C_21  and  N_23
REMARK   10  A    between atoms: C_29  and  O_34
REMARK   11  A    between atoms: C_30  and  O_32
REMARK   12  A    between atoms: O_32  and  C_33
REMARK   13  A    between atoms: O_34  and  C_35
REMARK                            x       y       z     vdW  Elec       q    Type
REMARK                         _______ _______ _______ _____ _____    ______ ____
ROOT
ATOM      1  C   UNL     1       4.040  -3.297   3.807  0.00  0.00    -0.095 C 
ATOM      2  C   UNL     1       3.239  -1.278   4.881  0.00  0.00    -0.039 C 
ATOM      3  C   UNL     1       2.567  -0.803   6.152  0.00  0.00    -0.021 C 
ATOM      4  C   UNL     1       1.520   0.040   6.115  0.00  0.00    +0.013 C 
ATOM      5  C   UNL     1       3.101  -1.306   7.435  0.00  0.00    +0.130 C 
ATOM      6  C   UNL     1       3.993  -2.297   7.436  0.00  0.00    -0.031 C 
ATOM      7  C   UNL     1       4.488  -2.910   6.151  0.00  0.00    -0.043 C 
ATOM      8  C   UNL     1       4.542  -2.829   8.739  0.00  0.00    +0.092 C 
ATOM      9  C   UNL     1       3.660  -2.421   9.884  0.00  0.00    +0.098 C 
ATOM     10  C   UNL     1       2.774  -1.403   9.748  0.00  0.00    +0.199 C 
ATOM     11  O   UNL     1       2.662  -0.738   8.585  0.00  0.00    -0.441 OA
ATOM     12  N   UNL     1       3.514  -2.719   5.063  0.00  0.00    +0.383 N 
ATOM     13  H   UNL     1       2.640  -3.197   5.311  0.00  0.00    -0.081 HD
ENDROOT
BRANCH   4  14
ATOM     14  C   UNL     1       1.116   0.656   4.840  0.00  0.00    -0.021 A 
ATOM     15  C   UNL     1      -0.231   0.945   4.597  0.00  0.00    +0.012 A 
ATOM     16  C   UNL     1      -0.607   1.522   3.402  0.00  0.00    +0.050 A 
ATOM     17  C   UNL     1       0.348   1.818   2.440  0.00  0.00    +0.162 A 
ATOM     18  C   UNL     1       1.691   1.529   2.673  0.00  0.00    +0.162 A 
ATOM     19  C   UNL     1       2.077   0.955   3.870  0.00  0.00    +0.057 A 
BRANCH  18  20
ATOM     20  O   UNL     1       2.623   1.816   1.725  0.00  0.00    -0.491 OA
ATOM     21  C   UNL     1       3.981   1.492   2.031  0.00  0.00    +0.277 C 
ENDBRANCH  18  20
BRANCH  17  22
ATOM     22  O   UNL     1      -0.028   2.387   1.264  0.00  0.00    -0.491 OA
ATOM     23  C   UNL     1      -1.422   2.652   1.089  0.00  0.00    +0.277 C 
ENDBRANCH  17  22
ENDBRANCH   4  14
BRANCH   8  24
ATOM     24  C   UNL     1       5.927  -2.276   8.954  0.00  0.00    -0.031 A 
ATOM     25  C   UNL     1       6.117  -0.910   9.056  0.00  0.00    +0.008 A 
ATOM     26  C   UNL     1       7.385  -0.398   9.255  0.00  0.00    +0.050 A 
ATOM     27  C   UNL     1       8.470  -1.255   9.353  0.00  0.00    +0.162 A 
ATOM     28  C   UNL     1       8.280  -2.629   9.250  0.00  0.00    +0.162 A 
ATOM     29  C   UNL     1       7.005  -3.136   9.056  0.00  0.00    +0.054 A 
BRANCH  28  30
ATOM     30  O   UNL     1       9.341  -3.474   9.345  0.00  0.00    -0.491 OA
ATOM     31  C   UNL     1       9.071  -4.872   9.230  0.00  0.00    +0.277 C 
ENDBRANCH  28  30
BRANCH  27  32
ATOM     32  O   UNL     1       9.719  -0.753   9.549  0.00  0.00    -0.491 OA
ATOM     33  C   UNL     1       9.839   0.668   9.645  0.00  0.00    +0.277 C 
ENDBRANCH  27  32
ENDBRANCH   8  24
BRANCH  10  34
ATOM     34  N   UNL     1       1.981  -1.047  10.811  0.00  0.00    -0.328 N 
ATOM     35  H   UNL     1       1.345  -0.320  10.720  0.00  0.00    +0.145 HD
ATOM     36  H   UNL     1       2.057  -1.523  11.652  0.00  0.00    +0.145 HD
ENDBRANCH  10  34
BRANCH   9  37
ATOM     37  C   UNL     1       3.757  -3.113  11.134  0.00  0.00    +0.101 C 
ATOM     38  N   UNL     1       3.833  -3.663  12.125  0.00  0.00    -0.191 NA
ENDBRANCH   9  37
TORSDOF 8
