REMARK  Name = ZINC20445655
REMARK  7 active torsions:
REMARK  status: ('A' for Active; 'I' for Inactive)
REMARK    1  A    between atoms: C_1  and  C_2
REMARK    2  A    between atoms: C_2  and  C_3
REMARK    3  A    between atoms: C_6  and  N_9
REMARK    4  A    between atoms: C_10  and  C_12
REMARK    5  A    between atoms: C_14  and  C_25
REMARK    6  A    between atoms: C_18  and  C_23
REMARK    7  A    between atoms: C_23  and  C_24
REMARK                            x       y       z     vdW  Elec       q    Type
REMARK                         _______ _______ _______ _____ _____    ______ ____
ROOT
ATOM      1  C   UNL     1       1.897   1.224  -1.179  0.00  0.00    +0.166 C 
ATOM      2  C   UNL     1       1.082   1.592   0.068  0.00  0.00    +0.140 C 
ATOM      3  N   UNL     1      -0.280   1.067  -0.038  0.00  0.00    -0.272 N 
ATOM      4  N   UNL     1      -0.963   1.532  -1.115  0.00  0.00    -0.225 N 
ATOM      5  C   UNL     1      -2.317   1.575  -1.289  0.00  0.00    +0.151 A 
ATOM      6  N   UNL     1      -2.542   2.082  -2.470  0.00  0.00    -0.132 NA
ATOM      7  N   UNL     1      -1.427   2.365  -3.051  0.00  0.00    -0.121 NA
ATOM      8  C   UNL     1      -0.435   2.053  -2.263  0.00  0.00    +0.209 A 
ATOM      9  S   UNL     1       1.294   2.242  -2.559  0.00  0.00    -0.069 S 
ATOM     10  H   UNL     1      -0.658   0.362   0.717  0.00  0.00    +0.167 HD
ENDROOT
BRANCH   2  11
ATOM     11  C   UNL     1       1.747   1.010   1.288  0.00  0.00    -0.024 A 
ATOM     12  C   UNL     1       1.545  -0.317   1.618  0.00  0.00    +0.007 A 
ATOM     13  C   UNL     1       2.159  -0.853   2.735  0.00  0.00    +0.020 A 
ATOM     14  C   UNL     1       2.967  -0.058   3.528  0.00  0.00    +0.041 A 
ATOM     15  C   UNL     1       3.165   1.271   3.200  0.00  0.00    +0.020 A 
ATOM     16  C   UNL     1       2.554   1.805   2.080  0.00  0.00    +0.007 A 
ATOM     17 CL   UNL     1       3.733  -0.729   4.934  0.00  0.00    -0.084 Cl
ENDBRANCH   2  11
BRANCH   1  19
ATOM     18  N   UNL     1       0.778  -0.614  -2.399  0.00  0.00    -0.285 N 
ATOM     19  C   UNL     1       1.708  -0.236  -1.499  0.00  0.00    +0.233 C 
ATOM     20  O   UNL     1       2.393  -1.072  -0.948  0.00  0.00    -0.274 OA
ATOM     21  H   UNL     1       0.211   0.147  -2.956  0.00  0.00    +0.155 HD
BRANCH  18  25
ATOM     22  C   UNL     1       0.053  -4.661  -3.071  0.00  0.00    -0.048 A 
ATOM     23  C   UNL     1      -0.992  -3.755  -3.119  0.00  0.00    +0.005 A 
ATOM     24  C   UNL     1      -0.754  -2.413  -2.896  0.00  0.00    +0.023 A 
ATOM     25  C   UNL     1       0.535  -1.973  -2.624  0.00  0.00    +0.033 A 
ATOM     26  C   UNL     1       1.582  -2.884  -2.584  0.00  0.00    +0.023 A 
ATOM     27  C   UNL     1       1.337  -4.226  -2.802  0.00  0.00    +0.005 A 
BRANCH  22  29
ATOM     28  C   UNL     1      -0.068  -6.426  -4.808  0.00  0.00    +0.009 C 
ATOM     29  C   UNL     1      -0.210  -6.124  -3.315  0.00  0.00    +0.032 C 
ENDBRANCH  22  29
ENDBRANCH  18  25
ENDBRANCH   1  19
BRANCH   5  30
ATOM     30  C   UNL     1      -3.359   1.121  -0.299  0.00  0.00    +0.074 C 
ATOM     31  C   UNL     1      -3.743   2.291   0.610  0.00  0.00    +0.012 C 
ENDBRANCH   5  30
TORSDOF 5
