REMARK  Name = ZINC21581226
REMARK  6 active torsions:
REMARK  status: ('A' for Active; 'I' for Inactive)
REMARK    1  A    between atoms: C_6  and  C_7
REMARK    2  A    between atoms: N_12  and  C_13
REMARK    3  A    between atoms: C_13  and  C_14
REMARK    4  A    between atoms: N_16  and  C_17
REMARK    5  A    between atoms: C_17  and  C_18
REMARK    6  A    between atoms: N_20  and  C_21
REMARK                            x       y       z     vdW  Elec       q    Type
REMARK                         _______ _______ _______ _____ _____    ______ ____
ROOT
ATOM      1  C   UNL     1       5.368   3.109  -4.655  0.00  0.00    +0.019 C 
ENDROOT
BRANCH   1   6
ATOM      2  C   UNL     1       5.556   2.120  -2.445  0.00  0.00    -0.037 C 
ATOM      3  C   UNL     1       6.716   1.467  -1.670  0.00  0.00    -0.013 C 
ATOM      4  C   UNL     1       7.690   0.955  -2.756  0.00  0.00    -0.020 C 
ATOM      5  C   UNL     1       7.326   1.825  -3.985  0.00  0.00    -0.077 C 
ATOM      6  N   UNL     1       5.849   1.955  -3.885  0.00  0.00    +0.390 N 
ATOM      7  H   UNL     1       5.332   1.079  -4.303  0.00  0.00    -0.080 HD
BRANCH   2  13
ATOM      8  C   UNL     1       3.948   0.218  -2.683  0.00  0.00    +0.006 A 
ATOM      9  C   UNL     1       2.759  -0.414  -2.373  0.00  0.00    +0.049 A 
ATOM     10  C   UNL     1       1.875   0.169  -1.478  0.00  0.00    +0.162 A 
ATOM     11  C   UNL     1       2.189   1.389  -0.892  0.00  0.00    +0.162 A 
ATOM     12  C   UNL     1       3.383   2.019  -1.209  0.00  0.00    +0.051 A 
ATOM     13  C   UNL     1       4.259   1.433  -2.102  0.00  0.00    -0.057 A 
ATOM     14  O   UNL     1       1.339   1.975  -0.005  0.00  0.00    -0.485 OA
ATOM     15  C   UNL     1      -0.011   1.499   0.004  0.00  0.00    +0.270 C 
ATOM     16  C   UNL     1       0.021  -0.035  -0.003  0.00  0.00    +0.270 C 
ATOM     17  O   UNL     1       0.706  -0.464  -1.185  0.00  0.00    -0.485 OA
ENDBRANCH   2  13
ENDBRANCH   1   6
BRANCH   1  18
ATOM     18  C   UNL     1       5.894   3.026  -6.065  0.00  0.00    +0.197 C 
ATOM     19  O   UNL     1       6.600   2.097  -6.395  0.00  0.00    -0.278 OA
ATOM     20  N   UNL     1       5.580   3.985  -6.959  0.00  0.00    -0.308 N 
ATOM     21  H   UNL     1       4.940   4.827  -6.660  0.00  0.00    +0.149 HD
BRANCH  20  22
ATOM     22  C   UNL     1       6.092   3.904  -8.330  0.00  0.00    +0.200 C 
BRANCH  22  23
ATOM     23  C   UNL     1       5.598   5.088  -9.120  0.00  0.00    +0.234 C 
ATOM     24  O   UNL     1       4.889   5.918  -8.591  0.00  0.00    -0.274 OA
ATOM     25  N   UNL     1       5.945   5.226 -10.416  0.00  0.00    -0.284 N 
ATOM     26  H   UNL     1       6.648   4.516 -10.875  0.00  0.00    +0.155 HD
BRANCH  25  27
ATOM     27  C   UNL     1       5.409   6.272 -11.177  0.00  0.00    +0.036 A 
ATOM     28  C   UNL     1       5.129   6.079 -12.523  0.00  0.00    +0.026 A 
ATOM     29  C   UNL     1       4.596   7.110 -13.272  0.00  0.00    +0.043 A 
ATOM     30  C   UNL     1       4.351   8.339 -12.684  0.00  0.00    +0.159 A 
ATOM     31  C   UNL     1       4.635   8.536 -11.341  0.00  0.00    +0.160 A 
ATOM     32  C   UNL     1       5.163   7.504 -10.588  0.00  0.00    +0.064 A 
ATOM     33  F   UNL     1       4.394   9.736 -10.769  0.00  0.00    -0.202 F 
ATOM     34  F   UNL     1       3.834   9.348 -13.420  0.00  0.00    -0.202 F 
ENDBRANCH  25  27
ENDBRANCH  22  23
ENDBRANCH  20  22
ENDBRANCH   1  18
TORSDOF 6
