REMARK  Name = ZINC00859086
REMARK  6 active torsions:
REMARK  status: ('A' for Active; 'I' for Inactive)
REMARK    1  A    between atoms: C_1  and  C_2
REMARK    2  A    between atoms: C_5  and  N_8
REMARK    3  A    between atoms: N_8  and  C_9
REMARK    4  A    between atoms: C_15  and  N_17
REMARK    5  A    between atoms: N_17  and  S_18
REMARK    6  A    between atoms: S_18  and  C_21
REMARK                            x       y       z     vdW  Elec       q    Type
REMARK                         _______ _______ _______ _____ _____    ______ ____
ROOT
ATOM      1  C   UNL     1       0.718  -0.497  -1.257  0.00  0.00    +0.089 C 
ATOM      2  C   UNL     1       2.154   0.032  -1.268  0.00  0.00    +0.024 C 
ATOM      3  C   UNL     1       2.133   1.562  -1.259  0.00  0.00    +0.002 C 
ATOM      4  C   UNL     1       1.417   2.055  -0.000  0.00  0.00    +0.002 C 
ATOM      5  C   UNL     1      -0.019   1.526   0.010  0.00  0.00    +0.022 C 
ATOM      6  C   UNL     1       0.002  -0.004   0.002  0.00  0.00    +0.097 C 
ENDROOT
BRANCH   1   7
ATOM      7  N   UNL     1       0.010  -0.012  -2.444  0.00  0.00    -0.339 N 
ATOM      8  H   UNL     1      -0.532   0.791  -2.391  0.00  0.00    +0.146 HD
BRANCH   7  13
ATOM      9  C   UNL     1       0.435  -2.827  -7.348  0.00  0.00    +0.044 C 
ATOM     10  C   UNL     1       0.322  -2.079  -6.045  0.00  0.00    -0.050 A 
ATOM     11  C   UNL     1      -0.451  -0.935  -5.971  0.00  0.00    +0.005 A 
ATOM     12  C   UNL     1      -0.557  -0.247  -4.778  0.00  0.00    +0.023 A 
ATOM     13  C   UNL     1       0.114  -0.706  -3.652  0.00  0.00    +0.027 A 
ATOM     14  C   UNL     1       0.894  -1.852  -3.731  0.00  0.00    +0.023 A 
ATOM     15  C   UNL     1       0.991  -2.538  -4.926  0.00  0.00    +0.005 A 
ENDBRANCH   7  13
ENDBRANCH   1   7
BRANCH   6  16
ATOM     16  N   UNL     1      -1.372  -0.511   0.012  0.00  0.00    -0.185 NA
ATOM     17  H   UNL     1      -1.861  -0.606  -0.820  0.00  0.00    +0.148 HD
BRANCH  16  18
ATOM     18  S   UNL     1      -2.092  -0.923   1.446  0.00  0.00    +0.059 S 
ATOM     19  O   UNL     1      -3.411  -1.347   1.131  0.00  0.00    -0.153 OA
ATOM     20  O   UNL     1      -1.170  -1.752   2.140  0.00  0.00    -0.153 OA
BRANCH  18  21
ATOM     21  C   UNL     1      -2.251   0.555   2.392  0.00  0.00    +0.105 A 
ATOM     22  C   UNL     1      -1.239   0.937   3.252  0.00  0.00    +0.028 A 
ATOM     23  C   UNL     1      -1.362   2.099   3.992  0.00  0.00    +0.002 A 
ATOM     24  C   UNL     1      -2.501   2.874   3.877  0.00  0.00    +0.000 A 
ATOM     25  C   UNL     1      -3.515   2.489   3.021  0.00  0.00    +0.002 A 
ATOM     26  C   UNL     1      -3.391   1.329   2.278  0.00  0.00    +0.028 A 
ENDBRANCH  18  21
ENDBRANCH  16  18
ENDBRANCH   6  16
TORSDOF 5
