REMARK  Name = ZINC23270657
REMARK  5 active torsions:
REMARK  status: ('A' for Active; 'I' for Inactive)
REMARK    1  A    between atoms: C_4  and  C_7
REMARK    2  A    between atoms: C_7  and  C_29
REMARK    3  A    between atoms: N_8  and  N_9
REMARK    4  A    between atoms: C_10  and  C_12
REMARK    5  A    between atoms: C_12  and  N_13
REMARK                            x       y       z     vdW  Elec       q    Type
REMARK                         _______ _______ _______ _____ _____    ______ ____
ROOT
ATOM      1  N   UNL     1       3.391   5.209   1.429  0.00  0.00    -0.205 N 
ATOM      2  C   UNL     1       3.835   4.015   0.989  0.00  0.00    +0.250 C 
ATOM      3  O   UNL     1       4.127   3.146   1.783  0.00  0.00    -0.272 OA
ATOM      4  H   UNL     1       3.126   5.997   0.709  0.00  0.00    +0.177 HD
ENDROOT
BRANCH   1   6
ATOM      5  C   UNL     1       2.947   6.637   3.236  0.00  0.00    +0.096 C 
ATOM      6  N   UNL     1       3.267   5.447   2.805  0.00  0.00    -0.179 NA
BRANCH   5  10
ATOM      7  C   UNL     1       2.184   7.267   7.368  0.00  0.00    +0.000 A 
ATOM      8  C   UNL     1       2.307   5.979   6.879  0.00  0.00    +0.001 A 
ATOM      9  C   UNL     1       2.554   5.768   5.538  0.00  0.00    +0.010 A 
ATOM     10  C   UNL     1       2.681   6.857   4.676  0.00  0.00    +0.002 A 
ATOM     11  C   UNL     1       2.562   8.153   5.176  0.00  0.00    +0.010 A 
ATOM     12  C   UNL     1       2.309   8.351   6.518  0.00  0.00    +0.001 A 
ENDBRANCH   5  10
BRANCH   5  13
ATOM     13  C   UNL     1       2.850   7.768   2.284  0.00  0.00    +0.002 A 
ATOM     14  C   UNL     1       3.791   7.906   1.263  0.00  0.00    +0.010 A 
ATOM     15  C   UNL     1       3.691   8.958   0.376  0.00  0.00    +0.001 A 
ATOM     16  C   UNL     1       2.669   9.882   0.505  0.00  0.00    +0.000 A 
ATOM     17  C   UNL     1       1.737   9.753   1.519  0.00  0.00    +0.001 A 
ATOM     18  C   UNL     1       1.822   8.702   2.409  0.00  0.00    +0.010 A 
ENDBRANCH   5  13
ENDBRANCH   1   6
BRANCH   2  19
ATOM     19  C   UNL     1       3.967   3.760  -0.490  0.00  0.00    +0.215 C 
BRANCH  19  20
ATOM     20  N   UNL     1       4.465   2.399  -0.708  0.00  0.00    -0.215 N 
ATOM     21  C   UNL     1       3.674   1.316  -0.850  0.00  0.00    +0.251 C 
ATOM     22  O   UNL     1       2.462   1.285  -0.826  0.00  0.00    -0.272 OA
ATOM     23  C   UNL     1       4.616   0.150  -1.051  0.00  0.00    +0.138 C 
ATOM     24  C   UNL     1       4.381  -0.490  -2.413  0.00  0.00    +0.040 C 
ATOM     25  C   UNL     1       3.061  -1.270  -2.362  0.00  0.00    +0.008 C 
ATOM     26  C   UNL     1       3.249  -2.479  -1.448  0.00  0.00    +0.035 C 
ATOM     27  C   UNL     1       3.819  -2.057  -0.119  0.00  0.00    -0.042 A 
ATOM     28  C   UNL     1       4.453  -0.847   0.062  0.00  0.00    -0.012 A 
ATOM     29  C   UNL     1       4.964  -0.519   1.311  0.00  0.00    +0.006 A 
ATOM     30  C   UNL     1       4.840  -1.394   2.371  0.00  0.00    +0.000 A 
ATOM     31  C   UNL     1       4.202  -2.606   2.189  0.00  0.00    +0.000 A 
ATOM     32  C   UNL     1       3.694  -2.935   0.949  0.00  0.00    +0.004 A 
ATOM     33  N   UNL     1       5.952   0.760  -0.996  0.00  0.00    -0.281 N 
ATOM     34  C   UNL     1       5.762   2.077  -0.792  0.00  0.00    +0.310 C 
ATOM     35  O   UNL     1       6.666   2.884  -0.696  0.00  0.00    -0.252 OA
ATOM     36  H   UNL     1       6.848   0.133  -1.115  0.00  0.00    +0.152 HD
ENDBRANCH  19  20
ENDBRANCH   2  19
TORSDOF 5
