REMARK  Name = ZINC16042844
REMARK  7 active torsions:
REMARK  status: ('A' for Active; 'I' for Inactive)
REMARK    1  A    between atoms: C_1  and  C_2
REMARK    2  A    between atoms: C_2  and  C_3
REMARK    3  A    between atoms: C_2  and  C_4
REMARK    4  A    between atoms: C_7  and  C_10
REMARK    5  A    between atoms: N_29  and  C_32
REMARK    6  A    between atoms: C_32  and  C_33
REMARK    7  A    between atoms: C_33  and  C_34
REMARK                            x       y       z     vdW  Elec       q    Type
REMARK                         _______ _______ _______ _____ _____    ______ ____
ROOT
ATOM      1  C   UNL     1      -2.459   4.134  -0.232  0.00  0.00    +0.154 C 
ATOM      2  C   UNL     1      -3.409   3.588   0.809  0.00  0.00    +0.046 A 
ATOM      3  C   UNL     1      -3.200   2.433   1.477  0.00  0.00    -0.015 A 
ATOM      4  C   UNL     1      -4.323   2.253   2.375  0.00  0.00    +0.003 A 
ATOM      5  C   UNL     1      -4.649   1.254   3.297  0.00  0.00    +0.010 A 
ATOM      6  C   UNL     1      -5.821   1.413   3.995  0.00  0.00    +0.001 A 
ATOM      7  C   UNL     1      -6.650   2.505   3.803  0.00  0.00    +0.002 A 
ATOM      8  C   UNL     1      -6.352   3.508   2.897  0.00  0.00    +0.026 A 
ATOM      9  C   UNL     1      -5.169   3.374   2.174  0.00  0.00    +0.047 A 
ATOM     10  N   UNL     1      -4.584   4.159   1.221  0.00  0.00    -0.356 N 
ATOM     11  H   UNL     1      -4.946   4.994   0.887  0.00  0.00    +0.166 HD
ATOM     12  C   UNL     1      -2.002   1.538   1.289  0.00  0.00    +0.069 C 
ATOM     13  C   UNL     1      -1.319   1.897  -0.044  0.00  0.00    +0.167 C 
ATOM     14  N   UNL     1      -1.208   3.352  -0.143  0.00  0.00    -0.276 N 
ATOM     15  C   UNL     1      -0.039   3.995  -0.160  0.00  0.00    +0.234 C 
ATOM     16  O   UNL     1      -0.061   5.208  -0.180  0.00  0.00    -0.274 OA
ATOM     17  C   UNL     1       1.295   3.323  -0.156  0.00  0.00    +0.203 C 
ATOM     18  N   UNL     1       1.177   1.875  -0.163  0.00  0.00    -0.291 N 
ATOM     19  C   UNL     1       0.015   1.226  -0.113  0.00  0.00    +0.237 C 
ATOM     20  O   UNL     1       0.041   0.014  -0.131  0.00  0.00    -0.274 OA
ENDROOT
BRANCH   1  24
ATOM     21  C   UNL     1      -1.653   8.255   0.555  0.00  0.00    -0.045 A 
ATOM     22  C   UNL     1      -2.046   7.856  -0.709  0.00  0.00    +0.004 A 
ATOM     23  C   UNL     1      -2.307   6.523  -0.964  0.00  0.00    +0.006 A 
ATOM     24  C   UNL     1      -2.175   5.588   0.045  0.00  0.00    -0.021 A 
ATOM     25  C   UNL     1      -1.787   5.987   1.311  0.00  0.00    +0.006 A 
ATOM     26  C   UNL     1      -1.522   7.320   1.565  0.00  0.00    +0.004 A 
BRANCH  21  28
ATOM     27  C   UNL     1      -2.310  10.212   1.928  0.00  0.00    +0.012 C 
ATOM     28  C   UNL     1      -1.368   9.708   0.832  0.00  0.00    +0.013 C 
ATOM     29  C   UNL     1       0.082   9.865   1.294  0.00  0.00    +0.012 C 
ENDBRANCH  21  28
ENDBRANCH   1  24
BRANCH  18  30
ATOM     30  C   UNL     1       2.408   1.082  -0.229  0.00  0.00    +0.113 C 
BRANCH  30  31
ATOM     31  C   UNL     1       2.767   0.819  -1.693  0.00  0.00    +0.056 C 
BRANCH  31  32
ATOM     32  C   UNL     1       4.033   0.004  -1.761  0.00  0.00    -0.021 A 
ATOM     33  C   UNL     1       5.280   0.477  -1.910  0.00  0.00    +0.087 A 
ATOM     34  N   UNL     1       6.173  -0.559  -1.927  0.00  0.00    -0.360 N 
ATOM     35  H   UNL     1       7.134  -0.466  -2.025  0.00  0.00    +0.165 HD
ATOM     36  C   UNL     1       5.505  -1.755  -1.787  0.00  0.00    +0.047 A 
ATOM     37  C   UNL     1       4.136  -1.454  -1.670  0.00  0.00    +0.003 A 
ATOM     38  C   UNL     1       3.207  -2.485  -1.520  0.00  0.00    +0.010 A 
ATOM     39  C   UNL     1       3.634  -3.783  -1.477  0.00  0.00    +0.001 A 
ATOM     40  C   UNL     1       4.984  -4.084  -1.585  0.00  0.00    +0.002 A 
ATOM     41  C   UNL     1       5.918  -3.083  -1.739  0.00  0.00    +0.026 A 
ENDBRANCH  31  32
ENDBRANCH  30  31
ENDBRANCH  18  30
TORSDOF 5
