REMARK  Name = ZINC08680960
REMARK  5 active torsions:
REMARK  status: ('A' for Active; 'I' for Inactive)
REMARK    1  A    between atoms: C_3  and  C_6
REMARK    2  A    between atoms: C_6  and  N_7
REMARK    3  A    between atoms: C_15  and  C_26
REMARK    4  A    between atoms: C_15  and  C_30
REMARK    5  A    between atoms: C_17  and  C_19
REMARK                            x       y       z     vdW  Elec       q    Type
REMARK                         _______ _______ _______ _____ _____    ______ ____
ROOT
ATOM      1  N   UNL     1       3.618   0.278   1.282  0.00  0.00    -0.272 N 
ATOM      2  C   UNL     1       4.055  -0.842   1.961  0.00  0.00    +0.128 A 
ATOM      3  C   UNL     1       4.563  -0.690   3.240  0.00  0.00    +0.098 A 
ATOM      4  C   UNL     1       4.596   0.581   3.821  0.00  0.00    +0.262 A 
ATOM      5  N   UNL     1       4.140   1.640   3.121  0.00  0.00    -0.275 N 
ATOM      6  C   UNL     1       3.670   1.488   1.870  0.00  0.00    +0.331 A 
ATOM      7  O   UNL     1       3.280   2.464   1.259  0.00  0.00    -0.246 OA
ATOM      8  O   UNL     1       5.033   0.731   4.950  0.00  0.00    -0.267 OA
ATOM      9  C   UNL     1       5.088  -1.895   3.980  0.00  0.00    +0.258 C 
ATOM     10  N   UNL     1       4.405  -3.084   3.445  0.00  0.00    -0.306 N 
ATOM     11  C   UNL     1       4.184  -3.154   2.091  0.00  0.00    +0.106 C 
ATOM     12  N   UNL     1       3.998  -2.053   1.391  0.00  0.00    -0.329 N 
ATOM     13  H   UNL     1       3.816  -2.122   0.441  0.00  0.00    +0.168 HD
ATOM     14  H   UNL     1       4.154   2.522   3.523  0.00  0.00    +0.173 HD
ATOM     15  H   UNL     1       4.117  -3.800   4.033  0.00  0.00    +0.149 HD
ENDROOT
BRANCH  11  16
ATOM     16  C   UNL     1       4.157  -4.467   1.417  0.00  0.00    +0.013 A 
ATOM     17  C   UNL     1       4.916  -5.528   1.917  0.00  0.00    +0.014 A 
ATOM     18  C   UNL     1       4.886  -6.752   1.284  0.00  0.00    +0.039 A 
ATOM     19  C   UNL     1       4.104  -6.931   0.153  0.00  0.00    +0.123 A 
ATOM     20  C   UNL     1       3.348  -5.882  -0.347  0.00  0.00    +0.039 A 
ATOM     21  C   UNL     1       3.366  -4.655   0.280  0.00  0.00    +0.014 A 
ATOM     22  F   UNL     1       4.078  -8.133  -0.463  0.00  0.00    -0.205 F 
ENDBRANCH  11  16
BRANCH   9  23
ATOM     23  C   UNL     1       6.597  -2.022   3.759  0.00  0.00    +0.424 C 
ATOM     24  F   UNL     1       7.236  -0.872   4.236  0.00  0.00    -0.168 F 
ATOM     25  F   UNL     1       7.076  -3.141   4.447  0.00  0.00    -0.168 F 
ATOM     26  F   UNL     1       6.858  -2.167   2.393  0.00  0.00    -0.168 F 
ENDBRANCH   9  23
BRANCH   9  27
ATOM     27  C   UNL     1       4.791  -1.756   5.474  0.00  0.00    +0.424 C 
ATOM     28  F   UNL     1       3.480  -1.302   5.649  0.00  0.00    -0.168 F 
ATOM     29  F   UNL     1       4.941  -3.000   6.097  0.00  0.00    -0.168 F 
ATOM     30  F   UNL     1       5.682  -0.839   6.043  0.00  0.00    -0.168 F 
ENDBRANCH   9  27
BRANCH   1  31
ATOM     31  C   UNL     1       3.102   0.151  -0.084  0.00  0.00    +0.202 C 
BRANCH  31  34
ATOM     32  C   UNL     1      -0.582   0.188   0.005  0.00  0.00    +0.041 A 
ATOM     33  C   UNL     1       0.663   0.857  -0.049  0.00  0.00    +0.046 A 
ATOM     34  C   UNL     1       1.616  -0.092  -0.039  0.00  0.00    +0.125 A 
ATOM     35  O   UNL     1       1.018  -1.294   0.017  0.00  0.00    -0.466 OA
ATOM     36  C   UNL     1      -0.315  -1.130   0.044  0.00  0.00    +0.195 A 
ENDBRANCH  31  34
ENDBRANCH   1  31
TORSDOF 5
