REMARK  Name = ZINC20757382
REMARK  6 active torsions:
REMARK  status: ('A' for Active; 'I' for Inactive)
REMARK    1  A    between atoms: C_1  and  O_2
REMARK    2  A    between atoms: O_2  and  C_3
REMARK    3  A    between atoms: C_3  and  C_4
REMARK    4  A    between atoms: C_4  and  N_5
REMARK    5  A    between atoms: C_10  and  C_28
REMARK    6  A    between atoms: C_28  and  C_29
REMARK                            x       y       z     vdW  Elec       q    Type
REMARK                         _______ _______ _______ _____ _____    ______ ____
ROOT
ATOM      1  N   UNL     1      -0.515  -2.565   1.245  0.00  0.00    -0.239 N 
ATOM      2  C   UNL     1       0.837  -2.688   1.399  0.00  0.00    +0.227 C 
ATOM      3  O   UNL     1       1.700  -2.216   0.691  0.00  0.00    -0.275 OA
ATOM      4  C   UNL     1       1.032  -3.532   2.629  0.00  0.00    +0.107 C 
ATOM      5  C   UNL     1       2.113  -3.138   3.643  0.00  0.00    +0.072 C 
ATOM      6  N   UNL     1       1.496  -3.530   4.953  0.00  0.00    -0.295 NA
ATOM      7  C   UNL     1       0.011  -3.462   4.784  0.00  0.00    +0.136 C 
ATOM      8  C   UNL     1      -0.208  -2.951   3.421  0.00  0.00    +0.122 C 
ATOM      9  C   UNL     1      -1.211  -2.892   2.382  0.00  0.00    +0.228 C 
ATOM     10  O   UNL     1      -2.402  -3.088   2.492  0.00  0.00    -0.275 OA
ATOM     11  C   UNL     1      -0.582  -4.829   5.011  0.00  0.00    +0.005 A 
ATOM     12  C   UNL     1      -0.447  -6.035   4.359  0.00  0.00    +0.008 A 
ATOM     13  C   UNL     1      -1.138  -7.146   4.810  0.00  0.00    +0.002 A 
ATOM     14  C   UNL     1      -1.962  -7.042   5.916  0.00  0.00    +0.022 A 
ATOM     15  C   UNL     1      -2.099  -5.836   6.572  0.00  0.00    +0.062 A 
ATOM     16  C   UNL     1      -1.406  -4.712   6.124  0.00  0.00    +0.057 A 
ATOM     17  N   UNL     1      -1.379  -3.403   6.610  0.00  0.00    -0.282 N 
ATOM     18  C   UNL     1      -0.574  -2.608   5.883  0.00  0.00    +0.243 C 
ATOM     19  O   UNL     1      -0.358  -1.430   6.074  0.00  0.00    -0.273 OA
ATOM     20 CL   UNL     1      -3.137  -5.717   7.958  0.00  0.00    -0.082 Cl
ATOM     21  H   UNL     1       1.787  -4.456   5.227  0.00  0.00    +0.124 HD
ATOM     22  H   UNL     1      -1.883  -3.102   7.382  0.00  0.00    +0.155 HD
ENDROOT
BRANCH   1  23
ATOM     23  C   UNL     1      -1.154  -2.126   0.002  0.00  0.00    +0.144 C 
BRANCH  23  24
ATOM     24  C   UNL     1      -1.295  -0.603   0.011  0.00  0.00    +0.179 C 
BRANCH  24  26
ATOM     25  C   UNL     1      -0.017   1.425   0.010  0.00  0.00    +0.194 C 
ATOM     26  O   UNL     1       0.002  -0.004   0.002  0.00  0.00    -0.381 OA
ENDBRANCH  24  26
ENDBRANCH  23  24
ENDBRANCH   1  23
BRANCH   5  27
ATOM     27  C   UNL     1       3.404  -3.920   3.391  0.00  0.00    +0.056 C 
BRANCH  27  28
ATOM     28  C   UNL     1       4.481  -3.424   4.321  0.00  0.00    -0.021 A 
ATOM     29  C   UNL     1       5.407  -2.491   4.046  0.00  0.00    +0.087 A 
ATOM     30  N   UNL     1       6.216  -2.302   5.133  0.00  0.00    -0.360 N 
ATOM     31  H   UNL     1       6.958  -1.678   5.173  0.00  0.00    +0.165 HD
ATOM     32  C   UNL     1       5.821  -3.129   6.160  0.00  0.00    +0.047 A 
ATOM     33  C   UNL     1       4.713  -3.864   5.699  0.00  0.00    +0.003 A 
ATOM     34  C   UNL     1       4.092  -4.789   6.540  0.00  0.00    +0.010 A 
ATOM     35  C   UNL     1       4.562  -4.974   7.810  0.00  0.00    +0.001 A 
ATOM     36  C   UNL     1       5.652  -4.249   8.271  0.00  0.00    +0.002 A 
ATOM     37  C   UNL     1       6.286  -3.337   7.455  0.00  0.00    +0.026 A 
ENDBRANCH  27  28
ENDBRANCH   5  27
TORSDOF 5
