REMARK  Name = ZINC67468652
REMARK  9 active torsions:
REMARK  status: ('A' for Active; 'I' for Inactive)
REMARK    1  A    between atoms: C_1  and  C_2
REMARK    2  A    between atoms: C_2  and  C_3
REMARK    3  A    between atoms: C_2  and  C_4
REMARK    4  A    between atoms: C_2  and  S_5
REMARK    5  A    between atoms: S_5  and  C_6
REMARK    6  A    between atoms: C_6  and  C_7
REMARK    7  A    between atoms: C_7  and  N_8
REMARK    8  A    between atoms: C_14  and  N_17
REMARK    9  A    between atoms: N_20  and  C_21
REMARK                            x       y       z     vdW  Elec       q    Type
REMARK                         _______ _______ _______ _____ _____    ______ ____
ROOT
ATOM      1  N   UNL     1       4.695   0.266  -2.454  0.00  0.00    -0.298 N 
ATOM      2  C   UNL     1       5.610   0.026  -3.414  0.00  0.00    +0.302 C 
ATOM      3  O   UNL     1       5.350  -0.736  -4.325  0.00  0.00    -0.253 OA
ATOM      4  N   UNL     1       6.814   0.630  -3.364  0.00  0.00    -0.286 N 
ATOM      5  C   UNL     1       7.187   1.461  -2.211  0.00  0.00    +0.111 C 
ATOM      6  C   UNL     1       7.627   2.838  -2.717  0.00  0.00    +0.041 C 
ATOM      7  C   UNL     1       8.740   2.665  -3.753  0.00  0.00    +0.077 C 
ATOM      8  C   UNL     1       8.211   1.859  -4.942  0.00  0.00    +0.041 C 
ATOM      9  C   UNL     1       7.780   0.466  -4.459  0.00  0.00    +0.111 C 
ATOM     10  H   UNL     1       4.928   0.815  -1.689  0.00  0.00    +0.150 HD
ENDROOT
BRANCH   7  11
ATOM     11  N   UNL     1       9.187   3.981  -4.216  0.00  0.00    -0.296 N 
ATOM     12  C   UNL     1      10.431   4.136  -4.710  0.00  0.00    +0.300 C 
ATOM     13  O   UNL     1      11.183   3.182  -4.772  0.00  0.00    -0.253 OA
ATOM     14  N   UNL     1      10.842   5.347  -5.135  0.00  0.00    -0.297 N 
ATOM     15  H   UNL     1       8.587   4.742  -4.166  0.00  0.00    +0.151 HD
ATOM     16  H   UNL     1      10.242   6.107  -5.085  0.00  0.00    +0.151 HD
BRANCH  14  17
ATOM     17  C   UNL     1      12.194   5.515  -5.672  0.00  0.00    +0.074 C 
ATOM     18  C   UNL     1      13.175   5.749  -4.521  0.00  0.00    +0.022 C 
ATOM     19  C   UNL     1      14.587   5.924  -5.082  0.00  0.00    +0.002 C 
ATOM     20  C   UNL     1      14.615   7.127  -6.028  0.00  0.00    +0.000 C 
ATOM     21  C   UNL     1      13.634   6.892  -7.179  0.00  0.00    +0.002 C 
ATOM     22  C   UNL     1      12.222   6.717  -6.618  0.00  0.00    +0.022 C 
ENDBRANCH  14  17
ENDBRANCH   7  11
BRANCH   1  23
ATOM     23  C   UNL     1       3.350  -0.303  -2.566  0.00  0.00    +0.116 C 
BRANCH  23  24
ATOM     24  C   UNL     1       2.516   0.119  -1.355  0.00  0.00    +0.088 C 
BRANCH  24  25
ATOM     25  S   UNL     1       0.850  -0.585  -1.493  0.00  0.00    -0.153 S 
BRANCH  25  27
ATOM     26  C   UNL     1      -0.019   1.530   0.007  0.00  0.00    +0.022 C 
ATOM     27  C   UNL     1       0.000   0.001  -0.001  0.00  0.00    +0.008 C 
ATOM     28  C   UNL     1       0.739  -0.507   1.239  0.00  0.00    +0.022 C 
ATOM     29  C   UNL     1      -1.436  -0.528   0.009  0.00  0.00    +0.022 C 
ENDBRANCH  25  27
ENDBRANCH  24  25
ENDBRANCH  23  24
ENDBRANCH   1  23
TORSDOF 6
