REMARK  Name = ZINC17836151
REMARK  11 active torsions:
REMARK  status: ('A' for Active; 'I' for Inactive)
REMARK    1  A    between atoms: C_1  and  C_2
REMARK    2  A    between atoms: C_7  and  N_8
REMARK    3  A    between atoms: N_9  and  C_10
REMARK    4  A    between atoms: C_13  and  N_17
REMARK    5  A    between atoms: C_14  and  C_16
REMARK    6  A    between atoms: N_17  and  C_18
REMARK    7  A    between atoms: C_18  and  N_20
REMARK    8  A    between atoms: N_20  and  C_21
REMARK    9  A    between atoms: C_21  and  C_23
REMARK   10  A    between atoms: C_21  and  N_27
REMARK   11  A    between atoms: C_28  and  C_30
REMARK                            x       y       z     vdW  Elec       q    Type
REMARK                         _______ _______ _______ _____ _____    ______ ____
ROOT
ATOM      1  C   UNL     1       0.010  -0.002   4.685  0.00  0.00    +0.087 A 
ATOM      2  C   UNL     1      -0.279   1.367   4.730  0.00  0.00    +0.031 A 
ATOM      3  C   UNL     1      -0.264   2.032   5.934  0.00  0.00    +0.025 A 
ATOM      4  C   UNL     1       0.039   1.346   7.107  0.00  0.00    +0.036 A 
ATOM      5  C   UNL     1       0.327  -0.014   7.066  0.00  0.00    -0.027 A 
ATOM      6  C   UNL     1       0.307  -0.689   5.866  0.00  0.00    +0.034 A 
ATOM      7  C   UNL     1       0.655  -0.752   8.339  0.00  0.00    +0.046 C 
ENDROOT
BRANCH   1   9
ATOM      8  N   UNL     1      -0.280  -0.030   2.404  0.00  0.00    -0.149 NA
ATOM      9  N   UNL     1      -0.005  -0.665   3.492  0.00  0.00    -0.149 NA
BRANCH   8  16
ATOM     10  C   UNL     1      -0.898   1.465   0.067  0.00  0.00    +0.046 C 
ATOM     11  C   UNL     1      -0.592  -0.010   0.028  0.00  0.00    -0.023 A 
ATOM     12  C   UNL     1      -0.599  -0.686  -1.174  0.00  0.00    +0.005 A 
ATOM     13  C   UNL     1      -0.318  -2.040  -1.211  0.00  0.00    +0.000 A 
ATOM     14  C   UNL     1      -0.029  -2.727  -0.045  0.00  0.00    +0.002 A 
ATOM     15  C   UNL     1      -0.018  -2.064   1.164  0.00  0.00    +0.030 A 
ATOM     16  C   UNL     1      -0.294  -0.695   1.209  0.00  0.00    +0.089 A 
ENDBRANCH   8  16
ENDBRANCH   1   9
BRANCH   4  17
ATOM     17  N   UNL     1       0.055   2.025   8.325  0.00  0.00    -0.297 N 
ATOM     18  H   UNL     1      -0.402   1.651   9.095  0.00  0.00    +0.154 HD
BRANCH  17  19
ATOM     19  C   UNL     1       0.706   3.200   8.434  0.00  0.00    +0.136 C 
ATOM     20  S   UNL     1       1.419   3.915   7.051  0.00  0.00    -0.019 S 
BRANCH  19  21
ATOM     21  N   UNL     1       0.794   3.813   9.631  0.00  0.00    -0.305 N 
ATOM     22  H   UNL     1       0.390   3.409  10.415  0.00  0.00    +0.150 HD
BRANCH  21  23
ATOM     23  C   UNL     1       1.502   5.091   9.749  0.00  0.00    +0.211 C 
BRANCH  23  24
ATOM     24  N   UNL     1       0.528   6.177   9.889  0.00  0.00    -0.294 N 
ATOM     25  C   UNL     1       0.278   6.996   8.848  0.00  0.00    +0.211 C 
ATOM     26  O   UNL     1       0.859   6.833   7.796  0.00  0.00    -0.276 OA
ATOM     27  C   UNL     1      -0.724   8.113   8.992  0.00  0.00    +0.109 C 
ATOM     28  H   UNL     1       0.064   6.306  10.730  0.00  0.00    +0.151 HD
ENDBRANCH  23  24
BRANCH  23  29
ATOM     29  C   UNL     1       2.410   5.059  10.980  0.00  0.00    +0.225 C 
ATOM     30 CL   UNL     1       3.608   3.723  10.808  0.00  0.00    -0.080 Cl
ATOM     31 CL   UNL     1       3.280   6.632  11.125  0.00  0.00    -0.080 Cl
ATOM     32 CL   UNL     1       1.413   4.786  12.457  0.00  0.00    -0.080 Cl
ENDBRANCH  23  29
ENDBRANCH  21  23
ENDBRANCH  19  21
ENDBRANCH  17  19
ENDBRANCH   4  17
TORSDOF 8
