REMARK  Name = ZINC02803238
REMARK  8 active torsions:
REMARK  status: ('A' for Active; 'I' for Inactive)
REMARK    1  A    between atoms: C_1  and  C_2
REMARK    2  A    between atoms: C_5  and  C_33
REMARK    3  A    between atoms: C_10  and  C_12
REMARK    4  A    between atoms: N_14  and  N_15
REMARK    5  A    between atoms: N_15  and  C_16
REMARK    6  A    between atoms: C_16  and  N_18
REMARK    7  A    between atoms: N_22  and  C_24
REMARK    8  A    between atoms: C_24  and  C_25
REMARK                            x       y       z     vdW  Elec       q    Type
REMARK                         _______ _______ _______ _____ _____    ______ ____
ROOT
ATOM      1  C   UNL     1      -1.224   2.167   0.028  0.00  0.00    +0.280 C 
ATOM      2  O   UNL     1      -1.114   3.378   0.034  0.00  0.00    -0.267 OA
ATOM      3  N   UNL     1      -2.447   1.601   0.029  0.00  0.00    -0.230 N 
ATOM      4  H   UNL     1      -2.546   0.506   0.023  0.00  0.00    +0.173 HD
ENDROOT
BRANCH   1  12
ATOM      5  C   UNL     1       3.986  -0.982  -1.820  0.00  0.00    +0.028 C 
ATOM      6  C   UNL     1       4.097  -0.704  -0.320  0.00  0.00    +0.071 C 
ATOM      7  C   UNL     1       3.315  -1.766   0.461  0.00  0.00    +0.058 C 
ATOM      8  C   UNL     1       1.856  -1.791  -0.009  0.00  0.00    +0.214 C 
ATOM      9  N   UNL     1       1.332  -0.422  -0.001  0.00  0.00    -0.238 N 
ATOM     10  C   UNL     1       2.123   0.692  -0.002  0.00  0.00    +0.119 A 
ATOM     11  C   UNL     1       1.321   1.775   0.011  0.00  0.00    +0.078 A 
ATOM     12  C   UNL     1      -0.016   1.317   0.019  0.00  0.00    +0.150 A 
ATOM     13  N   UNL     1       0.002  -0.004   0.011  0.00  0.00    -0.164 NA
ATOM     14  N   UNL     1       3.518   0.621  -0.017  0.00  0.00    -0.327 N 
ATOM     15  H   UNL     1       4.179   1.478   0.179  0.00  0.00    +0.148 HD
BRANCH   8  16
ATOM     16  C   UNL     1       1.028  -2.663   0.937  0.00  0.00    +0.412 C 
ATOM     17  F   UNL     1      -0.306  -2.672   0.515  0.00  0.00    -0.168 F 
ATOM     18  F   UNL     1       1.530  -3.968   0.928  0.00  0.00    -0.168 F 
ATOM     19  F   UNL     1       1.103  -2.144   2.234  0.00  0.00    -0.168 F 
ENDBRANCH   8  16
ENDBRANCH   1  12
BRANCH   3  20
ATOM     20  N   UNL     1      -3.592   2.408   0.037  0.00  0.00    -0.245 N 
ATOM     21  H   UNL     1      -3.493   3.503   0.043  0.00  0.00    +0.172 HD
BRANCH  20  22
ATOM     22  C   UNL     1      -4.815   1.841   0.038  0.00  0.00    +0.152 C 
ATOM     23  S   UNL     1      -6.215   2.827   0.048  0.00  0.00    -0.017 S 
BRANCH  22  24
ATOM     24  N   UNL     1      -4.936   0.499   0.031  0.00  0.00    -0.279 N 
ATOM     25  C   UNL     1      -6.203  -0.091   0.140  0.00  0.00    +0.146 A 
ATOM     26  C   UNL     1      -6.466  -1.466   0.246  0.00  0.00    +0.065 A 
ATOM     27  C   UNL     1      -7.806  -1.627   0.331  0.00  0.00    +0.110 A 
ATOM     28  N   UNL     1      -8.373  -0.403   0.281  0.00  0.00    -0.265 N 
ATOM     29  N   UNL     1      -7.350   0.546   0.167  0.00  0.00    -0.156 NA
ATOM     30  H   UNL     1      -4.041  -0.133  -0.061  0.00  0.00    +0.155 HD
BRANCH  28  31
ATOM     31  C   UNL     1      -9.809  -0.118   0.342  0.00  0.00    +0.181 C 
BRANCH  31  32
ATOM     32  C   UNL     1     -10.081   0.855   1.460  0.00  0.00    +0.009 A 
ATOM     33  C   UNL     1     -10.261   2.197   1.181  0.00  0.00    +0.008 A 
ATOM     34  C   UNL     1     -10.511   3.089   2.207  0.00  0.00    +0.000 A 
ATOM     35  C   UNL     1     -10.582   2.640   3.513  0.00  0.00    +0.003 A 
ATOM     36  C   UNL     1     -10.402   1.299   3.794  0.00  0.00    +0.039 A 
ATOM     37  C   UNL     1     -10.156   0.404   2.767  0.00  0.00    +0.128 A 
ATOM     38  F   UNL     1      -9.986  -0.908   3.040  0.00  0.00    -0.205 F 
ENDBRANCH  31  32
ENDBRANCH  28  31
ENDBRANCH  22  24
ENDBRANCH  20  22
ENDBRANCH   3  20
TORSDOF 7
