REMARK  Name = ZINC02967767
REMARK  7 active torsions:
REMARK  status: ('A' for Active; 'I' for Inactive)
REMARK    1  A    between atoms: C_9  and  C_25
REMARK    2  A    between atoms: C_14  and  S_16
REMARK    3  A    between atoms: S_16  and  C_17
REMARK    4  A    between atoms: C_17  and  C_18
REMARK    5  A    between atoms: C_25  and  C_26
REMARK    6  A    between atoms: N_28  and  C_29
REMARK    7  A    between atoms: C_29  and  C_30
REMARK                            x       y       z     vdW  Elec       q    Type
REMARK                         _______ _______ _______ _____ _____    ______ ____
ROOT
ATOM      1  C   UNL     1      -0.017   1.375   0.010  0.00  0.00    +0.001 A 
ATOM      2  C   UNL     1       1.169   2.095   0.002  0.00  0.00    +0.002 A 
ATOM      3  C   UNL     1       2.386   1.450  -0.013  0.00  0.00    +0.028 A 
ATOM      4  C   UNL     1       2.430   0.054  -0.021  0.00  0.00    +0.077 A 
ATOM      5  C   UNL     1       1.222  -0.673  -0.013  0.00  0.00    +0.041 A 
ATOM      6  C   UNL     1       0.002  -0.004   0.002  0.00  0.00    +0.013 A 
ATOM      7  C   UNL     1       1.292  -2.150  -0.022  0.00  0.00    +0.139 C 
ATOM      8  N   UNL     1       0.340  -3.041  -0.017  0.00  0.00    -0.255 NA
ATOM      9  C   UNL     1       0.967  -4.370  -0.030  0.00  0.00    +0.202 C 
ATOM     10  C   UNL     1       2.451  -4.074  -0.043  0.00  0.00    +0.252 C 
ATOM     11  O   UNL     1       3.360  -4.877  -0.057  0.00  0.00    -0.272 OA
ATOM     12  N   UNL     1       2.551  -2.725  -0.037  0.00  0.00    -0.200 N 
ATOM     13  C   UNL     1       3.670  -1.919  -0.044  0.00  0.00    +0.169 C 
ATOM     14  N   UNL     1       3.610  -0.615  -0.036  0.00  0.00    -0.225 NA
ENDROOT
BRANCH  13  15
ATOM     15  S   UNL     1       5.257  -2.685  -0.062  0.00  0.00    -0.085 S 
BRANCH  15  16
ATOM     16  C   UNL     1       6.418  -1.291  -0.067  0.00  0.00    +0.112 C 
BRANCH  16  17
ATOM     17  C   UNL     1       7.831  -1.815  -0.083  0.00  0.00    -0.037 A 
ATOM     18  C   UNL     1       8.488  -2.066   1.107  0.00  0.00    +0.006 A 
ATOM     19  C   UNL     1       9.784  -2.545   1.093  0.00  0.00    +0.020 A 
ATOM     20  C   UNL     1      10.424  -2.775  -0.112  0.00  0.00    +0.041 A 
ATOM     21  C   UNL     1       9.765  -2.523  -1.302  0.00  0.00    +0.020 A 
ATOM     22  C   UNL     1       8.467  -2.049  -1.287  0.00  0.00    +0.006 A 
ATOM     23 CL   UNL     1      12.052  -3.377  -0.130  0.00  0.00    -0.084 Cl
ENDBRANCH  16  17
ENDBRANCH  15  16
ENDBRANCH  13  15
BRANCH   9  24
ATOM     24  C   UNL     1       0.560  -5.143  -1.286  0.00  0.00    +0.132 C 
BRANCH  24  25
ATOM     25  C   UNL     1      -0.915  -5.447  -1.233  0.00  0.00    +0.216 C 
ATOM     26  O   UNL     1      -1.576  -5.081  -0.284  0.00  0.00    -0.276 OA
ATOM     27  N   UNL     1      -1.500  -6.125  -2.240  0.00  0.00    -0.311 N 
ATOM     28  H   UNL     1      -0.972  -6.417  -2.999  0.00  0.00    +0.149 HD
BRANCH  27  29
ATOM     29  C   UNL     1      -2.934  -6.420  -2.189  0.00  0.00    +0.146 C 
BRANCH  29  30
ATOM     30  C   UNL     1      -3.335  -7.181  -3.426  0.00  0.00    +0.007 A 
ATOM     31  C   UNL     1      -3.363  -8.521  -3.633  0.00  0.00    +0.013 A 
ATOM     32  C   UNL     1      -3.771  -9.001  -4.863  0.00  0.00    +0.008 A 
ATOM     33  C   UNL     1      -4.131  -8.118  -5.827  0.00  0.00    +0.045 A 
ATOM     34  S   UNL     1      -3.904  -6.553  -4.998  0.00  0.00    -0.100 S 
ENDBRANCH  29  30
ENDBRANCH  27  29
ENDBRANCH  24  25
ENDBRANCH   9  24
TORSDOF 7
