REMARK  Name = ZINC64741740
REMARK  8 active torsions:
REMARK  status: ('A' for Active; 'I' for Inactive)
REMARK    1  A    between atoms: C_1  and  C_2
REMARK    2  A    between atoms: C_2  and  C_4
REMARK    3  A    between atoms: C_2  and  N_16
REMARK    4  A    between atoms: N_6  and  C_7
REMARK    5  A    between atoms: N_16  and  C_17
REMARK    6  A    between atoms: C_17  and  C_18
REMARK    7  A    between atoms: C_18  and  C_20
REMARK    8  A    between atoms: C_18  and  C_26
REMARK                            x       y       z     vdW  Elec       q    Type
REMARK                         _______ _______ _______ _____ _____    ______ ____
ROOT
ATOM      1  N   UNL     1       0.625  -0.232   1.585  0.00  0.00    +0.387 N 
ATOM      2  H   UNL     1       0.279   0.121   2.464  0.00  0.00    -0.085 HD
ATOM      3  H   UNL     1       0.400  -1.212   1.504  0.00  0.00    -0.085 HD
ENDROOT
BRANCH   1   5
ATOM      4  C   UNL     1       0.235   2.006   0.670  0.00  0.00    -0.004 C 
ATOM      5  C   UNL     1      -0.002   0.506   0.480  0.00  0.00    +0.013 C 
BRANCH   5   6
ATOM      6  C   UNL     1      -1.483   0.229   0.466  0.00  0.00    +0.203 C 
ATOM      7  O   UNL     1      -1.969  -0.511   1.295  0.00  0.00    -0.277 OA
ATOM      8  N   UNL     1      -2.267   0.803  -0.468  0.00  0.00    -0.287 N 
ATOM      9  H   UNL     1      -1.892   1.450  -1.085  0.00  0.00    +0.155 HD
BRANCH   8  10
ATOM     10  C   UNL     1      -3.624   0.464  -0.546  0.00  0.00    +0.037 A 
ATOM     11  C   UNL     1      -4.253   0.399  -1.783  0.00  0.00    +0.027 A 
ATOM     12  C   UNL     1      -5.591   0.065  -1.862  0.00  0.00    +0.051 A 
ATOM     13  C   UNL     1      -6.310  -0.205  -0.709  0.00  0.00    +0.166 A 
ATOM     14  C   UNL     1      -5.682  -0.141   0.533  0.00  0.00    +0.168 A 
ATOM     15  C   UNL     1      -4.339   0.189   0.611  0.00  0.00    +0.072 A 
ATOM     16  O   UNL     1      -6.596  -0.446   1.500  0.00  0.00    -0.453 OA
ATOM     17  C   UNL     1      -7.884  -0.298   0.873  0.00  0.00    +0.466 C 
ATOM     18  O   UNL     1      -7.618  -0.551  -0.519  0.00  0.00    -0.453 OA
ENDBRANCH   8  10
ENDBRANCH   5   6
ENDBRANCH   1   5
BRANCH   1  19
ATOM     19  C   UNL     1       2.082  -0.058   1.526  0.00  0.00    -0.073 C 
BRANCH  19  20
ATOM     20  C   UNL     1       2.744  -0.931   2.594  0.00  0.00    +0.014 C 
BRANCH  20  21
ATOM     21  C   UNL     1       2.276  -0.496   3.959  0.00  0.00    -0.039 C 
ATOM     22  C   UNL     1       1.623  -1.248   4.873  0.00  0.00    -0.001 A 
ATOM     23  C   UNL     1       1.167  -2.643   4.870  0.00  0.00    +0.010 A 
ATOM     24  C   UNL     1       0.524  -3.126   5.957  0.00  0.00    +0.001 A 
ATOM     25  C   UNL     1       0.281  -2.329   7.084  0.00  0.00    +0.002 A 
ATOM     26  C   UNL     1       0.669  -1.038   7.162  0.00  0.00    +0.026 A 
ATOM     27  C   UNL     1       1.355  -0.427   6.076  0.00  0.00    +0.043 A 
ATOM     28  N   UNL     1       1.824   0.785   5.911  0.00  0.00    -0.380 N 
ATOM     29  C   UNL     1       2.450   0.869   4.587  0.00  0.00    +0.145 C 
ATOM     30  H   UNL     1       1.771   1.506   6.559  0.00  0.00    +0.160 HD
ENDBRANCH  20  21
BRANCH  20  31
ATOM     31  C   UNL     1       4.264  -0.783   2.504  0.00  0.00    +0.060 C 
ATOM     32  C   UNL     1       4.811  -1.343   1.165  0.00  0.00    +0.042 C 
ATOM     33  C   UNL     1       6.110  -2.052   1.379  0.00  0.00    -0.019 C 
ATOM     34  C   UNL     1       6.452  -2.444   2.590  0.00  0.00    +0.036 C 
ATOM     35  S   UNL     1       5.124  -1.927   3.665  0.00  0.00    -0.129 S 
ENDBRANCH  20  31
ENDBRANCH  19  20
ENDBRANCH   1  19
TORSDOF 7
