REMARK  Name = ZINC43769390
REMARK  10 active torsions:
REMARK  status: ('A' for Active; 'I' for Inactive)
REMARK    1  A    between atoms: C_1  and  C_2
REMARK    2  A    between atoms: C_3  and  C_37
REMARK    3  A    between atoms: C_7  and  C_10
REMARK    4  A    between atoms: C_10  and  C_11
REMARK    5  A    between atoms: C_10  and  C_12
REMARK    6  A    between atoms: C_10  and  O_36
REMARK    7  A    between atoms: C_12  and  O_35
REMARK    8  A    between atoms: C_15  and  O_34
REMARK    9  A    between atoms: C_16  and  C_33
REMARK   10  A    between atoms: C_26  and  C_32
REMARK                            x       y       z     vdW  Elec       q    Type
REMARK                         _______ _______ _______ _____ _____    ______ ____
ROOT
ATOM      1  C   UNL     1      -1.927  -3.385   1.431  0.00  0.00    +0.106 C 
ATOM      2  C   UNL     1      -3.266  -2.635   1.212  0.00  0.00    +0.041 C 
ATOM      3  C   UNL     1      -4.391  -3.608   1.666  0.00  0.00    +0.038 C 
ATOM      4  C   UNL     1      -3.718  -4.978   1.474  0.00  0.00    +0.078 C 
ATOM      5  C   UNL     1      -2.324  -4.705   2.097  0.00  0.00    +0.029 C 
ATOM      6  C   UNL     1      -1.445  -5.905   1.827  0.00  0.00    +0.013 C 
ATOM      7  C   UNL     1      -2.067  -7.147   2.475  0.00  0.00    +0.006 C 
ATOM      8  C   UNL     1      -3.501  -7.395   2.023  0.00  0.00    +0.013 C 
ATOM      9  C   UNL     1      -4.359  -6.142   2.179  0.00  0.00    +0.029 C 
ATOM     10  C   UNL     1      -5.782  -6.404   1.690  0.00  0.00    +0.034 C 
ATOM     11  C   UNL     1      -5.741  -6.910   0.280  0.00  0.00    -0.026 C 
ATOM     12  C   UNL     1      -4.766  -7.651  -0.157  0.00  0.00    -0.056 C 
ATOM     13  C   UNL     1      -3.588  -8.074   0.677  0.00  0.00    +0.054 C 
ATOM     14  C   UNL     1      -2.331  -7.919  -0.145  0.00  0.00    +0.166 C 
ATOM     15  O   UNL     1      -1.228  -8.126   0.335  0.00  0.00    -0.292 OA
ATOM     16  C   UNL     1      -2.407  -7.573  -1.567  0.00  0.00    +0.043 C 
ATOM     17  C   UNL     1      -3.533  -7.652  -2.259  0.00  0.00    -0.019 C 
ATOM     18  C   UNL     1      -4.811  -8.111  -1.604  0.00  0.00    +0.058 C 
ATOM     19  C   UNL     1      -3.761  -9.584   0.953  0.00  0.00    +0.024 C 
ATOM     20  C   UNL     1      -2.418  -4.458   3.604  0.00  0.00    +0.017 C 
ENDROOT
BRANCH   1  21
ATOM     21  C   UNL     1      -1.018  -2.582   2.363  0.00  0.00    +0.129 C 
ATOM     22  C   UNL     1      -0.713  -1.222   1.731  0.00  0.00    +0.048 C 
BRANCH  21  29
ATOM     23  C   UNL     1       3.681  -2.642   4.315  0.00  0.00    +0.039 C 
ATOM     24  C   UNL     1       2.411  -3.331   3.889  0.00  0.00    -0.059 C 
ATOM     25  C   UNL     1       2.349  -4.658   3.924  0.00  0.00    +0.033 C 
ATOM     26  C   UNL     1       1.113  -5.342   3.501  0.00  0.00    +0.335 C 
ATOM     27  O   UNL     1       1.077  -6.549   3.360  0.00  0.00    -0.245 OA
ATOM     28  O   UNL     1       0.017  -4.574   3.275  0.00  0.00    -0.455 OA
ATOM     29  C   UNL     1       0.289  -3.346   2.584  0.00  0.00    +0.215 C 
ATOM     30  C   UNL     1       1.240  -2.502   3.439  0.00  0.00    +0.078 C 
ATOM     31  C   UNL     1       3.536  -5.459   4.393  0.00  0.00    +0.051 C 
ENDBRANCH  21  29
BRANCH  21  32
ATOM     32  O   UNL     1      -1.674  -2.388   3.618  0.00  0.00    -0.382 OA
ATOM     33  H   UNL     1      -1.244  -2.834   4.360  0.00  0.00    +0.210 HD
ENDBRANCH  21  32
ENDBRANCH   1  21
BRANCH   4  34
ATOM     34  O   UNL     1      -3.584  -5.235   0.070  0.00  0.00    -0.388 OA
ATOM     35  H   UNL     1      -4.426  -5.276  -0.404  0.00  0.00    +0.210 HD
ENDBRANCH   4  34
BRANCH   1  36
ATOM     36  O   UNL     1      -1.276  -3.626   0.186  0.00  0.00    -0.385 OA
ATOM     37  H   UNL     1      -1.074  -2.824  -0.315  0.00  0.00    +0.210 HD
ENDBRANCH   1  36
TORSDOF 5
