REMARK  Name = ZINC63303136
REMARK  6 active torsions:
REMARK  status: ('A' for Active; 'I' for Inactive)
REMARK    1  A    between atoms: C_4  and  C_7
REMARK    2  A    between atoms: C_7  and  N_8
REMARK    3  A    between atoms: C_9  and  C_11
REMARK    4  A    between atoms: C_11  and  C_12
REMARK    5  A    between atoms: C_12  and  C_13
REMARK    6  A    between atoms: C_13  and  N_14
REMARK                            x       y       z     vdW  Elec       q    Type
REMARK                         _______ _______ _______ _____ _____    ______ ____
ROOT
ATOM      1  N   UNL     1       8.836  -3.574   4.386  0.00  0.00    -0.299 N 
ATOM      2  C   UNL     1       9.438  -3.906   5.545  0.00  0.00    +0.302 C 
ATOM      3  O   UNL     1       8.968  -3.533   6.603  0.00  0.00    -0.253 OA
ATOM      4  N   UNL     1      10.561  -4.651   5.532  0.00  0.00    -0.283 N 
ATOM      5  C   UNL     1      11.188  -4.995   4.251  0.00  0.00    +0.114 C 
ATOM      6  C   UNL     1      11.287  -6.526   4.124  0.00  0.00    +0.052 C 
ATOM      7  C   UNL     1      11.807  -7.037   5.445  0.00  0.00    -0.035 C 
ATOM      8  C   UNL     1      12.822  -7.841   5.736  0.00  0.00    +0.001 A 
ATOM      9  C   UNL     1      13.740  -8.610   4.881  0.00  0.00    +0.030 A 
ATOM     10  C   UNL     1      14.699  -9.329   5.524  0.00  0.00    +0.042 A 
ATOM     11  C   UNL     1      14.835  -9.357   6.916  0.00  0.00    +0.022 A 
ATOM     12  C   UNL     1      14.030  -8.687   7.779  0.00  0.00    +0.027 A 
ATOM     13  C   UNL     1      12.979  -7.903   7.222  0.00  0.00    +0.043 A 
ATOM     14  N   UNL     1      12.062  -7.190   7.806  0.00  0.00    -0.376 N 
ATOM     15  C   UNL     1      11.179  -6.641   6.776  0.00  0.00    +0.124 C 
ATOM     16  C   UNL     1      11.149  -5.105   6.802  0.00  0.00    +0.138 C 
ATOM     17 CL   UNL     1      15.811 -10.258   4.568  0.00  0.00    -0.084 Cl
ATOM     18  H   UNL     1       9.249  -3.808   3.540  0.00  0.00    +0.150 HD
ATOM     19  H   UNL     1      11.977  -7.046   8.761  0.00  0.00    +0.160 HD
ENDROOT
BRANCH   1  20
ATOM     20  C   UNL     1       7.557  -2.859   4.403  0.00  0.00    +0.106 C 
BRANCH  20  21
ATOM     21  C   UNL     1       7.095  -2.607   2.967  0.00  0.00    +0.028 C 
BRANCH  21  22
ATOM     22  C   UNL     1       5.759  -1.861   2.985  0.00  0.00    +0.097 C 
BRANCH  22  24
ATOM     23  N   UNL     1       4.144  -0.965   1.339  0.00  0.00    -0.311 N 
ATOM     24  C   UNL     1       5.304  -1.611   1.570  0.00  0.00    +0.213 C 
ATOM     25  O   UNL     1       5.981  -1.993   0.639  0.00  0.00    -0.276 OA
ATOM     26  H   UNL     1       3.602  -0.659   2.084  0.00  0.00    +0.149 HD
BRANCH  23  27
ATOM     27  C   UNL     1       3.701  -0.722  -0.036  0.00  0.00    +0.139 C 
BRANCH  27  31
ATOM     28  C   UNL     1      -0.028   1.360   0.012  0.00  0.00    +0.000 A 
ATOM     29  C   UNL     1       1.159   2.068   0.001  0.00  0.00    +0.000 A 
ATOM     30  C   UNL     1       2.366   1.395  -0.014  0.00  0.00    +0.005 A 
ATOM     31  C   UNL     1       2.386   0.012  -0.018  0.00  0.00    -0.030 A 
ATOM     32  C   UNL     1       1.199  -0.696  -0.007  0.00  0.00    +0.005 A 
ATOM     33  C   UNL     1      -0.008  -0.022   0.007  0.00  0.00    +0.000 A 
ENDBRANCH  27  31
ENDBRANCH  23  27
ENDBRANCH  22  24
ENDBRANCH  21  22
ENDBRANCH  20  21
ENDBRANCH   1  20
TORSDOF 6
