REMARK  Name = ZINC00648152
REMARK  4 active torsions:
REMARK  status: ('A' for Active; 'I' for Inactive)
REMARK    1  A    between atoms: C_6  and  C_7
REMARK    2  A    between atoms: C_10  and  C_30
REMARK    3  A    between atoms: C_15  and  C_17
REMARK    4  A    between atoms: N_19  and  C_20
REMARK                            x       y       z     vdW  Elec       q    Type
REMARK                         _______ _______ _______ _____ _____    ______ ____
ROOT
ATOM      1  C   UNL     1      -1.267  -0.762   0.003  0.00  0.00    +0.104 C 
ATOM      2  C   UNL     1      -1.558  -1.250   1.427  0.00  0.00    +0.063 C 
ATOM      3  C   UNL     1      -0.389  -2.099   1.937  0.00  0.00    +0.215 C 
ATOM      4  N   UNL     1      -0.062  -3.111   0.928  0.00  0.00    -0.238 N 
ATOM      5  C   UNL     1      -0.433  -3.020  -0.384  0.00  0.00    +0.119 A 
ATOM      6  C   UNL     1       0.026  -4.113  -1.026  0.00  0.00    +0.078 A 
ATOM      7  C   UNL     1       0.708  -4.909  -0.079  0.00  0.00    +0.149 A 
ATOM      8  N   UNL     1       0.650  -4.298   1.091  0.00  0.00    -0.164 NA
ATOM      9  N   UNL     1      -1.164  -1.935  -0.887  0.00  0.00    -0.322 N 
ATOM     10  H   UNL     1      -1.578  -1.953  -1.764  0.00  0.00    +0.148 HD
ENDROOT
BRANCH   1  16
ATOM     11  C   UNL     1       0.019   1.385  -0.012  0.00  0.00    +0.006 A 
ATOM     12  C   UNL     1       1.209   2.087  -0.028  0.00  0.00    +0.015 A 
ATOM     13  C   UNL     1       2.413   1.406  -0.046  0.00  0.00    +0.018 A 
ATOM     14  C   UNL     1       2.425   0.023  -0.049  0.00  0.00    +0.015 A 
ATOM     15  C   UNL     1       1.234  -0.678  -0.033  0.00  0.00    +0.006 A 
ATOM     16  C   UNL     1       0.031   0.003  -0.014  0.00  0.00    -0.027 A 
ATOM     17 BR   UNL     1       4.042   2.366  -0.069  0.00  0.00    -0.050 Br
ENDBRANCH   1  16
BRANCH   7  18
ATOM     18  C   UNL     1       1.371  -6.201  -0.350  0.00  0.00    +0.268 C 
ATOM     19  O   UNL     1       1.358  -6.668  -1.473  0.00  0.00    -0.268 OA
ATOM     20  N   UNL     1       1.990  -6.864   0.647  0.00  0.00    -0.280 N 
ATOM     21  H   UNL     1       2.059  -6.461   1.527  0.00  0.00    +0.155 HD
BRANCH  20  22
ATOM     22  C   UNL     1       2.534  -8.133   0.413  0.00  0.00    +0.037 A 
ATOM     23  C   UNL     1       2.499  -9.098   1.411  0.00  0.00    +0.027 A 
ATOM     24  C   UNL     1       3.035 -10.350   1.181  0.00  0.00    +0.051 A 
ATOM     25  C   UNL     1       3.609 -10.647  -0.044  0.00  0.00    +0.166 A 
ATOM     26  C   UNL     1       3.645  -9.681  -1.047  0.00  0.00    +0.168 A 
ATOM     27  C   UNL     1       3.103  -8.427  -0.818  0.00  0.00    +0.072 A 
ATOM     28  O   UNL     1       4.256 -10.215  -2.145  0.00  0.00    -0.453 OA
ATOM     29  C   UNL     1       4.957 -11.378  -1.668  0.00  0.00    +0.466 C 
ATOM     30  O   UNL     1       4.197 -11.787  -0.515  0.00  0.00    -0.453 OA
ENDBRANCH  20  22
ENDBRANCH   7  18
BRANCH   3  31
ATOM     31  C   UNL     1      -0.787  -2.787   3.245  0.00  0.00    +0.412 C 
ATOM     32  F   UNL     1      -1.896  -3.609   3.020  0.00  0.00    -0.168 F 
ATOM     33  F   UNL     1       0.282  -3.562   3.708  0.00  0.00    -0.168 F 
ATOM     34  F   UNL     1      -1.110  -1.818   4.201  0.00  0.00    -0.168 F 
ENDBRANCH   3  31
TORSDOF 4
