REMARK  Name = ZINC64605056
REMARK  9 active torsions:
REMARK  status: ('A' for Active; 'I' for Inactive)
REMARK    1  A    between atoms: C_1  and  C_2
REMARK    2  A    between atoms: C_2  and  C_3
REMARK    3  A    between atoms: C_8  and  N_9
REMARK    4  A    between atoms: C_10  and  C_12
REMARK    5  A    between atoms: C_12  and  C_14
REMARK    6  A    between atoms: C_12  and  N_15
REMARK    7  A    between atoms: C_18  and  N_29
REMARK    8  A    between atoms: C_20  and  C_22
REMARK    9  A    between atoms: C_30  and  C_32
REMARK                            x       y       z     vdW  Elec       q    Type
REMARK                         _______ _______ _______ _____ _____    ______ ____
ROOT
ATOM      1  N   UNL     1      -2.442  -0.699  -5.891  0.00  0.00    -0.216 N 
ATOM      2  C   UNL     1      -2.093  -1.650  -6.781  0.00  0.00    +0.289 A 
ATOM      3  O   UNL     1      -1.103  -2.337  -6.590  0.00  0.00    -0.264 OA
ATOM      4  C   UNL     1      -2.885  -1.845  -7.940  0.00  0.00    +0.102 A 
ATOM      5  C   UNL     1      -3.988  -1.064  -8.133  0.00  0.00    +0.059 A 
ATOM      6  C   UNL     1      -4.320  -0.080  -7.179  0.00  0.00    +0.093 A 
ATOM      7  N   UNL     1      -3.580   0.086  -6.106  0.00  0.00    -0.167 NA
ENDROOT
BRANCH   6   8
ATOM      8  C   UNL     1      -5.519   0.770  -7.385  0.00  0.00    +0.002 A 
ATOM      9  C   UNL     1      -6.315   0.593  -8.515  0.00  0.00    +0.011 A 
ATOM     10  C   UNL     1      -7.429   1.386  -8.703  0.00  0.00    +0.020 A 
ATOM     11  C   UNL     1      -7.755   2.356  -7.771  0.00  0.00    +0.041 A 
ATOM     12  C   UNL     1      -6.967   2.537  -6.647  0.00  0.00    +0.020 A 
ATOM     13  C   UNL     1      -5.854   1.744  -6.448  0.00  0.00    +0.011 A 
ATOM     14 CL   UNL     1      -9.157   3.351  -8.013  0.00  0.00    -0.084 Cl
ENDBRANCH   6   8
BRANCH   4  15
ATOM     15  N   UNL     1      -2.540  -2.824  -8.875  0.00  0.00    -0.281 N 
ATOM     16  C   UNL     1      -1.332  -2.791  -9.471  0.00  0.00    +0.214 C 
ATOM     17  O   UNL     1      -0.577  -1.865  -9.262  0.00  0.00    -0.276 OA
ATOM     18  C   UNL     1      -0.918  -3.905 -10.398  0.00  0.00    +0.109 C 
ATOM     19  H   UNL     1      -3.171  -3.528  -9.096  0.00  0.00    +0.155 HD
ENDBRANCH   4  15
BRANCH   1  20
ATOM     20  C   UNL     1      -1.629  -0.492  -4.690  0.00  0.00    +0.194 C 
ATOM     21  C   UNL     1      -1.099   0.944  -4.675  0.00  0.00    +0.043 C 
BRANCH  20  23
ATOM     22  N   UNL     1      -1.933  -0.594  -2.237  0.00  0.00    -0.284 N 
ATOM     23  C   UNL     1      -2.474  -0.728  -3.464  0.00  0.00    +0.242 C 
ATOM     24  O   UNL     1      -3.640  -1.040  -3.582  0.00  0.00    -0.273 OA
ATOM     25  H   UNL     1      -1.021  -0.278  -2.141  0.00  0.00    +0.155 HD
BRANCH  22  31
ATOM     26  C   UNL     1      -2.068  -1.451   0.017  0.00  0.00    -0.026 A 
ATOM     27  C   UNL     1      -2.815  -1.756   1.138  0.00  0.00    +0.005 A 
ATOM     28  C   UNL     1      -4.178  -1.528   1.145  0.00  0.00    +0.000 A 
ATOM     29  C   UNL     1      -4.799  -0.993   0.031  0.00  0.00    +0.002 A 
ATOM     30  C   UNL     1      -4.058  -0.686  -1.093  0.00  0.00    +0.023 A 
ATOM     31  C   UNL     1      -2.687  -0.909  -1.102  0.00  0.00    +0.037 A 
BRANCH  26  33
ATOM     32  C   UNL     1       0.152  -0.417   0.406  0.00  0.00    +0.009 C 
ATOM     33  C   UNL     1      -0.582  -1.700   0.009  0.00  0.00    +0.033 C 
ENDBRANCH  26  33
ENDBRANCH  22  31
ENDBRANCH  20  23
ENDBRANCH   1  20
TORSDOF 6
