REMARK  Name = ZINC62430603
REMARK  7 active torsions:
REMARK  status: ('A' for Active; 'I' for Inactive)
REMARK    1  A    between atoms: C_1  and  C_2
REMARK    2  A    between atoms: C_2  and  C_3
REMARK    3  A    between atoms: C_2  and  C_4
REMARK    4  A    between atoms: C_2  and  C_5
REMARK    5  A    between atoms: N_13  and  C_14
REMARK    6  A    between atoms: C_14  and  C_15
REMARK    7  A    between atoms: C_18  and  N_21
REMARK                            x       y       z     vdW  Elec       q    Type
REMARK                         _______ _______ _______ _____ _____    ______ ____
ROOT
ATOM      1  C   UNL     1       0.718  -0.497  -1.257  0.00  0.00    +0.001 C 
ATOM      2  C   UNL     1       0.738  -2.028  -1.265  0.00  0.00    +0.010 C 
ATOM      3  C   UNL     1       1.224  -2.528  -2.632  0.00  0.00    +0.057 C 
ATOM      4  C   UNL     1       2.494  -1.798  -2.979  0.00  0.00    +0.063 A 
ATOM      5  C   UNL     1       2.911  -0.659  -2.371  0.00  0.00    +0.086 A 
ATOM      6  N   UNL     1       4.062  -0.322  -2.943  0.00  0.00    -0.134 NA
ATOM      7  N   UNL     1       4.343  -1.195  -3.850  0.00  0.00    -0.065 NA
ATOM      8  N   UNL     1       3.422  -2.098  -3.903  0.00  0.00    -0.244 N 
ATOM      9  C   UNL     1       2.157   0.035  -1.268  0.00  0.00    +0.063 C 
ENDROOT
BRANCH   1  11
ATOM     10  C   UNL     1      -0.019   1.526   0.010  0.00  0.00    +0.011 C 
ATOM     11  C   UNL     1       0.002  -0.004   0.002  0.00  0.00    -0.035 C 
ATOM     12  C   UNL     1       0.742  -0.511   1.242  0.00  0.00    +0.011 C 
ATOM     13  C   UNL     1      -1.433  -0.534   0.013  0.00  0.00    +0.011 C 
ENDBRANCH   1  11
BRANCH   8  14
ATOM     14  C   UNL     1       3.395  -3.249  -4.809  0.00  0.00    +0.180 C 
BRANCH  14  15
ATOM     15  C   UNL     1       2.680  -2.869  -6.081  0.00  0.00    -0.026 A 
ATOM     16  C   UNL     1       1.312  -3.043  -6.181  0.00  0.00    +0.007 A 
ATOM     17  C   UNL     1       0.654  -2.696  -7.345  0.00  0.00    +0.023 A 
ATOM     18  C   UNL     1       1.368  -2.173  -8.415  0.00  0.00    +0.025 A 
ATOM     19  C   UNL     1       2.742  -1.999  -8.311  0.00  0.00    +0.023 A 
ATOM     20  C   UNL     1       3.393  -2.343  -7.142  0.00  0.00    +0.007 A 
BRANCH  18  21
ATOM     21  N   UNL     1       0.706  -1.821  -9.594  0.00  0.00    -0.358 N 
ATOM     22  H   UNL     1      -0.254  -1.943  -9.665  0.00  0.00    +0.142 HD
ATOM     23  H   UNL     1       1.206  -1.456 -10.340  0.00  0.00    +0.142 HD
ENDBRANCH  18  21
ENDBRANCH  14  15
ENDBRANCH   8  14
TORSDOF 4
