REMARK  Name = ZINC36848563
REMARK  6 active torsions:
REMARK  status: ('A' for Active; 'I' for Inactive)
REMARK    1  A    between atoms: C_1  and  C_2
REMARK    2  A    between atoms: C_2  and  C_3
REMARK    3  A    between atoms: C_3  and  C_22
REMARK    4  A    between atoms: N_6  and  C_10
REMARK    5  A    between atoms: C_10  and  C_11
REMARK    6  A    between atoms: N_13  and  C_14
REMARK                            x       y       z     vdW  Elec       q    Type
REMARK                         _______ _______ _______ _____ _____    ______ ____
ROOT
ATOM      1  C   UNL     1      -1.444  -0.522   0.040  0.00  0.00    +0.138 C 
ATOM      2  C   UNL     1      -2.197  -0.031  -1.181  0.00  0.00    +0.251 C 
ATOM      3  O   UNL     1      -1.930  -0.251  -2.343  0.00  0.00    -0.272 OA
ATOM      4  N   UNL     1      -3.225   0.699  -0.706  0.00  0.00    -0.215 N 
ATOM      5  C   UNL     1      -3.227   0.737   0.632  0.00  0.00    +0.310 C 
ATOM      6  O   UNL     1      -4.057   1.333   1.290  0.00  0.00    -0.252 OA
ATOM      7  N   UNL     1      -2.208   0.041   1.167  0.00  0.00    -0.281 N 
ATOM      8  H   UNL     1      -2.013  -0.069   2.111  0.00  0.00    +0.152 HD
ENDROOT
BRANCH   1   9
ATOM      9  C   UNL     1      -1.446  -2.028   0.098  0.00  0.00    -0.015 A 
ATOM     10  C   UNL     1      -0.399  -2.742  -0.454  0.00  0.00    +0.007 A 
ATOM     11  C   UNL     1      -0.401  -4.123  -0.401  0.00  0.00    +0.020 A 
ATOM     12  C   UNL     1      -1.450  -4.791   0.205  0.00  0.00    +0.041 A 
ATOM     13  C   UNL     1      -2.498  -4.076   0.757  0.00  0.00    +0.020 A 
ATOM     14  C   UNL     1      -2.493  -2.695   0.708  0.00  0.00    +0.007 A 
ATOM     15 CL   UNL     1      -1.453  -6.526   0.272  0.00  0.00    -0.084 Cl
ENDBRANCH   1   9
BRANCH   1  17
ATOM     16  C   UNL     1      -0.038   1.542   0.052  0.00  0.00    +0.007 C 
ATOM     17  C   UNL     1      -0.011   0.013   0.040  0.00  0.00    +0.037 C 
ENDBRANCH   1  17
BRANCH   4  18
ATOM     18  C   UNL     1      -4.218   1.368  -1.549  0.00  0.00    +0.214 C 
BRANCH  18  19
ATOM     19  C   UNL     1      -5.371   0.433  -1.807  0.00  0.00    +0.235 C 
ATOM     20  O   UNL     1      -5.364  -0.684  -1.333  0.00  0.00    -0.274 OA
ATOM     21  N   UNL     1      -6.410   0.837  -2.564  0.00  0.00    -0.283 N 
ATOM     22  H   UNL     1      -6.447   1.750  -2.890  0.00  0.00    +0.155 HD
BRANCH  21  23
ATOM     23  C   UNL     1      -7.437  -0.062  -2.882  0.00  0.00    +0.052 A 
ATOM     24  C   UNL     1      -7.823  -1.029  -1.964  0.00  0.00    +0.027 A 
ATOM     25  C   UNL     1      -8.835  -1.915  -2.279  0.00  0.00    +0.040 A 
ATOM     26  C   UNL     1      -9.465  -1.839  -3.510  0.00  0.00    +0.125 A 
ATOM     27  C   UNL     1      -9.082  -0.876  -4.428  0.00  0.00    +0.060 A 
ATOM     28  C   UNL     1      -8.074   0.016  -4.114  0.00  0.00    +0.065 A 
ATOM     29 CL   UNL     1      -7.598   1.228  -5.263  0.00  0.00    -0.082 Cl
ATOM     30  F   UNL     1     -10.455  -2.707  -3.815  0.00  0.00    -0.205 F 
ENDBRANCH  21  23
ENDBRANCH  18  19
ENDBRANCH   4  18
TORSDOF 5
