REMARK  Name = ZINC63580114
REMARK  2 active torsions:
REMARK  status: ('A' for Active; 'I' for Inactive)
REMARK    1  A    between atoms: C_14  and  C_16
REMARK    2  A    between atoms: C_19  and  C_24
REMARK                            x       y       z     vdW  Elec       q    Type
REMARK                         _______ _______ _______ _____ _____    ______ ____
ROOT
ATOM      1  C   UNL     1      -0.016   1.354   0.009  0.00  0.00    +0.001 A 
ATOM      2  C   UNL     1       1.160   2.103   0.002  0.00  0.00    +0.001 A 
ATOM      3  C   UNL     1       2.382   1.512  -0.013  0.00  0.00    +0.008 A 
ATOM      4  C   UNL     1       2.474   0.104  -0.021  0.00  0.00    -0.016 A 
ATOM      5  C   UNL     1       3.716  -0.536  -0.036  0.00  0.00    +0.037 A 
ATOM      6  C   UNL     1       3.769  -1.925  -0.044  0.00  0.00    +0.079 A 
ATOM      7  C   UNL     1       2.528  -2.710  -0.036  0.00  0.00    +0.067 A 
ATOM      8  C   UNL     1       1.294  -2.079  -0.021  0.00  0.00    +0.024 A 
ATOM      9  C   UNL     1       1.238  -0.683  -0.013  0.00  0.00    -0.017 A 
ATOM     10  C   UNL     1       0.002  -0.004   0.002  0.00  0.00    +0.008 A 
ATOM     11  C   UNL     1       2.654  -4.170  -0.044  0.00  0.00    +0.281 A 
ATOM     12  O   UNL     1       1.562  -4.967  -0.038  0.00  0.00    -0.265 OA
ATOM     13  N   UNL     1       3.873  -4.679  -0.058  0.00  0.00    -0.189 NA
ATOM     14  C   UNL     1       4.962  -3.908  -0.064  0.00  0.00    +0.169 A 
ATOM     15  N   UNL     1       4.937  -2.590  -0.058  0.00  0.00    -0.227 NA
ENDROOT
BRANCH  14  16
ATOM     16  C   UNL     1       6.279  -4.574  -0.080  0.00  0.00    +0.083 A 
ATOM     17  C   UNL     1       7.451  -3.817  -0.081  0.00  0.00    +0.019 A 
ATOM     18  C   UNL     1       8.677  -4.466  -0.095  0.00  0.00    +0.027 A 
ATOM     19  C   UNL     1       8.723  -5.853  -0.107  0.00  0.00    +0.056 A 
ATOM     20  N   UNL     1       7.569  -6.589  -0.105  0.00  0.00    -0.321 N 
ATOM     21  H   UNL     1       7.619  -7.558  -0.113  0.00  0.00    +0.169 HD
ATOM     22  C   UNL     1       6.365  -5.986  -0.086  0.00  0.00    +0.260 A 
ATOM     23  O   UNL     1       5.348  -6.657  -0.080  0.00  0.00    -0.267 OA
BRANCH  19  24
ATOM     24  C   UNL     1      10.020  -6.535  -0.122  0.00  0.00    +0.036 A 
ATOM     25  C   UNL     1      10.292  -7.895  -0.141  0.00  0.00    +0.017 A 
ATOM     26  C   UNL     1      11.624  -8.237  -0.152  0.00  0.00    +0.008 A 
ATOM     27  C   UNL     1      12.556  -7.254  -0.145  0.00  0.00    +0.046 A 
ATOM     28  S   UNL     1      11.659  -5.834  -0.128  0.00  0.00    -0.095 S 
ENDBRANCH  19  24
ENDBRANCH  14  16
TORSDOF 2
