REMARK  Name = ZINC43955911
REMARK  12 active torsions:
REMARK  status: ('A' for Active; 'I' for Inactive)
REMARK    1  A    between atoms: C_1  and  C_2
REMARK    2  A    between atoms: C_2  and  O_3
REMARK    3  A    between atoms: O_3  and  C_4
REMARK    4  A    between atoms: C_7  and  S_11
REMARK    5  A    between atoms: C_9  and  C_10
REMARK    6  A    between atoms: S_11  and  N_14
REMARK    7  A    between atoms: N_14  and  C_15
REMARK    8  A    between atoms: C_15  and  C_16
REMARK    9  A    between atoms: N_24  and  C_25
REMARK   10  A    between atoms: C_25  and  C_26
REMARK   11  A    between atoms: C_25  and  C_27
REMARK   12  A    between atoms: C_25  and  C_28
REMARK                            x       y       z     vdW  Elec       q    Type
REMARK                         _______ _______ _______ _____ _____    ______ ____
ROOT
ATOM      1  N   UNL     1      -2.080  -6.847   1.564  0.00  0.00    -0.190 NA
ATOM      2  H   UNL     1      -1.378  -7.414   1.919  0.00  0.00    +0.148 HD
ENDROOT
BRANCH   1   3
ATOM      3  S   UNL     1      -2.029  -6.359  -0.018  0.00  0.00    +0.058 S 
ATOM      4  O   UNL     1      -3.315  -6.619  -0.565  0.00  0.00    -0.153 OA
ATOM      5  O   UNL     1      -0.840  -6.905  -0.573  0.00  0.00    -0.153 OA
BRANCH   3   9
ATOM      6  C   UNL     1      -1.509  -1.861  -0.016  0.00  0.00    +0.123 A 
ATOM      7  C   UNL     1      -0.396  -2.689  -0.020  0.00  0.00    +0.048 A 
ATOM      8  C   UNL     1      -0.557  -4.061  -0.021  0.00  0.00    +0.032 A 
ATOM      9  C   UNL     1      -1.827  -4.609  -0.017  0.00  0.00    +0.106 A 
ATOM     10  C   UNL     1      -2.937  -3.786  -0.013  0.00  0.00    +0.035 A 
ATOM     11  C   UNL     1      -2.781  -2.413  -0.007  0.00  0.00    -0.007 A 
ATOM     12  C   UNL     1      -3.992  -1.516   0.003  0.00  0.00    +0.047 C 
BRANCH   6  13
ATOM     13  O   UNL     1      -1.352  -0.511  -0.015  0.00  0.00    -0.492 OA
BRANCH  13  15
ATOM     14  C   UNL     1      -0.038   1.517  -0.022  0.00  0.00    +0.048 C 
ATOM     15  C   UNL     1      -0.013  -0.013  -0.025  0.00  0.00    +0.225 C 
ENDBRANCH  13  15
ENDBRANCH   6  13
ENDBRANCH   3   9
ENDBRANCH   1   3
BRANCH   1  16
ATOM     16  C   UNL     1      -3.186  -6.421   2.426  0.00  0.00    +0.109 C 
BRANCH  16  17
ATOM     17  C   UNL     1      -3.207  -7.284   3.690  0.00  0.00    +0.007 C 
ATOM     18  C   UNL     1      -3.520  -8.733   3.313  0.00  0.00    +0.024 C 
ATOM     19  C   UNL     1      -3.507  -9.600   4.576  0.00  0.00    +0.109 C 
ATOM     20  N   UNL     1      -4.433  -9.018   5.558  0.00  0.00    -0.286 N 
ATOM     21  C   UNL     1      -4.277  -7.604   5.924  0.00  0.00    +0.109 C 
ATOM     22  C   UNL     1      -4.282  -6.760   4.646  0.00  0.00    +0.024 C 
ATOM     23  C   UNL     1      -5.406  -9.768   6.112  0.00  0.00    +0.303 C 
ATOM     24  O   UNL     1      -5.586 -10.909   5.731  0.00  0.00    -0.253 OA
ATOM     25  N   UNL     1      -6.181  -9.253   7.087  0.00  0.00    -0.294 N 
ATOM     26  H   UNL     1      -6.086  -8.322   7.341  0.00  0.00    +0.151 HD
BRANCH  25  27
ATOM     27  C   UNL     1      -7.166 -10.100   7.764  0.00  0.00    +0.028 C 
ATOM     28  C   UNL     1      -6.453 -11.273   8.439  0.00  0.00    +0.031 C 
ATOM     29  C   UNL     1      -7.906  -9.277   8.820  0.00  0.00    +0.031 C 
ATOM     30  C   UNL     1      -8.169 -10.634   6.739  0.00  0.00    +0.031 C 
ENDBRANCH  25  27
ENDBRANCH  16  17
ENDBRANCH   1  16
TORSDOF 7
