REMARK  Name = ZINC08598494
REMARK  8 active torsions:
REMARK  status: ('A' for Active; 'I' for Inactive)
REMARK    1  A    between atoms: C_1  and  O_2
REMARK    2  A    between atoms: O_2  and  C_3
REMARK    3  A    between atoms: C_6  and  N_11
REMARK    4  A    between atoms: C_8  and  O_9
REMARK    5  A    between atoms: O_9  and  C_10
REMARK    6  A    between atoms: C_12  and  C_14
REMARK    7  A    between atoms: N_19  and  S_21
REMARK    8  A    between atoms: S_21  and  C_24
REMARK                            x       y       z     vdW  Elec       q    Type
REMARK                         _______ _______ _______ _____ _____    ______ ____
ROOT
ATOM      1  C   UNL     1       3.973  -2.445   6.253  0.00  0.00    +0.091 C 
ATOM      2  C   UNL     1       3.039  -3.335   7.077  0.00  0.00    +0.015 C 
ATOM      3  C   UNL     1       3.843  -4.052   8.164  0.00  0.00    +0.018 C 
ATOM      4  C   UNL     1       4.470  -3.012   9.099  0.00  0.00    +0.109 C 
ATOM      5  N   UNL     1       5.254  -2.065   8.295  0.00  0.00    -0.176 NA
ATOM      6  C   UNL     1       4.602  -1.387   7.166  0.00  0.00    +0.122 C 
ENDROOT
BRANCH   1   8
ATOM      7  N   UNL     1       2.541  -2.502   4.237  0.00  0.00    -0.285 N 
ATOM      8  C   UNL     1       3.187  -1.764   5.162  0.00  0.00    +0.222 C 
ATOM      9  O   UNL     1       3.135  -0.553   5.117  0.00  0.00    -0.275 OA
ATOM     10  H   UNL     1       2.519  -3.468   4.316  0.00  0.00    +0.155 HD
BRANCH   7  14
ATOM     11  C   UNL     1       0.644  -0.621   1.031  0.00  0.00    +0.162 A 
ATOM     12  C   UNL     1       1.805  -0.084   1.562  0.00  0.00    +0.051 A 
ATOM     13  C   UNL     1       2.434  -0.706   2.624  0.00  0.00    +0.027 A 
ATOM     14  C   UNL     1       1.903  -1.872   3.160  0.00  0.00    +0.037 A 
ATOM     15  C   UNL     1       0.740  -2.413   2.630  0.00  0.00    +0.072 A 
ATOM     16  C   UNL     1       0.106  -1.786   1.570  0.00  0.00    +0.163 A 
BRANCH  11  18
ATOM     17  C   UNL     1       0.633   1.185  -0.517  0.00  0.00    +0.277 C 
ATOM     18  O   UNL     1       0.026  -0.007  -0.014  0.00  0.00    -0.491 OA
ENDBRANCH  11  18
BRANCH  16  19
ATOM     19  O   UNL     1      -1.036  -2.312   1.053  0.00  0.00    -0.491 OA
ATOM     20  C   UNL     1      -1.530  -3.509   1.655  0.00  0.00    +0.277 C 
ENDBRANCH  16  19
ENDBRANCH   7  14
ENDBRANCH   1   8
BRANCH   5  21
ATOM     21  S   UNL     1       6.842  -1.766   8.655  0.00  0.00    +0.061 S 
ATOM     22  O   UNL     1       7.144  -0.482   8.125  0.00  0.00    -0.153 OA
ATOM     23  O   UNL     1       7.014  -2.082  10.029  0.00  0.00    -0.153 OA
BRANCH  21  24
ATOM     24  C   UNL     1       7.809  -2.925   7.746  0.00  0.00    +0.106 A 
ATOM     25  C   UNL     1       8.125  -4.154   8.298  0.00  0.00    +0.030 A 
ATOM     26  C   UNL     1       8.877  -5.048   7.575  0.00  0.00    +0.025 A 
ATOM     27  C   UNL     1       9.339  -4.742   6.283  0.00  0.00    +0.037 A 
ATOM     28  C   UNL     1       9.025  -3.514   5.741  0.00  0.00    -0.024 A 
ATOM     29  C   UNL     1       8.252  -2.618   6.480  0.00  0.00    +0.034 A 
ATOM     30  C   UNL     1       9.452  -3.034   4.391  0.00  0.00    +0.037 C 
ATOM     31  C   UNL     1      10.814  -3.468   3.947  0.00  0.00    +0.014 C 
ATOM     32  C   UNL     1      10.861  -4.898   3.463  0.00  0.00    +0.096 C 
ATOM     33  C   UNL     1      10.767  -5.867   4.587  0.00  0.00    +0.217 C 
ATOM     34  O   UNL     1      11.416  -6.886   4.477  0.00  0.00    -0.275 OA
ATOM     35  N   UNL     1      10.065  -5.741   5.677  0.00  0.00    -0.285 N 
ATOM     36  H   UNL     1      10.049  -6.563   6.192  0.00  0.00    +0.155 HD
ENDBRANCH  21  24
ENDBRANCH   5  21
TORSDOF 6
