REMARK  Name = ZINC64616622
REMARK  8 active torsions:
REMARK  status: ('A' for Active; 'I' for Inactive)
REMARK    1  A    between atoms: C_1  and  C_2
REMARK    2  A    between atoms: C_2  and  C_3
REMARK    3  A    between atoms: C_2  and  N_11
REMARK    4  A    between atoms: C_3  and  C_4
REMARK    5  A    between atoms: C_7  and  O_10
REMARK    6  A    between atoms: C_12  and  C_14
REMARK    7  A    between atoms: N_16  and  C_17
REMARK    8  A    between atoms: N_26  and  C_27
REMARK                            x       y       z     vdW  Elec       q    Type
REMARK                         _______ _______ _______ _____ _____    ______ ____
ROOT
ATOM      1  N   UNL     1       0.710  -0.492   1.188  0.00  0.00    -0.305 N 
ATOM      2  C   UNL     1       2.053  -0.604   1.172  0.00  0.00    +0.300 C 
ATOM      3  O   UNL     1       2.675  -0.309   0.173  0.00  0.00    -0.265 OA
ATOM      4  H   UNL     1       0.213  -0.728   1.987  0.00  0.00    +0.149 HD
ENDROOT
BRANCH   2   5
ATOM      5  C   UNL     1       2.776  -1.092   2.385  0.00  0.00    +0.303 C 
ATOM      6  O   UNL     1       2.154  -1.387   3.384  0.00  0.00    -0.265 OA
ATOM      7  N   UNL     1       4.119  -1.204   2.369  0.00  0.00    -0.278 N 
ATOM      8  H   UNL     1       4.610  -1.033   1.550  0.00  0.00    +0.155 HD
BRANCH   7   9
ATOM      9  C   UNL     1       4.804  -1.567   3.533  0.00  0.00    +0.034 A 
ATOM     10  C   UNL     1       4.235  -2.471   4.421  0.00  0.00    +0.025 A 
ATOM     11  C   UNL     1       4.913  -2.826   5.569  0.00  0.00    +0.025 A 
ATOM     12  C   UNL     1       6.164  -2.280   5.837  0.00  0.00    +0.033 A 
ATOM     13  C   UNL     1       6.736  -1.380   4.951  0.00  0.00    -0.025 A 
ATOM     14  C   UNL     1       6.055  -1.028   3.798  0.00  0.00    +0.028 A 
ATOM     15  C   UNL     1       8.093  -0.780   5.206  0.00  0.00    +0.038 C 
ATOM     16  C   UNL     1       8.451  -0.875   6.689  0.00  0.00    +0.024 C 
ATOM     17  C   UNL     1       8.255  -2.324   7.154  0.00  0.00    +0.105 C 
ATOM     18  N   UNL     1       6.831  -2.652   7.012  0.00  0.00    -0.333 N 
ATOM     19  C   UNL     1       6.119  -3.357   8.081  0.00  0.00    +0.129 C 
ENDBRANCH   7   9
ENDBRANCH   2   5
BRANCH   1  21
ATOM     20  C   UNL     1      -0.018   1.516  -0.004  0.00  0.00    +0.028 C 
ATOM     21  C   UNL     1       0.001  -0.014  -0.002  0.00  0.00    +0.075 C 
BRANCH  21  22
ATOM     22  C   UNL     1      -1.435  -0.542   0.014  0.00  0.00    +0.057 C 
BRANCH  22  23
ATOM     23  C   UNL     1      -1.420  -2.044  -0.107  0.00  0.00    -0.045 A 
ATOM     24  C   UNL     1      -1.455  -2.636  -1.357  0.00  0.00    +0.007 A 
ATOM     25  C   UNL     1      -1.442  -4.012  -1.471  0.00  0.00    +0.045 A 
ATOM     26  C   UNL     1      -1.392  -4.801  -0.331  0.00  0.00    +0.117 A 
ATOM     27  C   UNL     1      -1.355  -4.205   0.921  0.00  0.00    +0.045 A 
ATOM     28  C   UNL     1      -1.364  -2.828   1.030  0.00  0.00    +0.007 A 
BRANCH  26  29
ATOM     29  O   UNL     1      -1.379  -6.156  -0.441  0.00  0.00    -0.507 OA
ATOM     30  H   UNL     1      -0.492  -6.537  -0.504  0.00  0.00    +0.292 HD
ENDBRANCH  26  29
ENDBRANCH  22  23
ENDBRANCH  21  22
ENDBRANCH   1  21
TORSDOF 6
