REMARK  Name = ZINC36358867
REMARK  9 active torsions:
REMARK  status: ('A' for Active; 'I' for Inactive)
REMARK    1  A    between atoms: C_4  and  C_7
REMARK    2  A    between atoms: C_8  and  C_9
REMARK    3  A    between atoms: C_9  and  N_10
REMARK    4  A    between atoms: N_13  and  C_16
REMARK    5  A    between atoms: C_16  and  C_18
REMARK    6  A    between atoms: C_16  and  C_33
REMARK    7  A    between atoms: N_20  and  C_28
REMARK    8  A    between atoms: C_28  and  C_29
REMARK    9  A    between atoms: C_29  and  C_30
REMARK                            x       y       z     vdW  Elec       q    Type
REMARK                         _______ _______ _______ _____ _____    ______ ____
ROOT
ATOM      1  C   UNL     1       5.501  -7.277   3.248  0.00  0.00    +0.203 C 
ENDROOT
BRANCH   1   2
ATOM      2  C   UNL     1       4.362  -8.258   3.140  0.00  0.00    +0.006 A 
ATOM      3  C   UNL     1       3.785  -8.690   2.009  0.00  0.00    +0.092 A 
ATOM      4  N   UNL     1       2.784  -9.576   2.304  0.00  0.00    -0.346 N 
ATOM      5  C   UNL     1       2.691  -9.740   3.668  0.00  0.00    +0.052 A 
ATOM      6  C   UNL     1       3.679  -8.926   4.252  0.00  0.00    +0.005 A 
ATOM      7  C   UNL     1       3.825  -8.892   5.640  0.00  0.00    +0.013 A 
ATOM      8  C   UNL     1       3.008  -9.654   6.427  0.00  0.00    +0.039 A 
ATOM      9  C   UNL     1       2.032 -10.463   5.856  0.00  0.00    +0.125 A 
ATOM     10  C   UNL     1       1.867 -10.505   4.487  0.00  0.00    +0.064 A 
ATOM     11  F   UNL     1       1.234 -11.211   6.649  0.00  0.00    -0.205 F 
BRANCH   4  12
ATOM     12  C   UNL     1       1.937 -10.250   1.316  0.00  0.00    +0.133 C 
BRANCH  12  13
ATOM     13  C   UNL     1       0.641  -9.458   1.131  0.00  0.00    +0.146 C 
BRANCH  13  14
ATOM     14  C   UNL     1      -0.230 -10.151   0.115  0.00  0.00    +0.358 C 
ATOM     15  O   UNL     1       0.151 -11.182  -0.412  0.00  0.00    -0.246 OA
ATOM     16  O   UNL     1      -1.315  -9.680  -0.180  0.00  0.00    -0.246 OA
ENDBRANCH  13  14
ENDBRANCH  12  13
ENDBRANCH   4  12
ENDBRANCH   1   2
BRANCH   1  20
ATOM     17  N   UNL     1       5.342  -3.840   0.793  0.00  0.00    +0.384 N 
ATOM     18  C   UNL     1       4.223  -4.790   0.725  0.00  0.00    -0.063 C 
ATOM     19  C   UNL     1       4.216  -5.661   1.983  0.00  0.00    +0.067 C 
ATOM     20  N   UNL     1       5.491  -6.385   2.081  0.00  0.00    -0.290 NA
ATOM     21  C   UNL     1       6.622  -5.448   2.124  0.00  0.00    +0.067 C 
ATOM     22  C   UNL     1       6.609  -4.579   0.865  0.00  0.00    -0.063 C 
ATOM     23  H   UNL     1       5.242  -3.262   1.614  0.00  0.00    -0.081 HD
BRANCH  17  24
ATOM     24  C   UNL     1       5.337  -2.992  -0.407  0.00  0.00    -0.051 C 
BRANCH  24  26
ATOM     25  C   UNL     1       4.189  -0.825  -0.517  0.00  0.00    +0.002 C 
ATOM     26  C   UNL     1       4.092  -2.144  -0.417  0.00  0.00    -0.045 C 
BRANCH  25  30
ATOM     27  C   UNL     1       0.679   1.566  -0.548  0.00  0.00    +0.000 A 
ATOM     28  C   UNL     1       1.922   2.166  -0.641  0.00  0.00    +0.001 A 
ATOM     29  C   UNL     1       3.066   1.395  -0.631  0.00  0.00    +0.008 A 
ATOM     30  C   UNL     1       2.968   0.007  -0.527  0.00  0.00    -0.025 A 
ATOM     31  C   UNL     1       1.711  -0.592  -0.433  0.00  0.00    +0.008 A 
ATOM     32  C   UNL     1       0.575   0.191  -0.444  0.00  0.00    +0.001 A 
ENDBRANCH  25  30
ENDBRANCH  24  26
ENDBRANCH  17  24
ENDBRANCH   1  20
BRANCH   1  33
ATOM     33  C   UNL     1       6.807  -8.028   3.295  0.00  0.00    +0.377 C 
ATOM     34  O   UNL     1       7.209  -8.487   4.351  0.00  0.00    -0.244 OA
ATOM     35  O   UNL     1       7.463  -8.176   2.277  0.00  0.00    -0.244 OA
ENDBRANCH   1  33
TORSDOF 9
