REMARK  Name = ZINC12372046
REMARK  9 active torsions:
REMARK  status: ('A' for Active; 'I' for Inactive)
REMARK    1  A    between atoms: C_1  and  C_2
REMARK    2  A    between atoms: C_3  and  C_24
REMARK    3  A    between atoms: C_5  and  S_8
REMARK    4  A    between atoms: S_8  and  C_9
REMARK    5  A    between atoms: C_9  and  C_10
REMARK    6  A    between atoms: N_12  and  C_13
REMARK    7  A    between atoms: C_14  and  C_22
REMARK    8  A    between atoms: C_24  and  C_25
REMARK    9  A    between atoms: C_28  and  O_31
REMARK                            x       y       z     vdW  Elec       q    Type
REMARK                         _______ _______ _______ _____ _____    ______ ____
ROOT
ATOM      1  S   UNL     1       0.058  -3.564   1.636  0.00  0.00    -0.079 S 
ENDROOT
BRANCH   1   6
ATOM      2  C   UNL     1      -0.018   1.503   0.010  0.00  0.00    +0.065 C 
ATOM      3  C   UNL     1       0.002  -0.004   0.002  0.00  0.00    +0.037 A 
ATOM      4  C   UNL     1       0.008  -0.798  -1.082  0.00  0.00    +0.067 A 
ATOM      5  N   UNL     1       0.028  -2.077  -0.670  0.00  0.00    -0.226 NA
ATOM      6  C   UNL     1       0.034  -2.110   0.642  0.00  0.00    +0.167 A 
ATOM      7  N   UNL     1       0.024  -0.829   1.104  0.00  0.00    -0.337 N 
ATOM      8  H   UNL     1       0.030  -0.551   2.033  0.00  0.00    +0.168 HD
BRANCH   4   9
ATOM      9  C   UNL     1      -0.005  -0.333  -2.516  0.00  0.00    +0.092 C 
BRANCH   9  10
ATOM     10  C   UNL     1       1.411  -0.158  -3.001  0.00  0.00    -0.041 A 
ATOM     11  C   UNL     1       2.047   1.060  -2.848  0.00  0.00    +0.007 A 
ATOM     12  C   UNL     1       3.345   1.223  -3.292  0.00  0.00    +0.045 A 
ATOM     13  C   UNL     1       4.010   0.163  -3.891  0.00  0.00    +0.117 A 
ATOM     14  C   UNL     1       3.370  -1.058  -4.043  0.00  0.00    +0.045 A 
ATOM     15  C   UNL     1       2.074  -1.218  -3.592  0.00  0.00    +0.007 A 
BRANCH  13  16
ATOM     16  O   UNL     1       5.287   0.322  -4.329  0.00  0.00    -0.507 OA
ATOM     17  H   UNL     1       5.959   0.111  -3.666  0.00  0.00    +0.292 HD
ENDBRANCH  13  16
ENDBRANCH   9  10
ENDBRANCH   4   9
ENDBRANCH   1   6
BRANCH   1  18
ATOM     18  C   UNL     1       0.071  -4.920   0.431  0.00  0.00    +0.173 C 
BRANCH  18  19
ATOM     19  C   UNL     1       0.092  -6.239   1.159  0.00  0.00    +0.228 C 
ATOM     20  O   UNL     1       0.098  -6.262   2.372  0.00  0.00    -0.275 OA
ATOM     21  N   UNL     1       0.105  -7.393   0.463  0.00  0.00    -0.278 N 
ATOM     22  H   UNL     1       0.100  -7.374  -0.507  0.00  0.00    +0.155 HD
BRANCH  21  23
ATOM     23  C   UNL     1       0.124  -8.608   1.133  0.00  0.00    +0.090 A 
ATOM     24  C   UNL     1       0.144  -9.881   0.588  0.00  0.00    +0.084 A 
ATOM     25  C   UNL     1       0.163 -11.000   1.513  0.00  0.00    -0.018 A 
ATOM     26  C   UNL     1       0.157 -10.640   2.815  0.00  0.00    -0.004 A 
ATOM     27  S   UNL     1       0.135  -8.872   2.791  0.00  0.00    -0.077 S 
ATOM     28  C   UNL     1       0.170 -11.555   4.001  0.00  0.00    +0.043 C 
ATOM     29  C   UNL     1      -0.189 -12.969   3.523  0.00  0.00    +0.005 C 
ATOM     30  C   UNL     1       0.653 -13.304   2.288  0.00  0.00    +0.005 C 
ATOM     31  C   UNL     1       0.188 -12.463   1.097  0.00  0.00    +0.037 C 
BRANCH  24  32
ATOM     32  C   UNL     1       0.147 -10.085  -0.830  0.00  0.00    +0.102 C 
ATOM     33  N   UNL     1       0.149 -10.247  -1.954  0.00  0.00    -0.191 NA
ENDBRANCH  24  32
ENDBRANCH  21  23
ENDBRANCH  18  19
ENDBRANCH   1  18
TORSDOF 8
