REMARK  Name = ZINC01828105
REMARK  9 active torsions:
REMARK  status: ('A' for Active; 'I' for Inactive)
REMARK    1  A    between atoms: C_1  and  O_2
REMARK    2  A    between atoms: O_2  and  C_3
REMARK    3  A    between atoms: C_13  and  C_17
REMARK    4  A    between atoms: C_20  and  O_34
REMARK    5  A    between atoms: C_21  and  C_23
REMARK    6  A    between atoms: C_23  and  O_24
REMARK    7  A    between atoms: O_24  and  C_25
REMARK    8  A    between atoms: C_28  and  N_31
REMARK    9  A    between atoms: O_34  and  C_35
REMARK                            x       y       z     vdW  Elec       q    Type
REMARK                         _______ _______ _______ _____ _____    ______ ____
ROOT
ATOM      1  C   UNL     1      -1.219   1.750   0.017  0.00  0.00    -0.055 A 
ATOM      2  C   UNL     1      -1.242   3.133   0.030  0.00  0.00    +0.006 A 
ATOM      3  C   UNL     1      -0.057   3.844   0.022  0.00  0.00    +0.046 A 
ATOM      4  C   UNL     1       1.155   3.169   0.008  0.00  0.00    +0.126 A 
ATOM      5  C   UNL     1       1.175   1.782   0.000  0.00  0.00    +0.031 A 
ATOM      6  C   UNL     1      -0.013   1.076   0.008  0.00  0.00    +0.013 A 
ENDROOT
BRANCH   1  17
ATOM      7  C   UNL     1      -5.419   0.936   5.333  0.00  0.00    +0.121 A 
ATOM      8  C   UNL     1      -4.152   0.659   5.831  0.00  0.00    +0.047 A 
ATOM      9  C   UNL     1      -3.044   0.549   5.009  0.00  0.00    +0.030 A 
ATOM     10  C   UNL     1      -3.247   0.728   3.643  0.00  0.00    +0.047 A 
ATOM     11  C   UNL     1      -4.539   1.010   3.131  0.00  0.00    +0.006 A 
ATOM     12  C   UNL     1      -5.648   1.119   3.977  0.00  0.00    +0.056 A 
ATOM     13  C   UNL     1      -4.382   1.131   1.698  0.00  0.00    -0.022 A 
ATOM     14  C   UNL     1      -3.074   0.929   1.421  0.00  0.00    +0.010 A 
ATOM     15  N   UNL     1      -2.387   0.687   2.579  0.00  0.00    -0.359 N 
ATOM     16  H   UNL     1      -1.435   0.513   2.638  0.00  0.00    +0.166 HD
ATOM     17  C   UNL     1      -2.513   0.977   0.019  0.00  0.00    +0.007 C 
ATOM     18  C   UNL     1      -4.826   1.049  -0.722  0.00  0.00    -0.076 C 
ATOM     19  C   UNL     1      -5.421   1.419   0.644  0.00  0.00    +0.018 C 
ATOM     20  N   UNL     1      -3.487   1.655  -0.865  0.00  0.00    +0.387 N 
ATOM     21  H   UNL     1      -3.178   1.565  -1.839  0.00  0.00    -0.084 HD
ATOM     22  H   UNL     1      -3.537   2.649  -0.612  0.00  0.00    -0.084 HD
BRANCH   7  24
ATOM     23  C   UNL     1      -6.177   0.835   7.585  0.00  0.00    +0.277 C 
ATOM     24  O   UNL     1      -6.464   1.031   6.198  0.00  0.00    -0.495 OA
ENDBRANCH   7  24
ENDBRANCH   1  17
BRANCH   4  25
ATOM     25  O   UNL     1       2.322   3.866  -0.000  0.00  0.00    -0.495 OA
ATOM     26  C   UNL     1       2.226   5.292   0.008  0.00  0.00    +0.277 C 
ENDBRANCH   4  25
BRANCH   5  27
ATOM     27  C   UNL     1       2.490   1.047  -0.015  0.00  0.00    +0.268 C 
BRANCH  27  28
ATOM     28  O   UNL     1       2.248  -0.362  -0.019  0.00  0.00    -0.487 OA
BRANCH  28  29
ATOM     29  C   UNL     1       3.337  -1.175  -0.033  0.00  0.00    +0.121 A 
ATOM     30  C   UNL     1       4.612  -0.628  -0.048  0.00  0.00    +0.048 A 
ATOM     31  C   UNL     1       5.717  -1.457  -0.057  0.00  0.00    +0.036 A 
ATOM     32  C   UNL     1       5.553  -2.830  -0.062  0.00  0.00    +0.126 A 
ATOM     33  C   UNL     1       4.284  -3.377  -0.053  0.00  0.00    +0.036 A 
ATOM     34  C   UNL     1       3.175  -2.553  -0.038  0.00  0.00    +0.048 A 
BRANCH  32  35
ATOM     35  N   UNL     1       6.739  -3.716  -0.077  0.00  0.00    +0.056 N 
ATOM     36  O   UNL     1       6.596  -4.925  -0.081  0.00  0.00    -0.126 OA
ATOM     37  O   UNL     1       7.858  -3.235  -0.086  0.00  0.00    -0.126 OA
ENDBRANCH  32  35
ENDBRANCH  28  29
ENDBRANCH  27  28
ENDBRANCH   5  27
TORSDOF 7
