REMARK  Name = ZINC63091660
REMARK  9 active torsions:
REMARK  status: ('A' for Active; 'I' for Inactive)
REMARK    1  A    between atoms: C_1  and  C_2
REMARK    2  A    between atoms: C_4  and  C_14
REMARK    3  A    between atoms: C_5  and  C_13
REMARK    4  A    between atoms: C_14  and  C_15
REMARK    5  A    between atoms: C_15  and  C_16
REMARK    6  A    between atoms: N_18  and  C_19
REMARK    7  A    between atoms: C_19  and  C_20
REMARK    8  A    between atoms: C_20  and  C_22
REMARK    9  A    between atoms: C_20  and  C_27
REMARK                            x       y       z     vdW  Elec       q    Type
REMARK                         _______ _______ _______ _____ _____    ______ ____
ROOT
ATOM      1  C   UNL     1      -4.542   0.671   1.908  0.00  0.00    +0.213 C 
ATOM      2  O   UNL     1      -4.008   1.533   2.574  0.00  0.00    -0.276 OA
ATOM      3  N   UNL     1      -5.866   0.451   2.028  0.00  0.00    -0.314 N 
ATOM      4  H   UNL     1      -6.293  -0.239   1.496  0.00  0.00    +0.149 HD
ENDROOT
BRANCH   1   5
ATOM      5  C   UNL     1      -3.724  -0.154   0.948  0.00  0.00    +0.096 C 
BRANCH   5   6
ATOM      6  C   UNL     1      -2.263   0.295   1.006  0.00  0.00    +0.020 C 
BRANCH   6   9
ATOM      7  C   UNL     1      -0.019   1.526   0.010  0.00  0.00    +0.033 C 
ATOM      8  C   UNL     1       0.002  -0.004   0.002  0.00  0.00    +0.116 C 
ATOM      9  C   UNL     1      -1.433  -0.542   0.030  0.00  0.00    +0.058 C 
ATOM     10  C   UNL     1      -1.467  -1.979   0.463  0.00  0.00    +0.025 C 
ATOM     11  N   UNL     1      -0.618  -2.480   1.302  0.00  0.00    -0.220 NA
ATOM     12  C   UNL     1       0.371  -1.675   1.791  0.00  0.00    +0.250 A 
ATOM     13  N   UNL     1       0.694  -0.495   1.193  0.00  0.00    -0.224 N 
ATOM     14  N   UNL     1       1.734   0.059   1.931  0.00  0.00    -0.132 NA
ATOM     15  C   UNL     1       1.988  -0.778   2.916  0.00  0.00    +0.234 A 
ATOM     16  N   UNL     1       1.157  -1.825   2.828  0.00  0.00    -0.177 NA
ATOM     17  N   UNL     1       2.966  -0.602   3.896  0.00  0.00    -0.326 N 
ATOM     18  C   UNL     1      -2.537  -2.877  -0.103  0.00  0.00    +0.061 C 
ATOM     19  H   UNL     1       3.525   0.191   3.886  0.00  0.00    +0.145 HD
ATOM     20  H   UNL     1       3.085  -1.271   4.588  0.00  0.00    +0.145 HD
ENDBRANCH   6   9
ENDBRANCH   5   6
ENDBRANCH   1   5
BRANCH   3  21
ATOM     21  C   UNL     1      -6.661   1.252   2.962  0.00  0.00    +0.117 C 
BRANCH  21  22
ATOM     22  C   UNL     1      -8.122   0.803   2.904  0.00  0.00    +0.071 C 
BRANCH  22  23
ATOM     23  C   UNL     1      -8.960   1.707   3.771  0.00  0.00    -0.032 C 
ATOM     24  C   UNL     1     -10.002   2.474   3.378  0.00  0.00    -0.000 A 
ATOM     25  C   UNL     1     -10.642   2.690   2.075  0.00  0.00    +0.010 A 
ATOM     26  C   UNL     1     -11.691   3.539   1.992  0.00  0.00    +0.001 A 
ATOM     27  C   UNL     1     -12.181   4.217   3.116  0.00  0.00    +0.002 A 
ATOM     28  C   UNL     1     -11.646   4.071   4.347  0.00  0.00    +0.026 A 
ATOM     29  C   UNL     1     -10.539   3.202   4.550  0.00  0.00    +0.043 A 
ATOM     30  N   UNL     1      -9.855   2.896   5.626  0.00  0.00    -0.380 N 
ATOM     31  C   UNL     1      -8.810   1.934   5.259  0.00  0.00    +0.145 C 
ATOM     32  H   UNL     1     -10.016   3.244   6.517  0.00  0.00    +0.160 HD
ENDBRANCH  22  23
BRANCH  22  33
ATOM     33  C   UNL     1      -8.232  -0.615   3.402  0.00  0.00    -0.002 A 
ATOM     34  C   UNL     1      -8.681  -1.716   2.751  0.00  0.00    +0.012 A 
ATOM     35  C   UNL     1      -8.691  -2.929   3.414  0.00  0.00    +0.008 A 
ATOM     36  C   UNL     1      -8.252  -2.981   4.695  0.00  0.00    +0.045 A 
ATOM     37  S   UNL     1      -7.798  -1.282   5.000  0.00  0.00    -0.101 S 
ENDBRANCH  22  33
ENDBRANCH  21  22
ENDBRANCH   3  21
TORSDOF 7
