REMARK  Name = ZINC39672212
REMARK  5 active torsions:
REMARK  status: ('A' for Active; 'I' for Inactive)
REMARK    1  A    between atoms: C_1  and  N_2
REMARK    2  A    between atoms: C_10  and  C_12
REMARK    3  A    between atoms: C_12  and  N_13
REMARK    4  A    between atoms: C_14  and  C_16
REMARK    5  A    between atoms: C_27  and  C_29
REMARK                            x       y       z     vdW  Elec       q    Type
REMARK                         _______ _______ _______ _____ _____    ______ ____
ROOT
ATOM      1  C   UNL     1       7.123  -3.034   2.679  0.00  0.00    +0.100 C 
ATOM      2  C   UNL     1       7.202  -1.509   2.918  0.00  0.00    +0.121 C 
ATOM      3  N   UNL     1       8.512  -1.302   3.581  0.00  0.00    -0.296 N 
ATOM      4  C   UNL     1       9.429  -2.237   2.886  0.00  0.00    +0.115 C 
ATOM      5  C   UNL     1       8.586  -3.507   2.658  0.00  0.00    -0.004 C 
ATOM      6  C   UNL     1       8.921  -4.126   1.304  0.00  0.00    -0.010 C 
ATOM      7  C   UNL     1      10.363  -4.642   1.327  0.00  0.00    -0.082 C 
ATOM      8  N   UNL     1      10.511  -5.639   2.394  0.00  0.00    +0.379 N 
ATOM      9  C   UNL     1      10.277  -5.013   3.701  0.00  0.00    -0.082 C 
ATOM     10  C   UNL     1       8.832  -4.513   3.779  0.00  0.00    -0.010 C 
ATOM     11  C   UNL     1       8.803  -0.455   4.588  0.00  0.00    +0.248 C 
ATOM     12  O   UNL     1       9.951  -0.337   4.970  0.00  0.00    -0.270 OA
ATOM     13  H   UNL     1       9.841  -6.382   2.255  0.00  0.00    -0.086 HD
ATOM     14  H   UNL     1      11.444  -6.022   2.368  0.00  0.00    -0.086 HD
ENDROOT
BRANCH  11  15
ATOM     15  C   UNL     1       7.726   0.329   5.229  0.00  0.00    +0.057 A 
ATOM     16  C   UNL     1       6.713   0.894   4.452  0.00  0.00    +0.014 A 
ATOM     17  C   UNL     1       5.711   1.625   5.055  0.00  0.00    +0.002 A 
ATOM     18  C   UNL     1       5.707   1.800   6.428  0.00  0.00    +0.021 A 
ATOM     19  C   UNL     1       6.707   1.244   7.205  0.00  0.00    +0.060 A 
ATOM     20  C   UNL     1       7.715   0.503   6.614  0.00  0.00    +0.071 A 
ATOM     21 CL   UNL     1       8.966  -0.201   7.591  0.00  0.00    -0.081 Cl
ATOM     22 CL   UNL     1       6.694   1.470   8.927  0.00  0.00    -0.082 Cl
ENDBRANCH  11  15
BRANCH   1  24
ATOM     23  N   UNL     1       5.799  -4.485   1.176  0.00  0.00    -0.311 N 
ATOM     24  C   UNL     1       6.458  -3.324   1.358  0.00  0.00    +0.218 C 
ATOM     25  O   UNL     1       6.516  -2.512   0.459  0.00  0.00    -0.275 OA
ATOM     26  H   UNL     1       5.752  -5.134   1.895  0.00  0.00    +0.149 HD
BRANCH  23  27
ATOM     27  C   UNL     1       5.153  -4.767  -0.108  0.00  0.00    +0.139 C 
BRANCH  27  37
ATOM     28  C   UNL     1       1.380 -10.008   0.834  0.00  0.00    +0.129 C 
ATOM     29  N   UNL     1       2.650  -9.852   0.120  0.00  0.00    -0.333 N 
ATOM     30  C   UNL     1       3.278 -11.002  -0.545  0.00  0.00    +0.105 C 
ATOM     31  C   UNL     1       4.774 -10.980  -0.206  0.00  0.00    +0.024 C 
ATOM     32  C   UNL     1       5.393  -9.707  -0.784  0.00  0.00    +0.038 C 
ATOM     33  C   UNL     1       4.599  -8.498  -0.366  0.00  0.00    -0.026 A 
ATOM     34  C   UNL     1       3.281  -8.605   0.055  0.00  0.00    +0.033 A 
ATOM     35  C   UNL     1       2.572  -7.468   0.425  0.00  0.00    +0.024 A 
ATOM     36  C   UNL     1       3.178  -6.228   0.371  0.00  0.00    +0.007 A 
ATOM     37  C   UNL     1       4.491  -6.120  -0.051  0.00  0.00    -0.030 A 
ATOM     38  C   UNL     1       5.202  -7.253  -0.410  0.00  0.00    +0.010 A 
ENDBRANCH  27  37
ENDBRANCH  23  27
ENDBRANCH   1  24
TORSDOF 4
