REMARK  Name = ZINC39942935
REMARK  3 active torsions:
REMARK  status: ('A' for Active; 'I' for Inactive)
REMARK    1  A    between atoms: C_5  and  C_7
REMARK    2  A    between atoms: C_19  and  N_23
REMARK    3  A    between atoms: C_20  and  C_21
REMARK                            x       y       z     vdW  Elec       q    Type
REMARK                         _______ _______ _______ _____ _____    ______ ____
ROOT
ATOM      1  C   UNL     1       1.229  -2.186  -0.022  0.00  0.00    +0.086 C 
ATOM      2  C   UNL     1       0.499  -2.700  -1.269  0.00  0.00    +0.171 C 
ATOM      3  C   UNL     1       0.905  -1.891  -2.466  0.00  0.00    +0.233 C 
ATOM      4  O   UNL     1       2.074  -1.852  -2.785  0.00  0.00    -0.274 OA
ATOM      5  N   UNL     1       0.005  -1.209  -3.191  0.00  0.00    -0.238 N 
ATOM      6  C   UNL     1      -1.299  -1.214  -2.871  0.00  0.00    +0.332 C 
ATOM      7  O   UNL     1      -2.084  -0.603  -3.570  0.00  0.00    -0.250 OA
ATOM      8  N   UNL     1      -1.756  -1.878  -1.798  0.00  0.00    -0.131 NA
ATOM      9  C   UNL     1      -0.984  -2.574  -1.017  0.00  0.00    +0.204 C 
ATOM     10  O   UNL     1      -1.480  -3.207   0.069  0.00  0.00    -0.428 OA
ATOM     11  C   UNL     1      -0.735  -3.160   1.195  0.00  0.00    +0.200 C 
ATOM     12  C   UNL     1       0.537  -2.705   1.210  0.00  0.00    +0.095 C 
ATOM     13  H   UNL     1       0.302  -0.702  -3.963  0.00  0.00    +0.159 HD
ENDROOT
BRANCH   1  18
ATOM     14  C   UNL     1      -0.017   1.378   0.010  0.00  0.00    +0.000 A 
ATOM     15  C   UNL     1       1.171   2.086   0.002  0.00  0.00    +0.001 A 
ATOM     16  C   UNL     1       2.377   1.412  -0.013  0.00  0.00    +0.015 A 
ATOM     17  C   UNL     1       2.397   0.029  -0.021  0.00  0.00    +0.022 A 
ATOM     18  C   UNL     1       1.208  -0.679  -0.013  0.00  0.00    -0.024 A 
ATOM     19  C   UNL     1       0.002  -0.004   0.002  0.00  0.00    +0.005 A 
ATOM     20 BR   UNL     1       4.047  -0.894  -0.042  0.00  0.00    -0.050 Br
ENDBRANCH   1  18
BRANCH  11  21
ATOM     21  N   UNL     1      -1.292  -3.593   2.372  0.00  0.00    -0.328 N 
ATOM     22  H   UNL     1      -2.204  -3.924   2.384  0.00  0.00    +0.145 HD
ATOM     23  H   UNL     1      -0.774  -3.568   3.192  0.00  0.00    +0.145 HD
ENDBRANCH  11  21
BRANCH  12  24
ATOM     24  C   UNL     1       1.257  -2.716   2.447  0.00  0.00    +0.100 C 
ATOM     25  N   UNL     1       1.828  -2.726   3.429  0.00  0.00    -0.191 NA
ENDBRANCH  12  24
TORSDOF 3
