REMARK  Name = ZINC38204335
REMARK  11 active torsions:
REMARK  status: ('A' for Active; 'I' for Inactive)
REMARK    1  A    between atoms: C_1  and  C_2
REMARK    2  A    between atoms: C_2  and  O_3
REMARK    3  A    between atoms: O_3  and  C_4
REMARK    4  A    between atoms: C_4  and  C_6
REMARK    5  A    between atoms: C_7  and  C_39
REMARK    6  A    between atoms: C_14  and  C_15
REMARK    7  A    between atoms: C_24  and  C_26
REMARK    8  A    between atoms: C_28  and  C_30
REMARK    9  A    between atoms: C_33  and  C_36
REMARK   10  A    between atoms: C_36  and  C_37
REMARK   11  A    between atoms: C_36  and  C_38
REMARK                            x       y       z     vdW  Elec       q    Type
REMARK                         _______ _______ _______ _____ _____    ______ ____
ROOT
ATOM      1  C   UNL     1       1.646  -1.302  -1.977  0.00  0.00    +0.085 C 
ATOM      2  C   UNL     1       2.201  -2.509  -1.652  0.00  0.00    +0.053 C 
ATOM      3  N   UNL     1       2.989  -3.142  -2.512  0.00  0.00    -0.228 NA
ATOM      4  C   UNL     1       3.302  -2.700  -3.704  0.00  0.00    +0.178 A 
ATOM      5  N   UNL     1       2.852  -1.510  -4.227  0.00  0.00    -0.275 N 
ATOM      6  C   UNL     1       3.242  -1.162  -5.460  0.00  0.00    +0.268 A 
ATOM      7  O   UNL     1       2.869  -0.118  -5.964  0.00  0.00    -0.266 OA
ATOM      8  C   UNL     1       4.130  -2.075  -6.186  0.00  0.00    +0.080 A 
ATOM      9  C   UNL     1       4.668  -1.953  -7.446  0.00  0.00    +0.027 C 
ATOM     10  S   UNL     1       4.327  -3.386  -4.990  0.00  0.00    -0.046 S 
ATOM     11  C   UNL     1       1.951  -0.722  -3.339  0.00  0.00    +0.162 C 
ATOM     12  C   UNL     1       1.916  -3.124  -0.306  0.00  0.00    +0.066 C 
ENDROOT
BRANCH   9  13
ATOM     13  C   UNL     1       5.337  -3.043  -8.034  0.00  0.00    -0.006 C 
ATOM     14  C   UNL     1       5.991  -2.886  -9.218  0.00  0.00    +0.018 C 
ATOM     15  C   UNL     1       6.656  -4.064  -9.795  0.00  0.00    +0.017 A 
ATOM     16  C   UNL     1       7.611  -3.939 -10.805  0.00  0.00    +0.011 A 
ATOM     17  C   UNL     1       8.209  -5.072 -11.317  0.00  0.00    +0.001 A 
ATOM     18  C   UNL     1       7.867  -6.324 -10.834  0.00  0.00    +0.004 A 
ATOM     19  C   UNL     1       6.922  -6.460  -9.833  0.00  0.00    +0.046 A 
ATOM     20  C   UNL     1       6.310  -5.336  -9.306  0.00  0.00    +0.128 A 
ATOM     21  O   UNL     1       5.380  -5.436  -8.325  0.00  0.00    -0.484 OA
ATOM     22  C   UNL     1       5.340  -4.386  -7.353  0.00  0.00    +0.201 C 
ATOM     23  C   UNL     1       6.564  -4.489  -6.440  0.00  0.00    +0.057 C 
ENDBRANCH   9  13
BRANCH  11  24
ATOM     24  C   UNL     1       2.579   0.633  -3.135  0.00  0.00    -0.020 A 
ATOM     25  C   UNL     1       3.920   0.733  -2.814  0.00  0.00    +0.006 A 
ATOM     26  C   UNL     1       4.495   1.975  -2.627  0.00  0.00    +0.004 A 
ATOM     27  C   UNL     1       3.730   3.119  -2.762  0.00  0.00    -0.045 A 
ATOM     28  C   UNL     1       2.389   3.019  -3.084  0.00  0.00    +0.004 A 
ATOM     29  C   UNL     1       1.815   1.776  -3.275  0.00  0.00    +0.006 A 
BRANCH  27  30
ATOM     30  C   UNL     1       4.357   4.474  -2.557  0.00  0.00    +0.013 C 
ATOM     31  C   UNL     1       4.223   5.296  -3.840  0.00  0.00    +0.012 C 
ATOM     32  C   UNL     1       3.646   5.197  -1.411  0.00  0.00    +0.012 C 
ENDBRANCH  27  30
ENDBRANCH  11  24
BRANCH   1  33
ATOM     33  C   UNL     1       0.811  -0.625  -1.074  0.00  0.00    +0.339 C 
ATOM     34  O   UNL     1       0.465  -1.167  -0.040  0.00  0.00    -0.245 OA
BRANCH  33  35
ATOM     35  O   UNL     1       0.392   0.629  -1.352  0.00  0.00    -0.462 OA
BRANCH  35  37
ATOM     36  C   UNL     1      -0.825   2.662  -0.873  0.00  0.00    +0.048 C 
ATOM     37  C   UNL     1      -0.456   1.258  -0.388  0.00  0.00    +0.229 C 
ENDBRANCH  35  37
ENDBRANCH  33  35
ENDBRANCH   1  33
TORSDOF 6
