REMARK  Name = ZINC39685969
REMARK  8 active torsions:
REMARK  status: ('A' for Active; 'I' for Inactive)
REMARK    1  A    between atoms: C_1  and  C_2
REMARK    2  A    between atoms: C_2  and  C_3
REMARK    3  A    between atoms: C_2  and  C_4
REMARK    4  A    between atoms: C_9  and  N_12
REMARK    5  A    between atoms: C_13  and  C_15
REMARK    6  A    between atoms: C_26  and  C_28
REMARK    7  A    between atoms: C_28  and  C_29
REMARK    8  A    between atoms: C_29  and  C_30
REMARK                            x       y       z     vdW  Elec       q    Type
REMARK                         _______ _______ _______ _____ _____    ______ ____
ROOT
ATOM      1  C   UNL     1      -7.036   3.202  -3.686  0.00  0.00    +0.100 C 
ATOM      2  C   UNL     1      -6.349   4.238  -4.604  0.00  0.00    +0.121 C 
ATOM      3  N   UNL     1      -6.895   3.962  -5.954  0.00  0.00    -0.300 N 
ATOM      4  C   UNL     1      -8.326   3.654  -5.718  0.00  0.00    +0.115 C 
ATOM      5  C   UNL     1      -8.334   2.824  -4.419  0.00  0.00    -0.004 C 
ATOM      6  C   UNL     1      -8.341   1.334  -4.747  0.00  0.00    -0.010 C 
ATOM      7  C   UNL     1      -9.666   0.971  -5.424  0.00  0.00    -0.082 C 
ATOM      8  N   UNL     1     -10.781   1.301  -4.529  0.00  0.00    +0.379 N 
ATOM      9  C   UNL     1     -10.823   2.749  -4.292  0.00  0.00    -0.082 C 
ATOM     10  C   UNL     1      -9.547   3.187  -3.568  0.00  0.00    -0.010 C 
ATOM     11  C   UNL     1      -6.238   3.985  -7.131  0.00  0.00    +0.216 C 
ATOM     12  O   UNL     1      -6.829   3.734  -8.160  0.00  0.00    -0.276 OA
ATOM     13  H   UNL     1     -11.649   1.006  -4.951  0.00  0.00    -0.086 HD
ATOM     14  H   UNL     1     -10.658   0.822  -3.649  0.00  0.00    -0.086 HD
ENDROOT
BRANCH   1  16
ATOM     15  N   UNL     1      -6.230   1.258  -2.385  0.00  0.00    -0.312 N 
ATOM     16  C   UNL     1      -6.158   1.989  -3.515  0.00  0.00    +0.218 C 
ATOM     17  O   UNL     1      -5.386   1.671  -4.394  0.00  0.00    -0.275 OA
ATOM     18  H   UNL     1      -6.848   1.513  -1.681  0.00  0.00    +0.149 HD
BRANCH  15  24
ATOM     19  C   UNL     1      -5.031  -3.721  -0.698  0.00  0.00    +0.218 C 
ATOM     20  O   UNL     1      -5.407  -4.674  -1.346  0.00  0.00    -0.275 OA
ATOM     21  N   UNL     1      -4.813  -2.537  -1.304  0.00  0.00    -0.301 N 
ATOM     22  C   UNL     1      -4.248  -1.405  -0.557  0.00  0.00    +0.109 C 
ATOM     23  C   UNL     1      -5.169  -0.193  -0.727  0.00  0.00    +0.041 C 
ATOM     24  C   UNL     1      -5.377   0.080  -2.218  0.00  0.00    +0.076 C 
ATOM     25  C   UNL     1      -6.046  -1.131  -2.872  0.00  0.00    +0.041 C 
ATOM     26  C   UNL     1      -5.130  -2.356  -2.728  0.00  0.00    +0.109 C 
BRANCH  19  28
ATOM     27  C   UNL     1      -6.049  -3.372   1.536  0.00  0.00    +0.017 C 
ATOM     28  C   UNL     1      -4.808  -3.859   0.786  0.00  0.00    +0.069 C 
ATOM     29  C   UNL     1      -4.549  -5.328   1.128  0.00  0.00    +0.017 C 
ENDBRANCH  19  28
ENDBRANCH  15  24
ENDBRANCH   1  16
BRANCH  11  30
ATOM     30  C   UNL     1      -4.770   4.322  -7.168  0.00  0.00    +0.096 C 
BRANCH  30  31
ATOM     31  C   UNL     1      -4.273   4.279  -8.614  0.00  0.00    +0.013 C 
BRANCH  31  32
ATOM     32  C   UNL     1      -2.782   4.621  -8.652  0.00  0.00    -0.011 C 
ATOM     33  C   UNL     1      -2.570   6.099  -8.265  0.00  0.00    +0.003 C 
ATOM     34  C   UNL     1      -1.413   6.570  -9.181  0.00  0.00    +0.000 C 
ATOM     35  C   UNL     1      -1.718   5.845 -10.515  0.00  0.00    +0.000 C 
ATOM     36  C   UNL     1      -2.240   4.460 -10.083  0.00  0.00    +0.003 C 
ENDBRANCH  31  32
ENDBRANCH  30  31
ENDBRANCH  11  30
TORSDOF 6
