REMARK  Name = ZINC04469482
REMARK  4 active torsions:
REMARK  status: ('A' for Active; 'I' for Inactive)
REMARK    1  A    between atoms: C_1  and  C_2
REMARK    2  A    between atoms: C_2  and  C_29
REMARK    3  A    between atoms: C_13  and  C_15
REMARK    4  A    between atoms: C_15  and  N_16
REMARK                            x       y       z     vdW  Elec       q    Type
REMARK                         _______ _______ _______ _____ _____    ______ ____
ROOT
ATOM      1  C   UNL     1       0.534  -4.230  -3.566  0.00  0.00    +0.042 C 
ATOM      2  C   UNL     1      -0.039  -4.037  -4.971  0.00  0.00    +0.113 C 
ATOM      3  C   UNL     1       0.917  -4.600  -5.986  0.00  0.00    +0.241 C 
ATOM      4  O   UNL     1       1.613  -5.549  -5.691  0.00  0.00    -0.273 OA
ATOM      5  N   UNL     1       1.014  -4.062  -7.216  0.00  0.00    -0.282 N 
ATOM      6  C   UNL     1       0.260  -2.937  -7.566  0.00  0.00    +0.055 A 
ATOM      7  C   UNL     1       0.134  -2.551  -8.891  0.00  0.00    +0.025 A 
ATOM      8  C   UNL     1      -0.607  -1.429  -9.214  0.00  0.00    +0.002 A 
ATOM      9  C   UNL     1      -1.223  -0.689  -8.222  0.00  0.00    +0.002 A 
ATOM     10  C   UNL     1      -1.105  -1.068  -6.896  0.00  0.00    +0.025 A 
ATOM     11  C   UNL     1      -0.367  -2.190  -6.567  0.00  0.00    +0.059 A 
ATOM     12  N   UNL     1      -0.232  -2.603  -5.232  0.00  0.00    -0.254 N 
ATOM     13  C   UNL     1      -0.271  -1.712  -4.221  0.00  0.00    +0.239 C 
ATOM     14  O   UNL     1      -0.078  -2.078  -3.081  0.00  0.00    -0.273 OA
ATOM     15  C   UNL     1      -1.382  -4.762  -5.082  0.00  0.00    +0.042 C 
ATOM     16  H   UNL     1       1.613  -4.459  -7.868  0.00  0.00    +0.155 HD
ENDROOT
BRANCH  13  17
ATOM     17  C   UNL     1      -0.555  -0.260  -4.508  0.00  0.00    +0.214 C 
BRANCH  17  18
ATOM     18  N   UNL     1      -0.167   0.551  -3.351  0.00  0.00    -0.215 N 
ATOM     19  C   UNL     1       1.057   1.086  -3.179  0.00  0.00    +0.247 C 
ATOM     20  O   UNL     1       2.009   0.988  -3.923  0.00  0.00    -0.273 OA
ATOM     21  C   UNL     1       1.000   1.838  -1.860  0.00  0.00    +0.113 C 
ATOM     22  C   UNL     1       1.993   1.367  -0.903  0.00  0.00    +0.035 C 
ATOM     23  C   UNL     1       1.877   2.068   0.464  0.00  0.00    +0.003 C 
ATOM     24  C   UNL     1       2.553   3.411   0.368  0.00  0.00    +0.000 C 
ATOM     25  C   UNL     1       1.562   4.540   0.029  0.00  0.00    +0.000 C 
ATOM     26  C   UNL     1       0.534   4.132  -1.045  0.00  0.00    +0.003 C 
ATOM     27  C   UNL     1       1.152   3.345  -2.167  0.00  0.00    +0.035 C 
ATOM     28  N   UNL     1      -0.385   1.608  -1.401  0.00  0.00    -0.285 N 
ATOM     29  C   UNL     1      -0.984   0.852  -2.336  0.00  0.00    +0.310 C 
ATOM     30  O   UNL     1      -2.139   0.481  -2.268  0.00  0.00    -0.252 OA
ATOM     31  H   UNL     1      -0.785   1.939  -0.581  0.00  0.00    +0.151 HD
ENDBRANCH  17  18
ENDBRANCH  13  17
TORSDOF 2
