REMARK  Name = ZINC46876039
REMARK  7 active torsions:
REMARK  status: ('A' for Active; 'I' for Inactive)
REMARK    1  A    between atoms: C_4  and  N_7
REMARK    2  A    between atoms: C_8  and  N_25
REMARK    3  A    between atoms: C_11  and  S_12
REMARK    4  A    between atoms: S_12  and  C_13
REMARK    5  A    between atoms: C_13  and  C_14
REMARK    6  A    between atoms: C_14  and  C_15
REMARK    7  A    between atoms: N_17  and  C_18
REMARK                            x       y       z     vdW  Elec       q    Type
REMARK                         _______ _______ _______ _____ _____    ______ ____
ROOT
ATOM      1  N   UNL     1       3.629  -0.642  -0.041  0.00  0.00    -0.260 N 
ATOM      2  C   UNL     1       4.116  -1.445  -1.039  0.00  0.00    +0.208 A 
ATOM      3  N   UNL     1       5.277  -1.889  -0.646  0.00  0.00    -0.114 NA
ATOM      4  N   UNL     1       5.556  -1.427   0.520  0.00  0.00    -0.121 NA
ATOM      5  C   UNL     1       4.583  -0.652   0.939  0.00  0.00    +0.197 A 
ENDROOT
BRANCH   2   6
ATOM      6  N   UNL     1       3.485  -1.734  -2.252  0.00  0.00    -0.365 NA
ATOM      7  C   UNL     1       4.329  -1.276  -3.362  0.00  0.00    +0.087 C 
ATOM      8  C   UNL     1       3.607  -1.517  -4.690  0.00  0.00    +0.017 C 
ATOM      9  C   UNL     1       3.324  -3.014  -4.846  0.00  0.00    +0.003 C 
ATOM     10  C   UNL     1       2.506  -3.496  -3.645  0.00  0.00    +0.017 C 
ATOM     11  C   UNL     1       3.268  -3.182  -2.356  0.00  0.00    +0.087 C 
ATOM     12  H   UNL     1       2.596  -1.258  -2.290  0.00  0.00    +0.129 HD
ENDBRANCH   2   6
BRANCH   1  16
ATOM     13  C   UNL     1       0.002   1.413  -0.008  0.00  0.00    +0.000 A 
ATOM     14  C   UNL     1       1.193   2.115  -0.015  0.00  0.00    +0.002 A 
ATOM     15  C   UNL     1       2.396   1.437  -0.026  0.00  0.00    +0.026 A 
ATOM     16  C   UNL     1       2.409   0.049  -0.030  0.00  0.00    +0.052 A 
ATOM     17  C   UNL     1       1.211  -0.653  -0.023  0.00  0.00    +0.026 A 
ATOM     18  C   UNL     1       0.011   0.030  -0.012  0.00  0.00    +0.002 A 
ENDBRANCH   1  16
BRANCH   5  19
ATOM     19  S   UNL     1       4.517   0.211   2.474  0.00  0.00    -0.085 S 
BRANCH  19  20
ATOM     20  C   UNL     1       6.077  -0.227   3.290  0.00  0.00    +0.086 C 
BRANCH  20  21
ATOM     21  C   UNL     1       6.151   0.465   4.653  0.00  0.00    +0.107 C 
BRANCH  21  22
ATOM     22  C   UNL     1       7.447   0.102   5.331  0.00  0.00    +0.218 C 
ATOM     23  O   UNL     1       8.234  -0.638   4.779  0.00  0.00    -0.275 OA
ATOM     24  N   UNL     1       7.731   0.598   6.552  0.00  0.00    -0.285 N 
ATOM     25  H   UNL     1       7.134   1.242   6.965  0.00  0.00    +0.155 HD
BRANCH  24  26
ATOM     26  C   UNL     1       8.888   0.185   7.223  0.00  0.00    +0.034 A 
ATOM     27  C   UNL     1       8.877   0.044   8.605  0.00  0.00    +0.026 A 
ATOM     28  C   UNL     1      10.020  -0.363   9.265  0.00  0.00    +0.040 A 
ATOM     29  C   UNL     1      11.175  -0.630   8.551  0.00  0.00    +0.124 A 
ATOM     30  C   UNL     1      11.188  -0.490   7.173  0.00  0.00    +0.040 A 
ATOM     31  C   UNL     1      10.046  -0.089   6.508  0.00  0.00    +0.026 A 
ATOM     32  F   UNL     1      12.292  -1.028   9.199  0.00  0.00    -0.205 F 
ENDBRANCH  24  26
ENDBRANCH  21  22
ENDBRANCH  20  21
ENDBRANCH  19  20
ENDBRANCH   5  19
TORSDOF 7
