REMARK  Name = ZINC06602429
REMARK  9 active torsions:
REMARK  status: ('A' for Active; 'I' for Inactive)
REMARK    1  A    between atoms: C_1  and  N_58
REMARK    2  A    between atoms: C_2  and  N_58
REMARK    3  A    between atoms: C_3  and  C_5
REMARK    4  A    between atoms: C_3  and  C_26
REMARK    5  A    between atoms: C_3  and  N_58
REMARK    6  A    between atoms: C_5  and  N_6
REMARK    7  A    between atoms: C_7  and  C_9
REMARK    8  A    between atoms: C_9  and  N_10
REMARK    9  A    between atoms: C_11  and  C_13
REMARK                            x       y       z     vdW  Elec       q    Type
REMARK                         _______ _______ _______ _____ _____    ______ ____
ROOT
ATOM      1  C   UNL     1       3.864   2.543  -0.276  0.00  0.00    +0.200 C 
ENDROOT
BRANCH   1   3
ATOM      2  N   UNL     1       1.961   1.911   1.173  0.00  0.00    -0.315 N 
ATOM      3  C   UNL     1       3.147   2.539   1.050  0.00  0.00    +0.230 C 
ATOM      4  O   UNL     1       3.637   3.102   2.006  0.00  0.00    -0.274 OA
ATOM      5  H   UNL     1       1.569   1.461   0.409  0.00  0.00    +0.149 HD
BRANCH   2   6
ATOM      6  C   UNL     1       1.265   1.908   2.462  0.00  0.00    +0.094 C 
BRANCH   6   7
ATOM      7  C   UNL     1       0.013   1.032   2.363  0.00  0.00    -0.014 C 
BRANCH   7   8
ATOM      8  C   UNL     1      -0.751   1.100   3.660  0.00  0.00    -0.022 A 
ATOM      9  C   UNL     1      -0.940   0.133   4.591  0.00  0.00    +0.009 A 
ATOM     10  C   UNL     1      -1.683   0.425   5.720  0.00  0.00    +0.008 A 
ATOM     11  C   UNL     1      -2.209   1.667   5.857  0.00  0.00    +0.045 A 
ATOM     12  S   UNL     1      -1.648   2.473   4.366  0.00  0.00    -0.103 S 
ENDBRANCH   7   8
BRANCH   7  15
ATOM     13  C   UNL     1      -1.191   2.929   1.460  0.00  0.00    -0.096 C 
ATOM     14  C   UNL     1      -2.042   0.686   1.130  0.00  0.00    -0.096 C 
ATOM     15  N   UNL     1      -0.822   1.514   1.243  0.00  0.00    +0.382 N 
ATOM     16  H   UNL     1      -0.286   1.440   0.371  0.00  0.00    -0.082 HD
ENDBRANCH   7  15
ENDBRANCH   6   7
ENDBRANCH   2   6
ENDBRANCH   1   3
BRANCH   1  17
ATOM     17  N   UNL     1       5.120   3.286  -0.150  0.00  0.00    -0.306 N 
ATOM     18  C   UNL     1       5.933   3.421  -1.216  0.00  0.00    +0.220 C 
ATOM     19  O   UNL     1       5.624   2.928  -2.280  0.00  0.00    -0.275 OA
ATOM     20  H   UNL     1       5.367   3.681   0.702  0.00  0.00    +0.149 HD
BRANCH  18  21
ATOM     21  C   UNL     1       7.225   4.186  -1.087  0.00  0.00    +0.049 C 
ATOM     22  C   UNL     1       6.926   5.626  -0.665  0.00  0.00    +0.019 C 
ATOM     23  C   UNL     1       8.238   6.402  -0.533  0.00  0.00    -0.008 C 
ATOM     24  C   UNL     1       9.121   5.734   0.522  0.00  0.00    +0.007 C 
ATOM     25  C   UNL     1       9.421   4.294   0.101  0.00  0.00    -0.008 C 
ATOM     26  C   UNL     1       8.109   3.518  -0.031  0.00  0.00    +0.019 C 
ATOM     27  C   UNL     1      10.149   4.298  -1.245  0.00  0.00    +0.026 C 
ATOM     28  C   UNL     1       9.265   4.965  -2.301  0.00  0.00    +0.047 C 
ATOM     29  C   UNL     1       8.966   6.405  -1.879  0.00  0.00    +0.026 C 
ATOM     30  C   UNL     1       7.953   4.189  -2.432  0.00  0.00    +0.039 C 
ATOM     31 CL   UNL     1      10.122   4.969  -3.887  0.00  0.00    -0.118 Cl
ENDBRANCH  18  21
ENDBRANCH   1  17
TORSDOF 7
