REMARK  Name = ZINC08597058
REMARK  10 active torsions:
REMARK  status: ('A' for Active; 'I' for Inactive)
REMARK    1  A    between atoms: C_1  and  C_2
REMARK    2  A    between atoms: C_5  and  N_8
REMARK    3  A    between atoms: C_9  and  C_27
REMARK    4  A    between atoms: C_10  and  C_13
REMARK    5  A    between atoms: N_18  and  C_21
REMARK    6  A    between atoms: C_33  and  O_35
REMARK    7  A    between atoms: O_35  and  C_36
REMARK    8  A    between atoms: C_36  and  C_37
REMARK    9  A    between atoms: C_36  and  C_38
REMARK   10  A    between atoms: C_36  and  C_39
REMARK                            x       y       z     vdW  Elec       q    Type
REMARK                         _______ _______ _______ _____ _____    ______ ____
ROOT
ATOM      1  N   UNL     1       0.085  -4.259   0.298  0.00  0.00    -0.236 N 
ATOM      2  C   UNL     1       0.810  -5.262   0.826  0.00  0.00    +0.060 A 
ATOM      3  C   UNL     1       0.512  -6.406   0.113  0.00  0.00    +0.078 A 
ATOM      4  C   UNL     1      -0.432  -6.047  -0.876  0.00  0.00    +0.148 A 
ATOM      5  N   UNL     1      -0.682  -4.773  -0.753  0.00  0.00    -0.174 NA
ENDROOT
BRANCH   3   6
ATOM      6  C   UNL     1       1.073  -7.750   0.340  0.00  0.00    +0.250 C 
ATOM      7  O   UNL     1       0.839  -8.339   1.378  0.00  0.00    -0.270 OA
ATOM      8  N   UNL     1       1.845  -8.326  -0.603  0.00  0.00    -0.301 N 
ATOM      9  C   UNL     1       2.062  -7.675  -1.904  0.00  0.00    +0.089 C 
ATOM     10  C   UNL     1       3.568  -7.641  -2.184  0.00  0.00    -0.059 C 
ATOM     11  N   UNL     1       4.114  -9.001  -2.088  0.00  0.00    +0.384 N 
ATOM     12  C   UNL     1       3.979  -9.498  -0.713  0.00  0.00    -0.059 C 
ATOM     13  C   UNL     1       2.498  -9.621  -0.358  0.00  0.00    +0.089 C 
ATOM     14  H   UNL     1       3.610  -9.609  -2.715  0.00  0.00    -0.081 HD
BRANCH  11  15
ATOM     15  C   UNL     1       5.534  -8.984  -2.463  0.00  0.00    -0.068 C 
ATOM     16  C   UNL     1       5.676  -8.477  -3.900  0.00  0.00    -0.015 C 
ATOM     17  C   UNL     1       7.155  -8.460  -4.291  0.00  0.00    -0.002 C 
ATOM     18  C   UNL     1       7.726  -9.876  -4.191  0.00  0.00    -0.000 C 
ATOM     19  C   UNL     1       7.584 -10.383  -2.755  0.00  0.00    -0.002 C 
ATOM     20  C   UNL     1       6.105 -10.400  -2.364  0.00  0.00    -0.015 C 
ENDBRANCH  11  15
ENDBRANCH   3   6
BRANCH   2  21
ATOM     21  C   UNL     1       1.770  -5.157   1.983  0.00  0.00    +0.042 C 
ATOM     22  C   UNL     1       3.123  -5.746   1.577  0.00  0.00    +0.029 C 
ATOM     23  C   UNL     1       4.107  -5.606   2.743  0.00  0.00    +0.112 C 
ATOM     24  N   UNL     1       3.514  -6.221   3.938  0.00  0.00    -0.267 N 
ATOM     25  C   UNL     1       2.175  -5.792   4.364  0.00  0.00    +0.112 C 
ATOM     26  C   UNL     1       1.213  -5.930   3.180  0.00  0.00    +0.029 C 
ATOM     27  C   UNL     1       4.186  -7.162   4.631  0.00  0.00    +0.403 C 
ATOM     28  O   UNL     1       5.293  -7.510   4.268  0.00  0.00    -0.226 OA
BRANCH  27  29
ATOM     29  O   UNL     1       3.631  -7.718   5.724  0.00  0.00    -0.445 OA
BRANCH  29  30
ATOM     30  C   UNL     1       4.400  -8.709   6.410  0.00  0.00    +0.107 C 
ATOM     31  C   UNL     1       5.718  -8.094   6.885  0.00  0.00    +0.055 C 
ATOM     32  C   UNL     1       3.611  -9.221   7.617  0.00  0.00    +0.055 C 
ATOM     33  C   UNL     1       4.693  -9.873   5.461  0.00  0.00    +0.055 C 
ENDBRANCH  29  30
ENDBRANCH  27  29
ENDBRANCH   2  21
BRANCH   1  38
ATOM     34  C   UNL     1       0.116   1.138   2.054  0.00  0.00    +0.044 C 
ATOM     35  C   UNL     1       0.108  -0.295   1.588  0.00  0.00    -0.050 A 
ATOM     36  C   UNL     1       1.301  -0.977   1.431  0.00  0.00    +0.005 A 
ATOM     37  C   UNL     1       1.296  -2.290   1.004  0.00  0.00    +0.028 A 
ATOM     38  C   UNL     1       0.093  -2.926   0.732  0.00  0.00    +0.066 A 
ATOM     39  C   UNL     1      -1.104  -2.240   0.892  0.00  0.00    +0.028 A 
ATOM     40  C   UNL     1      -1.093  -0.928   1.324  0.00  0.00    +0.005 A 
ENDBRANCH   1  38
TORSDOF 6
