REMARK  Name = ZINC06561697
REMARK  8 active torsions:
REMARK  status: ('A' for Active; 'I' for Inactive)
REMARK    1  A    between atoms: C_1  and  N_2
REMARK    2  A    between atoms: N_2  and  C_3
REMARK    3  A    between atoms: N_2  and  S_4
REMARK    4  A    between atoms: S_4  and  C_7
REMARK    5  A    between atoms: C_11  and  N_13
REMARK    6  A    between atoms: C_14  and  C_16
REMARK    7  A    between atoms: C_16  and  N_55
REMARK    8  A    between atoms: C_17  and  N_55
REMARK                            x       y       z     vdW  Elec       q    Type
REMARK                         _______ _______ _______ _____ _____    ______ ____
ROOT
ATOM      1  N   UNL     1       1.143   1.898   0.001  0.00  0.00    -0.286 N 
ATOM      2  C   UNL     1      -0.015   1.209   0.012  0.00  0.00    +0.200 C 
ATOM      3  O   UNL     1       0.002  -0.004  -0.001  0.00  0.00    -0.278 OA
ATOM      4  H   UNL     1       1.131   2.866  -0.069  0.00  0.00    +0.155 HD
ENDROOT
BRANCH   1   9
ATOM      5  C   UNL     1       3.625  -0.703   0.774  0.00  0.00    +0.107 A 
ATOM      6  C   UNL     1       4.776  -0.125   0.272  0.00  0.00    +0.030 A 
ATOM      7  C   UNL     1       4.725   1.123  -0.321  0.00  0.00    +0.024 A 
ATOM      8  C   UNL     1       3.522   1.797  -0.412  0.00  0.00    +0.062 A 
ATOM      9  C   UNL     1       2.364   1.218   0.092  0.00  0.00    +0.054 A 
ATOM     10  C   UNL     1       2.420  -0.033   0.690  0.00  0.00    +0.053 A 
ATOM     11 CL   UNL     1       3.458   3.364  -1.156  0.00  0.00    -0.082 Cl
BRANCH   5  12
ATOM     12  S   UNL     1       3.696  -2.294   1.529  0.00  0.00    +0.060 S 
ATOM     13  O   UNL     1       2.392  -2.849   1.430  0.00  0.00    -0.153 OA
ATOM     14  O   UNL     1       4.843  -2.944   0.999  0.00  0.00    -0.153 OA
BRANCH  12  16
ATOM     15  C   UNL     1       2.869  -1.905   4.075  0.00  0.00    +0.131 C 
ATOM     16  N   UNL     1       3.988  -2.058   3.142  0.00  0.00    -0.183 NA
ATOM     17  C   UNL     1       5.366  -2.002   3.636  0.00  0.00    +0.131 C 
ENDBRANCH  12  16
ENDBRANCH   5  12
ENDBRANCH   1   9
BRANCH   2  18
ATOM     18  C   UNL     1      -1.329   1.945   0.035  0.00  0.00    +0.016 C 
BRANCH  18  19
ATOM     19  N   UNL     1      -2.432   0.965   0.036  0.00  0.00    +0.388 N 
ATOM     20  H   UNL     1      -2.353   0.367   0.867  0.00  0.00    -0.084 HD
ATOM     21  H   UNL     1      -2.371   0.385  -0.809  0.00  0.00    -0.084 HD
BRANCH  19  22
ATOM     22  C   UNL     1      -3.734   1.658   0.058  0.00  0.00    -0.067 C 
ATOM     23  C   UNL     1      -3.836   2.521   1.317  0.00  0.00    -0.009 C 
ATOM     24  C   UNL     1      -5.190   3.232   1.340  0.00  0.00    -0.012 C 
ATOM     25  C   UNL     1      -6.313   2.192   1.341  0.00  0.00    +0.007 C 
ATOM     26  C   UNL     1      -6.210   1.330   0.081  0.00  0.00    -0.012 C 
ATOM     27  C   UNL     1      -4.856   0.619   0.059  0.00  0.00    -0.009 C 
ATOM     28  C   UNL     1      -6.340   2.219  -1.157  0.00  0.00    +0.007 C 
ATOM     29  C   UNL     1      -5.218   3.259  -1.158  0.00  0.00    -0.012 C 
ATOM     30  C   UNL     1      -5.320   4.121   0.101  0.00  0.00    +0.007 C 
ATOM     31  C   UNL     1      -3.863   2.547  -1.181  0.00  0.00    -0.009 C 
ENDBRANCH  19  22
ENDBRANCH  18  19
ENDBRANCH   2  18
TORSDOF 6
