REMARK  Name = ZINC35694810
REMARK  13 active torsions:
REMARK  status: ('A' for Active; 'I' for Inactive)
REMARK    1  A    between atoms: C_1  and  C_2
REMARK    2  A    between atoms: C_5  and  C_8
REMARK    3  A    between atoms: N_10  and  C_32
REMARK    4  A    between atoms: N_13  and  C_14
REMARK    5  A    between atoms: C_14  and  C_16
REMARK    6  A    between atoms: C_16  and  N_17
REMARK    7  A    between atoms: N_17  and  C_18
REMARK    8  A    between atoms: C_18  and  C_19
REMARK    9  A    between atoms: C_19  and  N_20
REMARK   10  A    between atoms: N_20  and  C_21
REMARK   11  A    between atoms: N_20  and  C_22
REMARK   12  A    between atoms: C_23  and  C_25
REMARK   13  A    between atoms: C_35  and  C_38
REMARK                            x       y       z     vdW  Elec       q    Type
REMARK                         _______ _______ _______ _____ _____    ______ ____
ROOT
ATOM      1  C   UNL     1       1.582  -6.630   0.841  0.00  0.00    +0.066 A 
ATOM      2  C   UNL     1       1.360  -7.694   1.631  0.00  0.00    +0.120 A 
ATOM      3  N   UNL     1       0.916  -8.732   0.837  0.00  0.00    -0.287 N 
ATOM      4  C   UNL     1       0.868  -8.291  -0.449  0.00  0.00    +0.205 A 
ATOM      5  N   UNL     1       1.270  -6.994  -0.464  0.00  0.00    -0.326 N 
ATOM      6  N   UNL     1       0.488  -9.005  -1.508  0.00  0.00    -0.145 NA
ATOM      7  H   UNL     1       1.331  -6.424  -1.246  0.00  0.00    +0.169 HD
ENDROOT
BRANCH   1  12
ATOM      8  C   UNL     1       3.465  -1.469   2.558  0.00  0.00    +0.044 C 
ATOM      9  C   UNL     1       2.972  -2.820   2.108  0.00  0.00    -0.050 A 
ATOM     10  C   UNL     1       2.701  -3.044   0.770  0.00  0.00    +0.004 A 
ATOM     11  C   UNL     1       2.249  -4.279   0.352  0.00  0.00    +0.010 A 
ATOM     12  C   UNL     1       2.067  -5.303   1.282  0.00  0.00    -0.000 A 
ATOM     13  C   UNL     1       2.342  -5.071   2.630  0.00  0.00    +0.010 A 
ATOM     14  C   UNL     1       2.798  -3.833   3.034  0.00  0.00    +0.004 A 
ENDBRANCH   1  12
BRANCH   3  15
ATOM     15  C   UNL     1       0.574 -10.016   1.279  0.00  0.00    +0.049 A 
ATOM     16  C   UNL     1       0.144 -10.973   0.369  0.00  0.00    +0.026 A 
ATOM     17  C   UNL     1      -0.192 -12.239   0.807  0.00  0.00    +0.005 A 
ATOM     18  C   UNL     1      -0.101 -12.554   2.151  0.00  0.00    -0.050 A 
ATOM     19  C   UNL     1       0.326 -11.603   3.060  0.00  0.00    +0.005 A 
ATOM     20  C   UNL     1       0.668 -10.337   2.627  0.00  0.00    +0.026 A 
ATOM     21  C   UNL     1      -0.469 -13.936   2.626  0.00  0.00    +0.044 C 
ENDBRANCH   3  15
BRANCH   6  22
ATOM     22  C   UNL     1       0.487  -8.453  -2.716  0.00  0.00    +0.256 C 
ATOM     23  O   UNL     1       0.833  -7.295  -2.855  0.00  0.00    -0.272 OA
BRANCH  22  24
ATOM     24  C   UNL     1       0.057  -9.261  -3.913  0.00  0.00    +0.205 C 
BRANCH  24  25
ATOM     25  N   UNL     1       0.144  -8.432  -5.118  0.00  0.00    -0.290 N 
ATOM     26  C   UNL     1      -0.971  -7.883  -5.640  0.00  0.00    +0.247 C 
ATOM     27  O   UNL     1      -0.904  -7.227  -6.661  0.00  0.00    -0.270 OA
BRANCH  26  28
ATOM     28  C   UNL     1      -2.274  -8.079  -4.972  0.00  0.00    +0.037 A 
ATOM     29  C   UNL     1      -2.324  -8.391  -3.611  0.00  0.00    +0.016 A 
ATOM     30  C   UNL     1      -3.542  -8.572  -2.993  0.00  0.00    +0.039 A 
ATOM     31  C   UNL     1      -4.716  -8.446  -3.719  0.00  0.00    +0.123 A 
ATOM     32  C   UNL     1      -4.673  -8.137  -5.070  0.00  0.00    +0.039 A 
ATOM     33  C   UNL     1      -3.460  -7.947  -5.697  0.00  0.00    +0.016 A 
ATOM     34  F   UNL     1      -5.908  -8.626  -3.108  0.00  0.00    -0.205 F 
ENDBRANCH  26  28
BRANCH  25  35
ATOM     35  C   UNL     1       1.442  -8.200  -5.755  0.00  0.00    +0.090 C 
BRANCH  35  36
ATOM     36  C   UNL     1       1.649  -9.218  -6.878  0.00  0.00    -0.060 C 
BRANCH  36  37
ATOM     37  N   UNL     1       2.903  -8.922  -7.582  0.00  0.00    +0.377 N 
ATOM     38  C   UNL     1       3.178  -9.983  -8.560  0.00  0.00    -0.097 C 
ATOM     39  C   UNL     1       2.782  -7.634  -8.279  0.00  0.00    -0.097 C 
ATOM     40  H   UNL     1       3.660  -8.874  -6.917  0.00  0.00    -0.083 HD
ENDBRANCH  36  37
ENDBRANCH  35  36
ENDBRANCH  25  35
ENDBRANCH  24  25
ENDBRANCH  22  24
ENDBRANCH   6  22
TORSDOF 9
