REMARK  Name = ZINC21323833
REMARK  9 active torsions:
REMARK  status: ('A' for Active; 'I' for Inactive)
REMARK    1  A    between atoms: C_1  and  C_2
REMARK    2  A    between atoms: C_2  and  C_27
REMARK    3  A    between atoms: N_3  and  N_4
REMARK    4  A    between atoms: C_8  and  S_11
REMARK    5  A    between atoms: N_9  and  N_10
REMARK    6  A    between atoms: S_11  and  C_12
REMARK    7  A    between atoms: C_12  and  C_13
REMARK    8  A    between atoms: N_15  and  C_16
REMARK    9  A    between atoms: C_17  and  C_25
REMARK                            x       y       z     vdW  Elec       q    Type
REMARK                         _______ _______ _______ _____ _____    ______ ____
ROOT
ATOM      1  N   UNL     1      -4.411  13.129  -7.407  0.00  0.00    -0.204 N 
ATOM      2  C   UNL     1      -4.027  12.228  -6.425  0.00  0.00    +0.254 A 
ATOM      3  N   UNL     1      -3.832  12.505  -5.159  0.00  0.00    -0.109 NA
ATOM      4  N   UNL     1      -3.460  11.321  -4.509  0.00  0.00    -0.119 NA
ATOM      5  C   UNL     1      -3.431  10.360  -5.402  0.00  0.00    +0.210 A 
ATOM      6  N   UNL     1      -3.784  10.895  -6.608  0.00  0.00    -0.211 N 
ATOM      7  H   UNL     1      -4.546  12.788  -8.444  0.00  0.00    +0.178 HD
ENDROOT
BRANCH   1  10
ATOM      8  C   UNL     1      -5.173  14.850  -9.419  0.00  0.00    +0.068 C 
ATOM      9  C   UNL     1      -4.988  15.317  -7.998  0.00  0.00    +0.063 C 
ATOM     10  N   UNL     1      -4.628  14.473  -7.079  0.00  0.00    -0.184 NA
BRANCH   9  11
ATOM     11  C   UNL     1      -5.215  16.731  -7.652  0.00  0.00    -0.002 A 
ATOM     12  C   UNL     1      -5.605  17.642  -8.653  0.00  0.00    +0.010 A 
ATOM     13  C   UNL     1      -5.821  18.948  -8.358  0.00  0.00    +0.009 A 
ATOM     14  C   UNL     1      -5.656  19.410  -7.039  0.00  0.00    -0.018 A 
ATOM     15  C   UNL     1      -5.875  20.758  -6.711  0.00  0.00    +0.008 A 
ATOM     16  C   UNL     1      -5.707  21.176  -5.426  0.00  0.00    +0.001 A 
ATOM     17  C   UNL     1      -5.321  20.286  -4.426  0.00  0.00    +0.001 A 
ATOM     18  C   UNL     1      -5.100  18.972  -4.706  0.00  0.00    +0.008 A 
ATOM     19  C   UNL     1      -5.263  18.504  -6.022  0.00  0.00    -0.017 A 
ATOM     20  C   UNL     1      -5.049  17.155  -6.343  0.00  0.00    +0.018 A 
ENDBRANCH   9  11
ENDBRANCH   1  10
BRANCH   6  21
ATOM     21  N   UNL     1      -3.878  10.216  -7.790  0.00  0.00    -0.294 N 
ATOM     22  H   UNL     1      -3.659   9.139  -7.825  0.00  0.00    +0.163 HD
ATOM     23  H   UNL     1      -4.173  10.747  -8.707  0.00  0.00    +0.163 HD
ENDBRANCH   6  21
BRANCH   5  24
ATOM     24  S   UNL     1      -3.017   8.675  -5.097  0.00  0.00    -0.075 S 
BRANCH  24  25
ATOM     25  C   UNL     1      -2.653   8.627  -3.320  0.00  0.00    +0.173 C 
BRANCH  25  26
ATOM     26  C   UNL     1      -2.279   7.222  -2.922  0.00  0.00    +0.228 C 
ATOM     27  O   UNL     1      -2.260   6.341  -3.755  0.00  0.00    -0.275 OA
ATOM     28  N   UNL     1      -1.965   6.946  -1.641  0.00  0.00    -0.278 N 
ATOM     29  H   UNL     1      -1.982   7.746  -0.886  0.00  0.00    +0.155 HD
BRANCH  28  30
ATOM     30  C   UNL     1      -1.621   5.653  -1.274  0.00  0.00    +0.090 A 
ATOM     31  C   UNL     1      -1.271   5.177  -0.019  0.00  0.00    +0.084 A 
ATOM     32  C   UNL     1      -0.951   3.765   0.100  0.00  0.00    -0.018 A 
ATOM     33  C   UNL     1      -1.032   3.059  -1.049  0.00  0.00    -0.004 A 
ATOM     34  S   UNL     1      -1.524   4.240  -2.273  0.00  0.00    -0.077 S 
ATOM     35  C   UNL     1      -0.761   1.597  -1.232  0.00  0.00    +0.043 C 
ATOM     36  C   UNL     1      -0.013   1.086   0.008  0.00  0.00    +0.005 C 
ATOM     37  C   UNL     1      -0.735   1.583   1.264  0.00  0.00    +0.005 C 
ATOM     38  C   UNL     1      -0.551   3.094   1.407  0.00  0.00    +0.037 C 
BRANCH  31  39
ATOM     39  C   UNL     1      -1.226   6.046   1.118  0.00  0.00    +0.102 C 
ATOM     40  N   UNL     1      -1.191   6.736   2.020  0.00  0.00    -0.191 NA
ENDBRANCH  31  39
ENDBRANCH  28  30
ENDBRANCH  25  26
ENDBRANCH  24  25
ENDBRANCH   5  24
TORSDOF 8
