REMARK  Name = ZINC40047844
REMARK  10 active torsions:
REMARK  status: ('A' for Active; 'I' for Inactive)
REMARK    1  A    between atoms: C_3  and  O_28
REMARK    2  A    between atoms: C_6  and  C_7
REMARK    3  A    between atoms: C_9  and  C_19
REMARK    4  A    between atoms: N_13  and  C_14
REMARK    5  A    between atoms: C_14  and  C_15
REMARK    6  A    between atoms: C_15  and  C_16
REMARK    7  A    between atoms: C_16  and  O_17
REMARK    8  A    between atoms: C_19  and  C_21
REMARK    9  A    between atoms: O_28  and  C_29
REMARK   10  A    between atoms: C_29  and  C_30
REMARK                            x       y       z     vdW  Elec       q    Type
REMARK                         _______ _______ _______ _____ _____    ______ ____
ROOT
ATOM      1  C   UNL     1      -0.782  -0.464  -0.132  0.00  0.00    +0.145 C 
ATOM      2  C   UNL     1      -1.495  -1.032  -1.337  0.00  0.00    +0.076 C 
ATOM      3  C   UNL     1      -1.662  -2.355  -1.103  0.00  0.00    +0.249 C 
ATOM      4  C   UNL     1      -1.086  -2.692   0.216  0.00  0.00    +0.288 C 
ATOM      5  O   UNL     1      -1.078  -3.802   0.710  0.00  0.00    -0.266 OA
ATOM      6  N   UNL     1      -0.571  -1.587   0.788  0.00  0.00    -0.283 N 
ATOM      7  O   UNL     1      -2.261  -3.230  -1.944  0.00  0.00    -0.282 OA
ENDROOT
BRANCH   1  13
ATOM      8  C   UNL     1       0.699   1.498  -0.599  0.00  0.00    +0.009 A 
ATOM      9  C   UNL     1       1.913   2.041  -0.976  0.00  0.00    +0.046 A 
ATOM     10  C   UNL     1       2.974   1.207  -1.298  0.00  0.00    +0.121 A 
ATOM     11  C   UNL     1       2.813  -0.170  -1.242  0.00  0.00    +0.046 A 
ATOM     12  C   UNL     1       1.598  -0.707  -0.864  0.00  0.00    +0.009 A 
ATOM     13  C   UNL     1       0.542   0.126  -0.543  0.00  0.00    -0.022 A 
BRANCH  10  14
ATOM     14  O   UNL     1       4.168   1.739  -1.670  0.00  0.00    -0.483 OA
BRANCH  14  15
ATOM     15  C   UNL     1       5.216   0.821  -1.988  0.00  0.00    +0.324 C 
BRANCH  15  16
ATOM     16  C   UNL     1       6.455   1.586  -2.374  0.00  0.00    +0.248 C 
ATOM     17  O   UNL     1       6.442   2.799  -2.377  0.00  0.00    -0.272 OA
ATOM     18  N   UNL     1       7.578   0.924  -2.716  0.00  0.00    -0.327 N 
ATOM     19  H   UNL     1       7.588  -0.046  -2.714  0.00  0.00    +0.145 HD
ATOM     20  H   UNL     1       8.375   1.417  -2.965  0.00  0.00    +0.145 HD
ENDBRANCH  15  16
ENDBRANCH  14  15
ENDBRANCH  10  14
ENDBRANCH   1  13
BRANCH   2  21
ATOM     21  C   UNL     1      -1.923  -0.294  -2.528  0.00  0.00    +0.195 C 
ATOM     22  O   UNL     1      -1.437  -0.555  -3.613  0.00  0.00    -0.287 OA
BRANCH  21  23
ATOM     23  C   UNL     1      -2.945   0.768  -2.412  0.00  0.00    +0.022 A 
ATOM     24  C   UNL     1      -3.585   0.995  -1.192  0.00  0.00    +0.013 A 
ATOM     25  C   UNL     1      -4.537   1.987  -1.090  0.00  0.00    +0.016 A 
ATOM     26  C   UNL     1      -4.859   2.758  -2.195  0.00  0.00    +0.018 A 
ATOM     27  C   UNL     1      -4.229   2.537  -3.408  0.00  0.00    +0.016 A 
ATOM     28  C   UNL     1      -3.270   1.552  -3.522  0.00  0.00    +0.013 A 
ATOM     29 BR   UNL     1      -6.167   4.116  -2.047  0.00  0.00    -0.050 Br
ENDBRANCH  21  23
ENDBRANCH   2  21
BRANCH   6  30
ATOM     30  C   UNL     1       0.086  -1.519   2.096  0.00  0.00    +0.111 C 
BRANCH  30  31
ATOM     31  C   UNL     1      -0.958  -1.224   3.175  0.00  0.00    +0.047 C 
BRANCH  31  32
ATOM     32  C   UNL     1      -0.273  -1.152   4.542  0.00  0.00    +0.157 C 
BRANCH  32  33
ATOM     33  O   UNL     1      -1.247  -0.877   5.550  0.00  0.00    -0.395 OA
ATOM     34  H   UNL     1      -0.883  -0.817   6.443  0.00  0.00    +0.209 HD
ENDBRANCH  32  33
ENDBRANCH  31  32
ENDBRANCH  30  31
ENDBRANCH   6  30
TORSDOF 10
