REMARK  Name = ZINC06545977
REMARK  8 active torsions:
REMARK  status: ('A' for Active; 'I' for Inactive)
REMARK    1  A    between atoms: C_1  and  C_2
REMARK    2  A    between atoms: C_2  and  O_3
REMARK    3  A    between atoms: O_3  and  C_4
REMARK    4  A    between atoms: C_4  and  C_6
REMARK    5  A    between atoms: C_7  and  C_19
REMARK    6  A    between atoms: C_12  and  C_14
REMARK    7  A    between atoms: C_19  and  N_56
REMARK    8  A    between atoms: N_22  and  C_25
REMARK                            x       y       z     vdW  Elec       q    Type
REMARK                         _______ _______ _______ _____ _____    ______ ____
ROOT
ATOM      1  C   UNL     1      -1.649  -2.890   0.665  0.00  0.00    +0.077 C 
ATOM      2  C   UNL     1      -1.273  -2.034  -0.309  0.00  0.00    +0.008 C 
ATOM      3  N   UNL     1      -0.865  -2.490  -1.530  0.00  0.00    -0.274 N 
ATOM      4  C   UNL     1      -0.794  -3.787  -1.852  0.00  0.00    +0.304 C 
ATOM      5  O   UNL     1      -0.413  -4.097  -2.964  0.00  0.00    -0.252 OA
ATOM      6  N   UNL     1      -1.137  -4.761  -0.985  0.00  0.00    -0.288 N 
ATOM      7  C   UNL     1      -1.597  -4.373   0.359  0.00  0.00    +0.150 C 
ATOM      8  H   UNL     1      -0.607  -1.837  -2.200  0.00  0.00    +0.156 HD
ATOM      9  H   UNL     1      -1.082  -5.695  -1.241  0.00  0.00    +0.151 HD
ENDROOT
BRANCH   7  10
ATOM     10  C   UNL     1      -0.685  -5.024   1.367  0.00  0.00    +0.015 A 
ATOM     11  C   UNL     1      -1.007  -5.713   2.489  0.00  0.00    +0.013 A 
ATOM     12  C   UNL     1       0.007  -6.229   3.273  0.00  0.00    +0.008 A 
ATOM     13  C   UNL     1       1.294  -6.029   2.897  0.00  0.00    +0.045 A 
ATOM     14  S   UNL     1       1.098  -5.093   1.390  0.00  0.00    -0.099 S 
ENDBRANCH   7  10
BRANCH   1  15
ATOM     15  C   UNL     1      -2.078  -2.419   1.928  0.00  0.00    +0.339 C 
ATOM     16  O   UNL     1      -2.222  -1.225   2.115  0.00  0.00    -0.245 OA
BRANCH  15  17
ATOM     17  O   UNL     1      -2.328  -3.293   2.925  0.00  0.00    -0.462 OA
BRANCH  17  19
ATOM     18  C   UNL     1      -2.991  -3.882   5.173  0.00  0.00    +0.048 C 
ATOM     19  C   UNL     1      -2.758  -2.747   4.174  0.00  0.00    +0.229 C 
ENDBRANCH  17  19
ENDBRANCH  15  17
ENDBRANCH   1  15
BRANCH   2  20
ATOM     20  C   UNL     1      -1.310  -0.550  -0.046  0.00  0.00    -0.026 C 
BRANCH  20  26
ATOM     21  C   UNL     1      -2.801   1.347   0.157  0.00  0.00    -0.059 C 
ATOM     22  C   UNL     1      -4.242   1.814  -0.064  0.00  0.00    +0.086 C 
ATOM     23  N   UNL     1      -4.576   1.706  -1.491  0.00  0.00    -0.333 N 
ATOM     24  C   UNL     1      -4.436   0.320  -1.959  0.00  0.00    +0.086 C 
ATOM     25  C   UNL     1      -2.995  -0.147  -1.738  0.00  0.00    -0.059 C 
ATOM     26  N   UNL     1      -2.680  -0.055  -0.297  0.00  0.00    +0.385 N 
ATOM     27  H   UNL     1      -3.345  -0.634   0.228  0.00  0.00    -0.081 HD
BRANCH  23  28
ATOM     28  C   UNL     1      -5.862   2.192  -1.743  0.00  0.00    +0.030 A 
ATOM     29  C   UNL     1      -6.802   1.382  -2.366  0.00  0.00    +0.026 A 
ATOM     30  C   UNL     1      -8.074   1.863  -2.610  0.00  0.00    +0.040 A 
ATOM     31  C   UNL     1      -8.409   3.155  -2.242  0.00  0.00    +0.124 A 
ATOM     32  C   UNL     1      -7.472   3.966  -1.625  0.00  0.00    +0.040 A 
ATOM     33  C   UNL     1      -6.200   3.488  -1.375  0.00  0.00    +0.026 A 
ATOM     34  F   UNL     1      -9.652   3.625  -2.485  0.00  0.00    -0.205 F 
ENDBRANCH  23  28
ENDBRANCH  20  26
ENDBRANCH   2  20
TORSDOF 7
