REMARK  Name = ZINC66377751
REMARK  3 active torsions:
REMARK  status: ('A' for Active; 'I' for Inactive)
REMARK    1  A    between atoms: C_1  and  C_2
REMARK    2  A    between atoms: C_2  and  C_3
REMARK    3  A    between atoms: C_2  and  C_4
REMARK                            x       y       z     vdW  Elec       q    Type
REMARK                         _______ _______ _______ _____ _____    ______ ____
ROOT
ATOM      1  C   UNL     1      -0.019   1.526   0.010  0.00  0.00    +0.037 C 
ATOM      2  C   UNL     1       0.002  -0.004   0.002  0.00  0.00    +0.081 C 
ATOM      3  C   UNL     1       0.742  -0.511   1.242  0.00  0.00    +0.037 C 
ATOM      4 BR   UNL     1       0.922  -0.638  -1.615  0.00  0.00    -0.071 Br
ENDROOT
BRANCH   2   5
ATOM      5  C   UNL     1      -1.379  -0.514   0.013  0.00  0.00    -0.088 C 
ATOM      6  C   UNL     1      -2.480  -0.920   0.021  0.00  0.00    +0.005 C 
ENDBRANCH   2   5
TORSDOF 1
