REMARK  Name = ZINC39934115
REMARK  18 active torsions:
REMARK  status: ('A' for Active; 'I' for Inactive)
REMARK    1  A    between atoms: C_1  and  C_2
REMARK    2  A    between atoms: C_2  and  C_4
REMARK    3  A    between atoms: C_2  and  O_29
REMARK    4  A    between atoms: C_4  and  C_6
REMARK    5  A    between atoms: C_4  and  N_9
REMARK    6  A    between atoms: C_10  and  C_12
REMARK    7  A    between atoms: C_12  and  C_14
REMARK    8  A    between atoms: C_12  and  N_20
REMARK    9  A    between atoms: C_14  and  S_15
REMARK   10  A    between atoms: S_15  and  C_16
REMARK   11  A    between atoms: C_16  and  C_17
REMARK   12  A    between atoms: C_16  and  C_18
REMARK   13  A    between atoms: C_16  and  C_19
REMARK   14  A    between atoms: C_21  and  C_23
REMARK   15  A    between atoms: C_23  and  C_25
REMARK   16  A    between atoms: C_23  and  N_28
REMARK   17  A    between atoms: C_25  and  C_26
REMARK   18  A    between atoms: C_25  and  C_27
REMARK                            x       y       z     vdW  Elec       q    Type
REMARK                         _______ _______ _______ _____ _____    ______ ____
ROOT
ATOM      1  C   UNL     1      -4.240   0.728   2.291  0.00  0.00    +0.169 C 
ENDROOT
BRANCH   1   3
ATOM      2  N   UNL     1      -2.155   0.035   1.154  0.00  0.00    -0.300 N 
ATOM      3  C   UNL     1      -3.498   0.143   1.116  0.00  0.00    +0.235 C 
ATOM      4  O   UNL     1      -4.109  -0.230   0.137  0.00  0.00    -0.274 OA
ATOM      5  H   UNL     1      -1.666   0.333   1.937  0.00  0.00    +0.150 HD
BRANCH   2   6
ATOM      6  C   UNL     1      -1.433  -0.534   0.013  0.00  0.00    +0.187 C 
BRANCH   6   7
ATOM      7  C   UNL     1      -1.414  -2.036   0.129  0.00  0.00    +0.233 C 
ATOM      8  O   UNL     1      -1.949  -2.579   1.071  0.00  0.00    -0.274 OA
ATOM      9  N   UNL     1      -0.800  -2.777  -0.816  0.00  0.00    -0.328 N 
ATOM     10  H   UNL     1      -0.372  -2.342  -1.570  0.00  0.00    +0.145 HD
ATOM     11  H   UNL     1      -0.788  -3.744  -0.742  0.00  0.00    +0.145 HD
ENDBRANCH   6   7
BRANCH   6  13
ATOM     12  C   UNL     1      -0.019   1.526   0.010  0.00  0.00    +0.040 C 
ATOM     13  C   UNL     1       0.002  -0.004   0.002  0.00  0.00    +0.141 C 
BRANCH  13  14
ATOM     14  O   UNL     1       0.693  -0.477   1.160  0.00  0.00    -0.390 OA
ATOM     15  H   UNL     1       1.611  -0.180   1.219  0.00  0.00    +0.210 HD
ENDBRANCH  13  14
ENDBRANCH   6  13
ENDBRANCH   2   6
ENDBRANCH   1   3
BRANCH   1  16
ATOM     16  N   UNL     1      -5.677   0.736   2.005  0.00  0.00    -0.305 N 
ATOM     17  C   UNL     1      -6.481   1.623   2.623  0.00  0.00    +0.199 C 
ATOM     18  O   UNL     1      -6.016   2.414   3.416  0.00  0.00    -0.278 OA
ATOM     19  H   UNL     1      -6.049   0.103   1.371  0.00  0.00    +0.149 HD
BRANCH  17  20
ATOM     20  C   UNL     1      -7.960   1.632   2.329  0.00  0.00    +0.015 C 
BRANCH  20  21
ATOM     21  N   UNL     1      -8.672   2.309   3.421  0.00  0.00    +0.386 N 
ATOM     22  H   UNL     1      -8.504   1.820   4.287  0.00  0.00    -0.089 HD
ATOM     23  H   UNL     1      -8.339   3.259   3.501  0.00  0.00    -0.089 HD
ATOM     24  H   UNL     1      -9.661   2.315   3.224  0.00  0.00    -0.089 HD
ENDBRANCH  20  21
BRANCH  20  25
ATOM     25  C   UNL     1      -8.214   2.374   1.016  0.00  0.00    -0.023 C 
ATOM     26  C   UNL     1      -7.472   1.668  -0.121  0.00  0.00    +0.006 C 
ATOM     27  C   UNL     1      -9.714   2.383   0.717  0.00  0.00    +0.006 C 
ENDBRANCH  20  25
ENDBRANCH  17  20
ENDBRANCH   1  16
BRANCH   1  28
ATOM     28  C   UNL     1      -3.973  -0.120   3.536  0.00  0.00    +0.101 C 
BRANCH  28  29
ATOM     29  S   UNL     1      -4.866   0.583   4.949  0.00  0.00    -0.152 S 
BRANCH  29  30
ATOM     30  C   UNL     1      -4.449  -0.522   6.326  0.00  0.00    +0.008 C 
ATOM     31  C   UNL     1      -2.935  -0.519   6.542  0.00  0.00    +0.022 C 
ATOM     32  C   UNL     1      -5.147  -0.037   7.598  0.00  0.00    +0.022 C 
ATOM     33  C   UNL     1      -4.915  -1.942   5.999  0.00  0.00    +0.022 C 
ENDBRANCH  29  30
ENDBRANCH  28  29
ENDBRANCH   1  28
TORSDOF 12
