REMARK  Name = ZINC40851592
REMARK  7 active torsions:
REMARK  status: ('A' for Active; 'I' for Inactive)
REMARK    1  A    between atoms: C_1  and  C_2
REMARK    2  A    between atoms: C_4  and  C_32
REMARK    3  A    between atoms: C_11  and  S_13
REMARK    4  A    between atoms: S_13  and  C_14
REMARK    5  A    between atoms: C_14  and  C_15
REMARK    6  A    between atoms: C_15  and  C_16
REMARK    7  A    between atoms: N_18  and  C_19
REMARK                            x       y       z     vdW  Elec       q    Type
REMARK                         _______ _______ _______ _____ _____    ______ ____
ROOT
ATOM      1  C   UNL     1      -0.061   1.502   0.011  0.00  0.00    +0.067 C 
ATOM      2  C   UNL     1      -0.031  -0.005   0.003  0.00  0.00    +0.061 A 
ATOM      3  C   UNL     1      -0.026  -0.818  -1.137  0.00  0.00    +0.048 A 
ATOM      4  C   UNL     1       0.003  -2.107  -0.730  0.00  0.00    +0.045 A 
ATOM      5  N   UNL     1       0.015  -2.109   0.629  0.00  0.00    -0.202 N 
ATOM      6  N   UNL     1      -0.001  -0.776   1.059  0.00  0.00    -0.169 NA
ATOM      7  C   UNL     1       0.045  -3.237   1.450  0.00  0.00    +0.253 A 
ATOM      8  N   UNL     1       0.049  -3.080   2.761  0.00  0.00    -0.215 NA
ATOM      9  C   UNL     1       0.074  -4.127   3.582  0.00  0.00    +0.051 A 
ATOM     10  C   UNL     1       0.094  -5.392   3.048  0.00  0.00    +0.006 A 
ATOM     11  C   UNL     1       0.093  -5.528   1.653  0.00  0.00    +0.106 A 
ATOM     12  N   UNL     1       0.063  -4.438   0.895  0.00  0.00    -0.204 NA
ATOM     13  C   UNL     1       0.108  -6.635   3.894  0.00  0.00    +0.039 C 
ATOM     14  C   UNL     1       0.533  -6.303   5.324  0.00  0.00    +0.005 C 
ATOM     15  C   UNL     1      -0.323  -5.135   5.826  0.00  0.00    +0.006 C 
ATOM     16  C   UNL     1       0.084  -3.874   5.066  0.00  0.00    +0.056 C 
ATOM     17  C   UNL     1       0.018  -3.322  -1.622  0.00  0.00    +0.066 C 
ENDROOT
BRANCH  11  18
ATOM     18  S   UNL     1       0.125  -7.128   0.914  0.00  0.00    -0.105 S 
BRANCH  18  19
ATOM     19  C   UNL     1       0.114  -6.787  -0.868  0.00  0.00    +0.085 C 
BRANCH  19  20
ATOM     20  C   UNL     1       0.140  -8.108  -1.639  0.00  0.00    +0.107 C 
BRANCH  20  21
ATOM     21  C   UNL     1       0.130  -7.826  -3.120  0.00  0.00    +0.218 C 
ATOM     22  O   UNL     1       0.105  -6.681  -3.518  0.00  0.00    -0.275 OA
ATOM     23  N   UNL     1       0.149  -8.846  -4.000  0.00  0.00    -0.285 N 
ATOM     24  H   UNL     1       0.237  -9.758  -3.684  0.00  0.00    +0.155 HD
BRANCH  23  25
ATOM     25  C   UNL     1       0.043  -8.588  -5.373  0.00  0.00    +0.037 A 
ATOM     26  C   UNL     1      -0.643  -9.472  -6.195  0.00  0.00    +0.027 A 
ATOM     27  C   UNL     1      -0.750  -9.219  -7.549  0.00  0.00    +0.051 A 
ATOM     28  C   UNL     1      -0.172  -8.082  -8.091  0.00  0.00    +0.166 A 
ATOM     29  C   UNL     1       0.517  -7.193  -7.270  0.00  0.00    +0.168 A 
ATOM     30  C   UNL     1       0.618  -7.445  -5.912  0.00  0.00    +0.072 A 
ATOM     31  O   UNL     1       0.988  -6.166  -8.036  0.00  0.00    -0.453 OA
ATOM     32  C   UNL     1       0.932  -6.643  -9.394  0.00  0.00    +0.466 C 
ATOM     33  O   UNL     1      -0.133  -7.612  -9.373  0.00  0.00    -0.453 OA
ENDBRANCH  23  25
ENDBRANCH  20  21
ENDBRANCH  19  20
ENDBRANCH  18  19
ENDBRANCH  11  18
TORSDOF 5
