REMARK  Name = ZINC49717440
REMARK  4 active torsions:
REMARK  status: ('A' for Active; 'I' for Inactive)
REMARK    1  A    between atoms: C_1  and  C_2
REMARK    2  A    between atoms: C_2  and  CA_3
REMARK    3  A    between atoms: CA_3  and  C_5
REMARK    4  A    between atoms: CA_3  and  N_8
REMARK                            x       y       z     vdW  Elec       q    Type
REMARK                         _______ _______ _______ _____ _____    ______ ____
ROOT
ATOM      1  N   UNL     1      -0.008  -0.140   2.444  0.00  0.00    -0.286 N 
ATOM      2  C   UNL     1       0.630  -0.011   3.624  0.00  0.00    +0.303 C 
ATOM      3  O   UNL     1       1.829  -0.202   3.690  0.00  0.00    -0.253 OA
ATOM      4  N   UNL     1      -0.060   0.330   4.730  0.00  0.00    -0.282 N 
ATOM      5  C   UNL     1      -1.512   0.589   4.819  0.00  0.00    +0.113 C 
ATOM      6  C   UNL     1      -1.772   0.963   6.311  0.00  0.00    +0.008 C 
ATOM      7  C   UNL     1      -1.595  -0.388   7.073  0.00  0.00    +0.007 C 
ATOM      8  C   UNL     1      -0.090  -0.712   6.923  0.00  0.00    +0.023 C 
ATOM      9  C   UNL     1       0.492   0.513   6.103  0.00  0.00    +0.078 C 
ATOM     10  C   UNL     1      -0.414   1.682   6.638  0.00  0.00    +0.027 C 
ATOM     11  H   UNL     1      -0.965   0.013   2.391  0.00  0.00    +0.151 HD
ENDROOT
BRANCH   1  12
ATOM     12  CA  UNL     1       0.742  -0.511   1.242  0.00  0.00    +0.187 C 
BRANCH  12  13
ATOM     13  C   UNL     1       0.870  -2.011   1.172  0.00  0.00    +0.376 C 
ATOM     14  O   UNL     1       1.612  -2.522   0.350  0.00  0.00    -0.244 OA
ATOM     15  OXT UNL     1       0.231  -2.713   1.937  0.00  0.00    -0.244 OA
ENDBRANCH  12  13
BRANCH  12  17
ATOM     16  C   UNL     1      -0.019   1.526   0.010  0.00  0.00    +0.006 C 
ATOM     17  C   UNL     1       0.002  -0.004   0.002  0.00  0.00    +0.030 C 
ENDBRANCH  12  17
ENDBRANCH   1  12
TORSDOF 3
