REMARK  Name = ZINC15359411
REMARK  4 active torsions:
REMARK  status: ('A' for Active; 'I' for Inactive)
REMARK    1  A    between atoms: C_1  and  N_2
REMARK    2  A    between atoms: C_3  and  C_5
REMARK    3  A    between atoms: N_8  and  S_16
REMARK    4  A    between atoms: S_16  and  C_19
REMARK                            x       y       z     vdW  Elec       q    Type
REMARK                         _______ _______ _______ _____ _____    ______ ____
ROOT
ATOM      1  C   UNL     1      -1.330   1.944   0.019  0.00  0.00    +0.277 C 
ATOM      2  C   UNL     1      -1.482   2.708   1.342  0.00  0.00    +0.186 C 
ATOM      3  N   UNL     1      -2.798   3.369   1.326  0.00  0.00    -0.195 N 
ATOM      4  C   UNL     1      -3.889   2.638   0.829  0.00  0.00    +0.093 A 
ATOM      5  C   UNL     1      -5.182   3.087   1.044  0.00  0.00    +0.028 A 
ATOM      6  C   UNL     1      -6.253   2.368   0.547  0.00  0.00    +0.002 A 
ATOM      7  C   UNL     1      -6.034   1.202  -0.163  0.00  0.00    +0.004 A 
ATOM      8  C   UNL     1      -4.746   0.748  -0.379  0.00  0.00    +0.047 A 
ATOM      9  C   UNL     1      -3.666   1.463   0.116  0.00  0.00    +0.144 A 
ATOM     10  O   UNL     1      -2.403   1.008  -0.099  0.00  0.00    -0.476 OA
ENDROOT
BRANCH   1  13
ATOM     11  C   UNL     1       2.422   1.183  -0.015  0.00  0.00    +0.128 C 
ATOM     12  N   UNL     1       1.143   1.898   0.001  0.00  0.00    -0.315 N 
ATOM     13  C   UNL     1      -0.014   1.209   0.009  0.00  0.00    +0.255 C 
ATOM     14  O   UNL     1       0.002  -0.004   0.002  0.00  0.00    -0.272 OA
ATOM     15  H   UNL     1       1.130   2.868   0.007  0.00  0.00    +0.148 HD
ENDBRANCH   1  13
BRANCH   3  16
ATOM     16  S   UNL     1      -2.985   4.920   1.873  0.00  0.00    +0.075 S 
ATOM     17  O   UNL     1      -1.713   5.544   1.767  0.00  0.00    -0.150 OA
ATOM     18  O   UNL     1      -4.144   5.439   1.236  0.00  0.00    -0.150 OA
BRANCH  16  19
ATOM     19  C   UNL     1      -3.357   4.825   3.593  0.00  0.00    +0.112 A 
ATOM     20  C   UNL     1      -2.333   4.838   4.522  0.00  0.00    +0.032 A 
ATOM     21  C   UNL     1      -2.622   4.763   5.872  0.00  0.00    +0.043 A 
ATOM     22  C   UNL     1      -3.937   4.674   6.294  0.00  0.00    +0.159 A 
ATOM     23  C   UNL     1      -4.964   4.661   5.362  0.00  0.00    +0.160 A 
ATOM     24  C   UNL     1      -4.671   4.742   4.011  0.00  0.00    +0.070 A 
ATOM     25  F   UNL     1      -6.248   4.575   5.772  0.00  0.00    -0.202 F 
ATOM     26  F   UNL     1      -4.221   4.601   7.613  0.00  0.00    -0.202 F 
ENDBRANCH  16  19
ENDBRANCH   3  16
TORSDOF 3
