REMARK  Name = ZINC08919565
REMARK  11 active torsions:
REMARK  status: ('A' for Active; 'I' for Inactive)
REMARK    1  A    between atoms: C_1  and  C_2
REMARK    2  A    between atoms: C_2  and  C_3
REMARK    3  A    between atoms: C_3  and  C_4
REMARK    4  A    between atoms: C_3  and  C_5
REMARK    5  A    between atoms: C_3  and  C_6
REMARK    6  A    between atoms: C_15  and  O_36
REMARK    7  A    between atoms: C_17  and  C_20
REMARK    8  A    between atoms: C_24  and  O_26
REMARK    9  A    between atoms: O_26  and  C_27
REMARK   10  A    between atoms: C_27  and  C_29
REMARK   11  A    between atoms: C_30  and  C_31
REMARK                            x       y       z     vdW  Elec       q    Type
REMARK                         _______ _______ _______ _____ _____    ______ ____
ROOT
ATOM      1  C   UNL     1       3.578  -1.786  -0.197  0.00  0.00    -0.000 C 
ATOM      2  C   UNL     1       2.494  -2.527  -0.986  0.00  0.00    +0.009 C 
ATOM      3  C   UNL     1       1.116  -2.199  -0.408  0.00  0.00    +0.037 C 
ATOM      4  C   UNL     1       0.961  -0.684  -0.336  0.00  0.00    -0.023 A 
ATOM      5  C   UNL     1       2.043   0.127  -0.386  0.00  0.00    -0.004 A 
ATOM      6  S   UNL     1       1.387   1.771  -0.276  0.00  0.00    -0.078 S 
ATOM      7  C   UNL     1      -0.276   1.387  -0.168  0.00  0.00    +0.080 A 
ATOM      8  C   UNL     1      -0.321  -0.012  -0.213  0.00  0.00    +0.068 A 
ATOM      9  C   UNL     1      -1.657  -0.654  -0.127  0.00  0.00    +0.220 C 
ATOM     10  N   UNL     1      -2.675   0.100   0.182  0.00  0.00    -0.223 NA
ATOM     11  C   UNL     1      -2.586   1.509   0.546  0.00  0.00    +0.224 C 
ATOM     12  N   UNL     1      -1.410   2.156  -0.063  0.00  0.00    -0.313 N 
ATOM     13  C   UNL     1       3.477  -0.286  -0.508  0.00  0.00    +0.046 C 
ATOM     14  H   UNL     1      -1.435   3.075  -0.372  0.00  0.00    +0.149 HD
ENDROOT
BRANCH  11  15
ATOM     15  C   UNL     1      -2.489   1.623   2.046  0.00  0.00    -0.002 A 
ATOM     16  C   UNL     1      -1.803   2.680   2.615  0.00  0.00    +0.007 A 
ATOM     17  C   UNL     1      -1.712   2.789   3.990  0.00  0.00    +0.004 A 
ATOM     18  C   UNL     1      -2.307   1.840   4.800  0.00  0.00    +0.046 A 
ATOM     19  C   UNL     1      -2.995   0.778   4.231  0.00  0.00    +0.132 A 
ATOM     20  C   UNL     1      -3.090   0.675   2.850  0.00  0.00    +0.053 A 
BRANCH  19  21
ATOM     21  O   UNL     1      -3.581  -0.157   5.025  0.00  0.00    -0.423 OA
BRANCH  21  22
ATOM     22  C   UNL     1      -3.051  -1.398   5.040  0.00  0.00    +0.337 C 
ATOM     23  O   UNL     1      -2.018  -1.626   4.438  0.00  0.00    -0.245 OA
BRANCH  22  24
ATOM     24  C   UNL     1      -3.696  -2.433   5.753  0.00  0.00    +0.095 C 
ATOM     25  C   UNL     1      -3.163  -3.682   5.768  0.00  0.00    +0.053 C 
BRANCH  25  26
ATOM     26  C   UNL     1      -3.809  -4.718   6.483  0.00  0.00    +0.128 A 
ATOM     27  C   UNL     1      -3.384  -6.028   6.578  0.00  0.00    +0.049 A 
ATOM     28  C   UNL     1      -4.321  -6.694   7.382  0.00  0.00    +0.042 A 
ATOM     29  C   UNL     1      -5.264  -5.790   7.730  0.00  0.00    +0.195 A 
ATOM     30  O   UNL     1      -4.954  -4.604   7.189  0.00  0.00    -0.464 OA
ENDBRANCH  25  26
ENDBRANCH  22  24
ENDBRANCH  21  22
ENDBRANCH  19  21
ENDBRANCH  11  15
BRANCH   1  31
ATOM     31  C   UNL     1       4.957  -2.304  -0.611  0.00  0.00    -0.032 C 
ATOM     32  C   UNL     1       5.048  -3.803  -0.317  0.00  0.00    +0.011 C 
ATOM     33  C   UNL     1       5.164  -2.065  -2.108  0.00  0.00    +0.011 C 
BRANCH  31  35
ATOM     34  C   UNL     1       7.417  -2.081  -0.236  0.00  0.00    +0.004 C 
ATOM     35  C   UNL     1       6.038  -1.563   0.178  0.00  0.00    +0.003 C 
ENDBRANCH  31  35
ENDBRANCH   1  31
BRANCH   9  36
ATOM     36  O   UNL     1      -1.814  -1.978  -0.360  0.00  0.00    -0.492 OA
ATOM     37  H   UNL     1      -2.726  -2.287  -0.276  0.00  0.00    +0.294 HD
ENDBRANCH   9  36
TORSDOF 8
