REMARK  Name = ZINC00784951
REMARK  8 active torsions:
REMARK  status: ('A' for Active; 'I' for Inactive)
REMARK    1  A    between atoms: C_1  and  C_2
REMARK    2  A    between atoms: C_5  and  C_30
REMARK    3  A    between atoms: C_5  and  C_31
REMARK    4  A    between atoms: C_10  and  O_13
REMARK    5  A    between atoms: O_13  and  C_14
REMARK    6  A    between atoms: C_14  and  C_16
REMARK    7  A    between atoms: C_16  and  C_18
REMARK    8  A    between atoms: C_16  and  N_19
REMARK                            x       y       z     vdW  Elec       q    Type
REMARK                         _______ _______ _______ _____ _____    ______ ____
ROOT
ATOM      1  O   UNL     1      -4.119   7.770   1.526  0.00  0.00    -0.425 OA
ENDROOT
BRANCH   1  10
ATOM      2  C   UNL     1      -8.058  10.207   3.363  0.00  0.00    +0.012 C 
ATOM      3  C   UNL     1      -7.320   9.740   4.619  0.00  0.00    +0.020 C 
ATOM      4  C   UNL     1      -8.338   9.265   5.655  0.00  0.00    +0.033 C 
ATOM      5  C   UNL     1      -7.589   8.606   6.821  0.00  0.00    +0.027 C 
ATOM      6  N   UNL     1      -6.894   7.423   6.296  0.00  0.00    -0.339 N 
ATOM      7  C   UNL     1      -6.195   7.529   5.086  0.00  0.00    +0.031 A 
ATOM      8  C   UNL     1      -6.378   8.623   4.254  0.00  0.00    -0.020 A 
ATOM      9  C   UNL     1      -5.680   8.699   3.061  0.00  0.00    +0.052 A 
ATOM     10  C   UNL     1      -4.801   7.690   2.700  0.00  0.00    +0.132 A 
ATOM     11  C   UNL     1      -4.622   6.594   3.531  0.00  0.00    +0.048 A 
ATOM     12  C   UNL     1      -5.313   6.517   4.724  0.00  0.00    +0.027 A 
ATOM     13  C   UNL     1      -6.571   9.588   7.404  0.00  0.00    +0.031 C 
ATOM     14  C   UNL     1      -8.583   8.186   7.905  0.00  0.00    +0.031 C 
ATOM     15  H   UNL     1      -6.918   6.582   6.779  0.00  0.00    +0.147 HD
ENDBRANCH   1  10
BRANCH   1  16
ATOM     16  C   UNL     1      -3.065   8.600   1.490  0.00  0.00    +0.333 C 
ATOM     17  O   UNL     1      -2.813   9.300   2.442  0.00  0.00    -0.248 OA
BRANCH  16  18
ATOM     18  C   UNL     1      -2.195   8.660   0.261  0.00  0.00    +0.190 C 
ATOM     19  C   UNL     1      -1.588   7.280  -0.002  0.00  0.00    +0.040 C 
BRANCH  18  20
ATOM     20  N   UNL     1      -1.120   9.634   0.470  0.00  0.00    -0.220 N 
ATOM     21  C   UNL     1      -0.200   9.554   1.448  0.00  0.00    +0.255 C 
ATOM     22  O   UNL     1      -0.130   8.676   2.284  0.00  0.00    -0.270 OA
ATOM     23  C   UNL     1       0.710  10.713   1.334  0.00  0.00    +0.049 A 
ATOM     24  C   UNL     1       1.819  11.145   2.043  0.00  0.00    +0.014 A 
ATOM     25  C   UNL     1       2.463  12.314   1.666  0.00  0.00    +0.001 A 
ATOM     26  C   UNL     1       2.011  13.044   0.583  0.00  0.00    +0.001 A 
ATOM     27  C   UNL     1       0.906  12.621  -0.139  0.00  0.00    +0.014 A 
ATOM     28  C   UNL     1       0.250  11.457   0.229  0.00  0.00    +0.049 A 
ATOM     29  C   UNL     1      -0.924  10.726  -0.291  0.00  0.00    +0.255 C 
ATOM     30  O   UNL     1      -1.599  11.055  -1.245  0.00  0.00    -0.270 OA
ENDBRANCH  18  20
ENDBRANCH  16  18
ENDBRANCH   1  16
TORSDOF 4
