REMARK  Name = ZINC30882985
REMARK  11 active torsions:
REMARK  status: ('A' for Active; 'I' for Inactive)
REMARK    1  A    between atoms: C_1  and  C_2
REMARK    2  A    between atoms: C_4  and  C_31
REMARK    3  A    between atoms: C_6  and  C_28
REMARK    4  A    between atoms: C_9  and  C_11
REMARK    5  A    between atoms: C_11  and  C_12
REMARK    6  A    between atoms: C_15  and  C_17
REMARK    7  A    between atoms: C_17  and  C_18
REMARK    8  A    between atoms: C_28  and  C_29
REMARK    9  A    between atoms: C_28  and  C_30
REMARK   10  A    between atoms: C_31  and  N_32
REMARK   11  A    between atoms: N_32  and  C_33
REMARK                            x       y       z     vdW  Elec       q    Type
REMARK                         _______ _______ _______ _____ _____    ______ ____
ROOT
ATOM      1  C   UNL     1       0.461  -1.994  -3.886  0.00  0.00    +0.039 C 
ATOM      2  C   UNL     1       0.033  -1.734  -2.465  0.00  0.00    -0.073 C 
ATOM      3  C   UNL     1       0.530  -0.703  -1.860  0.00  0.00    -0.026 C 
ATOM      4  C   UNL     1       0.207  -0.322  -0.445  0.00  0.00    -0.002 C 
ATOM      5  C   UNL     1      -1.065  -1.036   0.017  0.00  0.00    -0.003 C 
ATOM      6  C   UNL     1      -0.931  -2.528  -0.316  0.00  0.00    +0.012 C 
ATOM      7  C   UNL     1      -0.942  -2.687  -1.838  0.00  0.00    +0.024 C 
ENDROOT
BRANCH   5   8
ATOM      8  C   UNL     1      -1.234  -0.860   1.527  0.00  0.00    -0.014 C 
ATOM      9  C   UNL     1      -2.582  -1.440   1.960  0.00  0.00    +0.007 C 
ATOM     10  C   UNL     1      -0.106  -1.591   2.256  0.00  0.00    +0.007 C 
ENDBRANCH   5   8
BRANCH   7  11
ATOM     11  C   UNL     1      -2.348  -2.396  -2.368  0.00  0.00    +0.105 C 
BRANCH  11  12
ATOM     12  C   UNL     1      -3.307  -3.435  -1.846  0.00  0.00    +0.218 A 
ATOM     13  N   UNL     1      -4.046  -3.335  -0.779  0.00  0.00    -0.112 NA
ATOM     14  N   UNL     1      -4.741  -4.409  -0.638  0.00  0.00    -0.112 NA
ATOM     15  C   UNL     1      -4.468  -5.231  -1.612  0.00  0.00    +0.222 A 
ATOM     16  O   UNL     1      -3.559  -4.633  -2.401  0.00  0.00    -0.424 OA
BRANCH  15  17
ATOM     17  C   UNL     1      -5.066  -6.598  -1.818  0.00  0.00    +0.135 C 
BRANCH  17  18
ATOM     18  C   UNL     1      -6.308  -6.481  -2.663  0.00  0.00    -0.013 A 
ATOM     19  C   UNL     1      -7.572  -6.393  -2.218  0.00  0.00    +0.087 A 
ATOM     20  N   UNL     1      -8.434  -6.297  -3.276  0.00  0.00    -0.360 N 
ATOM     21  H   UNL     1      -9.516  -6.208  -3.097  0.00  0.00    +0.165 HD
ATOM     22  C   UNL     1      -7.729  -6.331  -4.458  0.00  0.00    +0.047 A 
ATOM     23  C   UNL     1      -6.367  -6.448  -4.127  0.00  0.00    +0.003 A 
ATOM     24  C   UNL     1      -5.407  -6.506  -5.138  0.00  0.00    +0.010 A 
ATOM     25  C   UNL     1      -5.795  -6.450  -6.447  0.00  0.00    +0.001 A 
ATOM     26  C   UNL     1      -7.138  -6.334  -6.779  0.00  0.00    +0.002 A 
ATOM     27  C   UNL     1      -8.102  -6.274  -5.797  0.00  0.00    +0.026 A 
ENDBRANCH  17  18
ENDBRANCH  15  17
ENDBRANCH  11  12
ENDBRANCH   7  11
BRANCH   4  28
ATOM     28  C   UNL     1      -0.003   1.192  -0.363  0.00  0.00    -0.074 C 
BRANCH  28  29
ATOM     29  N   UNL     1       1.251   1.879  -0.698  0.00  0.00    +0.381 N 
ATOM     30  H   UNL     1       2.035   1.579   0.012  0.00  0.00    -0.086 HD
ATOM     31  H   UNL     1       1.557   1.607  -1.719  0.00  0.00    -0.086 HD
BRANCH  29  32
ATOM     32  C   UNL     1       1.086   3.337  -0.630  0.00  0.00    -0.072 C 
ATOM     33  C   UNL     1       1.696   4.171  -1.758  0.00  0.00    -0.017 C 
ATOM     34  C   UNL     1       2.338   4.178  -0.369  0.00  0.00    -0.017 C 
ENDBRANCH  29  32
ENDBRANCH  28  29
ENDBRANCH   4  28
TORSDOF 8
