REMARK  Name = ZINC13063675
REMARK  13 active torsions:
REMARK  status: ('A' for Active; 'I' for Inactive)
REMARK    1  A    between atoms: C_1  and  C_2
REMARK    2  A    between atoms: C_2  and  C_3
REMARK    3  A    between atoms: C_10  and  C_15
REMARK    4  A    between atoms: C_15  and  N_73
REMARK    5  A    between atoms: C_16  and  C_17
REMARK    6  A    between atoms: C_16  and  N_73
REMARK    7  A    between atoms: C_17  and  C_18
REMARK    8  A    between atoms: C_24  and  C_26
REMARK    9  A    between atoms: C_24  and  C_28
REMARK   10  A    between atoms: C_24  and  N_73
REMARK   11  A    between atoms: C_26  and  C_27
REMARK   12  A    between atoms: N_32  and  C_33
REMARK   13  A    between atoms: C_33  and  C_34
REMARK                            x       y       z     vdW  Elec       q    Type
REMARK                         _______ _______ _______ _____ _____    ______ ____
ROOT
ATOM      1  N   UNL     1      -0.956   1.913  -0.953  0.00  0.00    +0.389 N 
ATOM      2  H   UNL     1      -1.773   1.378  -0.635  0.00  0.00    -0.080 HD
ENDROOT
BRANCH   1   3
ATOM      3  C   UNL     1      -0.435   1.302  -2.194  0.00  0.00    -0.037 C 
BRANCH   3  11
ATOM      4  C   UNL     1      -2.555  -4.495  -2.622  0.00  0.00    -0.047 A 
ATOM      5  C   UNL     1      -1.467  -5.104  -2.010  0.00  0.00    +0.005 A 
ATOM      6  C   UNL     1      -0.404  -4.354  -1.558  0.00  0.00    +0.026 A 
ATOM      7  C   UNL     1      -0.417  -2.972  -1.716  0.00  0.00    +0.049 A 
ATOM      8  C   UNL     1      -1.521  -2.358  -2.337  0.00  0.00    -0.001 A 
ATOM      9  C   UNL     1      -2.590  -3.140  -2.788  0.00  0.00    +0.013 A 
ATOM     10  C   UNL     1      -1.528  -0.902  -2.494  0.00  0.00    +0.017 A 
ATOM     11  C   UNL     1      -0.462  -0.197  -2.043  0.00  0.00    +0.001 A 
ATOM     12  C   UNL     1       0.621  -0.861  -1.427  0.00  0.00    +0.251 A 
ATOM     13  O   UNL     1       1.568  -0.207  -1.025  0.00  0.00    -0.268 OA
ATOM     14  N   UNL     1       0.634  -2.197  -1.274  0.00  0.00    -0.322 N 
ATOM     15  H   UNL     1       1.394  -2.621  -0.846  0.00  0.00    +0.169 HD
BRANCH   4  17
ATOM     16  C   UNL     1      -3.453  -5.762  -4.555  0.00  0.00    +0.009 C 
ATOM     17  C   UNL     1      -3.706  -5.337  -3.108  0.00  0.00    +0.032 C 
ENDBRANCH   4  17
ENDBRANCH   3  11
ENDBRANCH   1   3
BRANCH   1  18
ATOM     18  C   UNL     1       0.079   1.877   0.101  0.00  0.00    -0.073 C 
BRANCH  18  19
ATOM     19  C   UNL     1      -0.551   2.308   1.427  0.00  0.00    +0.016 C 
BRANCH  19  20
ATOM     20  C   UNL     1       0.503   2.318   2.505  0.00  0.00    -0.049 A 
ATOM     21  C   UNL     1       0.734   1.181   3.256  0.00  0.00    +0.003 A 
ATOM     22  C   UNL     1       1.703   1.189   4.241  0.00  0.00    +0.000 A 
ATOM     23  C   UNL     1       2.435   2.336   4.481  0.00  0.00    +0.000 A 
ATOM     24  C   UNL     1       2.201   3.475   3.734  0.00  0.00    +0.000 A 
ATOM     25  C   UNL     1       1.234   3.466   2.745  0.00  0.00    +0.003 A 
ENDBRANCH  19  20
ENDBRANCH  18  19
ENDBRANCH   1  18
BRANCH   1  26
ATOM     26  C   UNL     1      -1.367   3.309  -1.210  0.00  0.00    +0.003 C 
BRANCH  26  27
ATOM     27  C   UNL     1      -2.764   3.302  -1.776  0.00  0.00    +0.138 A 
ATOM     28  N   UNL     1      -3.233   2.493  -2.695  0.00  0.00    -0.115 NA
ATOM     29  N   UNL     1      -4.465   2.803  -2.908  0.00  0.00    -0.023 NA
ATOM     30  N   UNL     1      -4.794   3.790  -2.150  0.00  0.00    -0.044 NA
ATOM     31  N   UNL     1      -3.774   4.123  -1.433  0.00  0.00    -0.228 N 
BRANCH  31  32
ATOM     32  C   UNL     1      -3.724   5.194  -0.435  0.00  0.00    +0.178 C 
BRANCH  32  33
ATOM     33  C   UNL     1      -3.297   6.500  -1.110  0.00  0.00    +0.140 C 
ATOM     34  C   UNL     1      -3.130   7.608  -0.049  0.00  0.00    +0.035 C 
ATOM     35  C   UNL     1      -3.711   8.851  -0.776  0.00  0.00    +0.031 C 
ATOM     36  C   UNL     1      -4.837   8.200  -1.617  0.00  0.00    +0.160 C 
ATOM     37  O   UNL     1      -4.312   6.927  -2.026  0.00  0.00    -0.375 OA
ENDBRANCH  32  33
ENDBRANCH  31  32
ENDBRANCH  26  27
BRANCH  26  38
ATOM     38  C   UNL     1      -0.416   3.970  -2.209  0.00  0.00    -0.011 C 
ATOM     39  C   UNL     1       0.987   4.046  -1.603  0.00  0.00    +0.002 C 
ENDBRANCH  26  38
ENDBRANCH   1  26
TORSDOF 11
