REMARK  Name = ZINC46809381
REMARK  11 active torsions:
REMARK  status: ('A' for Active; 'I' for Inactive)
REMARK    1  A    between atoms: C_1  and  C_2
REMARK    2  A    between atoms: N_11  and  C_15
REMARK    3  A    between atoms: C_15  and  C_16
REMARK    4  A    between atoms: N_18  and  C_19
REMARK    5  A    between atoms: C_19  and  C_20
REMARK    6  A    between atoms: C_25  and  C_26
REMARK    7  A    between atoms: C_26  and  N_27
REMARK    8  A    between atoms: N_27  and  C_28
REMARK    9  A    between atoms: N_27  and  C_29
REMARK   10  A    between atoms: C_29  and  C_30
REMARK   11  A    between atoms: C_29  and  C_31
REMARK                            x       y       z     vdW  Elec       q    Type
REMARK                         _______ _______ _______ _____ _____    ______ ____
ROOT
ATOM      1  C   UNL     1       1.154   0.526   5.534  0.00  0.00    +0.231 C 
ATOM      2  O   UNL     1       1.567  -0.591   5.305  0.00  0.00    -0.274 OA
ATOM      3  N   UNL     1       1.032   0.953   6.806  0.00  0.00    -0.310 N 
ATOM      4  H   UNL     1       0.701   1.846   6.989  0.00  0.00    +0.149 HD
ENDROOT
BRANCH   1   5
ATOM      5  C   UNL     1       0.777   1.438   4.394  0.00  0.00    +0.213 C 
BRANCH   5  15
ATOM      6  C   UNL     1      -0.019   1.526   0.010  0.00  0.00    +0.010 C 
ATOM      7  C   UNL     1       0.002  -0.004   0.002  0.00  0.00    +0.018 C 
ATOM      8  C   UNL     1       0.718  -0.498  -1.258  0.00  0.00    +0.006 C 
ATOM      9  C   UNL     1       0.756  -2.027  -1.255  0.00  0.00    +0.000 C 
ATOM     10  C   UNL     1       1.516  -2.519  -0.021  0.00  0.00    +0.003 C 
ATOM     11  C   UNL     1       0.803  -2.032   1.243  0.00  0.00    +0.035 C 
ATOM     12  C   UNL     1       0.739  -0.509   1.238  0.00  0.00    +0.115 C 
ATOM     13  C   UNL     1       0.069  -0.004   2.495  0.00  0.00    +0.247 C 
ATOM     14  O   UNL     1      -1.064  -0.228   2.863  0.00  0.00    -0.273 OA
ATOM     15  N   UNL     1       0.998   0.746   3.122  0.00  0.00    -0.215 N 
ATOM     16  C   UNL     1       2.148   0.781   2.437  0.00  0.00    +0.310 C 
ATOM     17  O   UNL     1       3.133   1.393   2.801  0.00  0.00    -0.252 OA
ATOM     18  N   UNL     1       2.091   0.063   1.300  0.00  0.00    -0.285 N 
ATOM     19  H   UNL     1       2.801  -0.054   0.650  0.00  0.00    +0.151 HD
ENDBRANCH   5  15
ENDBRANCH   1   5
BRANCH   3  20
ATOM     20  C   UNL     1       1.399   0.067   7.914  0.00  0.00    +0.139 C 
BRANCH  20  21
ATOM     21  C   UNL     1       1.171   0.778   9.223  0.00  0.00    -0.029 A 
ATOM     22  C   UNL     1       2.235   1.356   9.890  0.00  0.00    +0.005 A 
ATOM     23  C   UNL     1       2.025   2.008  11.090  0.00  0.00    +0.000 A 
ATOM     24  C   UNL     1       0.752   2.083  11.624  0.00  0.00    +0.000 A 
ATOM     25  C   UNL     1      -0.312   1.506  10.956  0.00  0.00    +0.002 A 
ATOM     26  C   UNL     1      -0.103   0.857   9.754  0.00  0.00    -0.059 A 
BRANCH  26  27
ATOM     27  C   UNL     1      -1.264   0.232   9.023  0.00  0.00    -0.043 C 
BRANCH  27  28
ATOM     28  N   UNL     1      -1.285  -1.214   9.283  0.00  0.00    +0.382 N 
ATOM     29  C   UNL     1      -1.549  -1.451  10.709  0.00  0.00    -0.095 C 
ATOM     30  H   UNL     1      -0.392  -1.613   9.036  0.00  0.00    -0.081 HD
BRANCH  28  31
ATOM     31  C   UNL     1      -2.342  -1.840   8.478  0.00  0.00    -0.075 C 
ATOM     32  C   UNL     1      -2.066  -1.593   6.994  0.00  0.00    -0.014 C 
ATOM     33  C   UNL     1      -2.364  -3.346   8.749  0.00  0.00    -0.014 C 
ENDBRANCH  28  31
ENDBRANCH  27  28
ENDBRANCH  26  27
ENDBRANCH  20  21
ENDBRANCH   3  20
TORSDOF 7
