REMARK  Name = ZINC11912481
REMARK  8 active torsions:
REMARK  status: ('A' for Active; 'I' for Inactive)
REMARK    1  A    between atoms: C_4  and  C_7
REMARK    2  A    between atoms: C_10  and  C_12
REMARK    3  A    between atoms: C_12  and  N_62
REMARK    4  A    between atoms: C_13  and  C_14
REMARK    5  A    between atoms: C_13  and  N_62
REMARK    6  A    between atoms: C_23  and  O_24
REMARK    7  A    between atoms: O_24  and  C_25
REMARK    8  A    between atoms: C_25  and  C_26
REMARK                            x       y       z     vdW  Elec       q    Type
REMARK                         _______ _______ _______ _____ _____    ______ ____
ROOT
ATOM      1  C   UNL     1       5.997   3.410   0.028  0.00  0.00    -0.002 A 
ATOM      2  C   UNL     1       5.451   2.201  -0.294  0.00  0.00    +0.017 A 
ATOM      3  C   UNL     1       4.054   2.054  -0.201  0.00  0.00    +0.005 A 
ATOM      4  C   UNL     1       3.428   0.837  -0.516  0.00  0.00    +0.059 A 
ATOM      5  C   UNL     1       2.072   0.725  -0.415  0.00  0.00    +0.167 A 
ATOM      6  C   UNL     1       1.293   1.819  -0.001  0.00  0.00    +0.168 A 
ATOM      7  C   UNL     1       1.877   3.013   0.311  0.00  0.00    +0.078 A 
ATOM      8  C   UNL     1       3.271   3.157   0.218  0.00  0.00    +0.079 A 
ATOM      9  N   UNL     1       3.864   4.318   0.521  0.00  0.00    -0.213 NA
ATOM     10  C   UNL     1       5.169   4.461   0.437  0.00  0.00    +0.217 A 
ATOM     11  O   UNL     1      -0.017   1.435   0.010  0.00  0.00    -0.453 OA
ATOM     12  C   UNL     1       0.002  -0.004   0.002  0.00  0.00    +0.466 C 
ATOM     13  O   UNL     1       1.239  -0.330  -0.658  0.00  0.00    -0.453 OA
ENDROOT
BRANCH   1  14
ATOM     14  C   UNL     1       7.487   3.612  -0.058  0.00  0.00    -0.041 C 
BRANCH  14  15
ATOM     15  N   UNL     1       8.069   3.500   1.293  0.00  0.00    +0.388 N 
ATOM     16  H   UNL     1       7.654   4.216   1.901  0.00  0.00    -0.085 HD
ATOM     17  H   UNL     1       7.864   2.568   1.674  0.00  0.00    -0.085 HD
BRANCH  15  18
ATOM     18  C   UNL     1       9.530   3.694   1.240  0.00  0.00    +0.017 C 
BRANCH  18  22
ATOM     19  C   UNL     1      10.790   4.028   4.621  0.00  0.00    +0.248 A 
ATOM     20  N   UNL     1      10.932   2.744   4.389  0.00  0.00    -0.107 NA
ATOM     21  N   UNL     1      10.511   2.478   3.202  0.00  0.00    -0.114 NA
ATOM     22  C   UNL     1      10.095   3.574   2.632  0.00  0.00    +0.201 A 
ATOM     23  O   UNL     1      10.257   4.578   3.511  0.00  0.00    -0.422 OA
BRANCH  19  27
ATOM     24  C   UNL     1      11.816   6.069   8.202  0.00  0.00    +0.000 A 
ATOM     25  C   UNL     1      12.025   4.705   8.102  0.00  0.00    +0.001 A 
ATOM     26  C   UNL     1      11.694   4.036   6.942  0.00  0.00    +0.013 A 
ATOM     27  C   UNL     1      11.147   4.738   5.867  0.00  0.00    +0.038 A 
ATOM     28  C   UNL     1      10.943   6.115   5.972  0.00  0.00    +0.013 A 
ATOM     29  C   UNL     1      11.273   6.771   7.140  0.00  0.00    +0.001 A 
ENDBRANCH  19  27
ENDBRANCH  18  22
ENDBRANCH  15  18
ENDBRANCH  14  15
ENDBRANCH   1  14
BRANCH  10  30
ATOM     30  O   UNL     1       5.726   5.656   0.754  0.00  0.00    -0.476 OA
BRANCH  30  31
ATOM     31  C   UNL     1       4.838   6.697   1.165  0.00  0.00    +0.234 C 
BRANCH  31  32
ATOM     32  C   UNL     1       5.642   7.960   1.479  0.00  0.00    +0.027 C 
ATOM     33  C   UNL     1       6.548   7.702   2.684  0.00  0.00    +0.007 C 
ATOM     34  C   UNL     1       7.353   8.965   2.997  0.00  0.00    +0.000 C 
ATOM     35  C   UNL     1       6.395  10.114   3.317  0.00  0.00    +0.000 C 
ATOM     36  C   UNL     1       5.489  10.372   2.112  0.00  0.00    +0.000 C 
ATOM     37  C   UNL     1       4.684   9.109   1.798  0.00  0.00    +0.007 C 
ENDBRANCH  31  32
ENDBRANCH  30  31
ENDBRANCH  10  30
TORSDOF 8
