REMARK  Name = ZINC63113058
REMARK  7 active torsions:
REMARK  status: ('A' for Active; 'I' for Inactive)
REMARK    1  A    between atoms: C_1  and  O_2
REMARK    2  A    between atoms: O_2  and  C_3
REMARK    3  A    between atoms: C_6  and  C_18
REMARK    4  A    between atoms: C_8  and  C_9
REMARK    5  A    between atoms: C_9  and  O_10
REMARK    6  A    between atoms: O_10  and  C_11
REMARK    7  A    between atoms: N_20  and  C_21
REMARK                            x       y       z     vdW  Elec       q    Type
REMARK                         _______ _______ _______ _____ _____    ______ ____
ROOT
ATOM      1  C   UNL     1      -1.199  -0.637   0.010  0.00  0.00    +0.127 A 
ATOM      2  C   UNL     1      -2.373   0.106   0.019  0.00  0.00    +0.047 A 
ATOM      3  C   UNL     1      -3.594  -0.531   0.027  0.00  0.00    +0.016 A 
ATOM      4  C   UNL     1      -3.650  -1.928   0.026  0.00  0.00    +0.037 A 
ATOM      5  C   UNL     1      -2.467  -2.671   0.016  0.00  0.00    +0.023 A 
ATOM      6  C   UNL     1      -1.250  -2.025   0.003  0.00  0.00    +0.032 A 
ENDROOT
BRANCH   4   7
ATOM      7  C   UNL     1      -4.956  -2.616   0.034  0.00  0.00    +0.246 C 
ATOM      8  O   UNL     1      -5.003  -3.831   0.033  0.00  0.00    -0.270 OA
ATOM      9  N   UNL     1      -6.096  -1.897   0.044  0.00  0.00    -0.288 N 
ATOM     10  H   UNL     1      -6.058  -0.928   0.045  0.00  0.00    +0.151 HD
BRANCH   9  11
ATOM     11  C   UNL     1      -7.392  -2.580   0.053  0.00  0.00    +0.192 C 
ATOM     12  C   UNL     1      -8.348  -1.897  -0.900  0.00  0.00    +0.027 C 
ATOM     13  C   UNL     1      -9.385  -1.468  -0.146  0.00  0.00    -0.001 A 
ATOM     14  C   UNL     1     -10.619  -0.743  -0.473  0.00  0.00    +0.029 A 
ATOM     15  C   UNL     1     -11.489  -0.447   0.520  0.00  0.00    +0.042 A 
ATOM     16  C   UNL     1     -11.242  -0.814   1.851  0.00  0.00    +0.022 A 
ATOM     17  C   UNL     1     -10.130  -1.480   2.228  0.00  0.00    +0.027 A 
ATOM     18  C   UNL     1      -9.148  -1.843   1.266  0.00  0.00    +0.044 A 
ATOM     19  N   UNL     1      -8.007  -2.481   1.381  0.00  0.00    -0.363 N 
ATOM     20 CL   UNL     1     -12.950   0.410   0.137  0.00  0.00    -0.084 Cl
ATOM     21  H   UNL     1      -7.632  -2.829   2.205  0.00  0.00    +0.162 HD
ENDBRANCH   9  11
ENDBRANCH   4   7
BRANCH   1  23
ATOM     22  C   UNL     1      -0.017   1.425   0.010  0.00  0.00    +0.277 C 
ATOM     23  O   UNL     1       0.002  -0.004   0.002  0.00  0.00    -0.495 OA
ENDBRANCH   1  23
BRANCH   6  24
ATOM     24  C   UNL     1       0.026  -2.826  -0.013  0.00  0.00    +0.268 C 
BRANCH  24  25
ATOM     25  O   UNL     1      -0.286  -4.220  -0.018  0.00  0.00    -0.486 OA
BRANCH  25  26
ATOM     26  C   UNL     1       0.761  -5.087  -0.032  0.00  0.00    +0.135 A 
ATOM     27  C   UNL     1       2.062  -4.605  -0.035  0.00  0.00    +0.047 A 
ATOM     28  C   UNL     1       3.124  -5.488  -0.050  0.00  0.00    +0.004 A 
ATOM     29  C   UNL     1       2.893  -6.851  -0.061  0.00  0.00    +0.001 A 
ATOM     30  C   UNL     1       1.597  -7.335  -0.057  0.00  0.00    +0.019 A 
ATOM     31  C   UNL     1       0.531  -6.456  -0.037  0.00  0.00    +0.059 A 
ATOM     32 BR   UNL     1      -1.241  -7.117  -0.024  0.00  0.00    -0.047 Br
ENDBRANCH  25  26
ENDBRANCH  24  25
ENDBRANCH   6  24
TORSDOF 6
