REMARK  Name = ZINC39324393
REMARK  5 active torsions:
REMARK  status: ('A' for Active; 'I' for Inactive)
REMARK    1  A    between atoms: C_1  and  C_2
REMARK    2  A    between atoms: C_7  and  C_8
REMARK    3  A    between atoms: C_16  and  C_24
REMARK    4  A    between atoms: C_18  and  C_22
REMARK    5  A    between atoms: C_19  and  N_21
REMARK                            x       y       z     vdW  Elec       q    Type
REMARK                         _______ _______ _______ _____ _____    ______ ____
ROOT
ATOM      1  C   UNL     1       1.055   1.738   0.306  0.00  0.00    +0.109 C 
ATOM      2  C   UNL     1       0.979   0.234   0.356  0.00  0.00    +0.213 C 
ATOM      3  O   UNL     1       1.206  -0.351   1.394  0.00  0.00    -0.276 OA
ATOM      4  N   UNL     1       0.657  -0.461  -0.753  0.00  0.00    -0.293 N 
ATOM      5  C   UNL     1       0.381   0.224  -2.030  0.00  0.00    +0.147 C 
ATOM      6  C   UNL     1       1.350  -0.356  -3.038  0.00  0.00    +0.013 C 
ATOM      7  C   UNL     1       1.921   0.426  -3.977  0.00  0.00    +0.023 C 
ATOM      8  C   UNL     1       1.656  -1.797  -2.968  0.00  0.00    +0.136 C 
ATOM      9  C   UNL     1       1.306  -2.523  -1.905  0.00  0.00    +0.003 C 
ATOM     10  C   UNL     1       0.575  -1.923  -0.733  0.00  0.00    +0.143 C 
ATOM     11  C   UNL     1       1.642  -3.995  -1.842  0.00  0.00    +0.102 C 
ATOM     12  C   UNL     1       1.936  -4.526  -3.216  0.00  0.00    +0.098 C 
ATOM     13  C   UNL     1       2.250  -3.680  -4.228  0.00  0.00    +0.199 C 
ATOM     14  O   UNL     1       2.306  -2.354  -4.023  0.00  0.00    -0.441 OA
ENDROOT
BRANCH   7  15
ATOM     15  C   UNL     1       1.466   1.807  -4.155  0.00  0.00    +0.013 A 
ATOM     16  C   UNL     1       1.997   2.805  -4.956  0.00  0.00    +0.015 A 
ATOM     17  C   UNL     1       1.385   4.037  -4.955  0.00  0.00    +0.008 A 
ATOM     18  C   UNL     1       0.289   4.235  -4.178  0.00  0.00    +0.046 A 
ATOM     19  S   UNL     1       0.077   2.640  -3.405  0.00  0.00    -0.097 S 
ENDBRANCH   7  15
BRANCH  11  20
ATOM     20  C   UNL     1       2.853  -4.193  -0.966  0.00  0.00    +0.002 A 
ATOM     21  C   UNL     1       2.975  -4.921   0.171  0.00  0.00    +0.012 A 
ATOM     22  C   UNL     1       4.197  -4.959   0.814  0.00  0.00    +0.008 A 
ATOM     23  C   UNL     1       5.238  -4.268   0.290  0.00  0.00    +0.045 A 
ATOM     24  S   UNL     1       4.501  -3.535  -1.162  0.00  0.00    -0.101 S 
ENDBRANCH  11  20
BRANCH  13  25
ATOM     25  N   UNL     1       2.513  -4.184  -5.477  0.00  0.00    -0.328 N 
ATOM     26  H   UNL     1       2.473  -5.141  -5.632  0.00  0.00    +0.145 HD
ATOM     27  H   UNL     1       2.738  -3.584  -6.205  0.00  0.00    +0.145 HD
ENDBRANCH  13  25
BRANCH  12  28
ATOM     28  C   UNL     1       1.883  -5.936  -3.458  0.00  0.00    +0.101 C 
ATOM     29  N   UNL     1       1.842  -7.055  -3.651  0.00  0.00    -0.191 NA
ENDBRANCH  12  28
TORSDOF 4
