REMARK  Name = ZINC10058984
REMARK  7 active torsions:
REMARK  status: ('A' for Active; 'I' for Inactive)
REMARK    1  A    between atoms: C_1  and  C_2
REMARK    2  A    between atoms: C_2  and  C_3
REMARK    3  A    between atoms: C_2  and  C_4
REMARK    4  A    between atoms: C_2  and  C_5
REMARK    5  A    between atoms: C_14  and  O_32
REMARK    6  A    between atoms: C_16  and  C_19
REMARK    7  A    between atoms: C_22  and  C_24
REMARK                            x       y       z     vdW  Elec       q    Type
REMARK                         _______ _______ _______ _____ _____    ______ ____
ROOT
ATOM      1  C   UNL     1      -0.726   1.578   1.271  0.00  0.00    -0.000 C 
ATOM      2  C   UNL     1      -0.013   1.086   0.008  0.00  0.00    +0.009 C 
ATOM      3  C   UNL     1      -0.749   1.591  -1.234  0.00  0.00    +0.037 C 
ATOM      4  C   UNL     1      -2.222   1.216  -1.118  0.00  0.00    -0.023 A 
ATOM      5  C   UNL     1      -2.762   0.888   0.079  0.00  0.00    -0.004 A 
ATOM      6  S   UNL     1      -4.464   0.532  -0.271  0.00  0.00    -0.078 S 
ATOM      7  C   UNL     1      -4.453   0.810  -1.959  0.00  0.00    +0.080 A 
ATOM      8  C   UNL     1      -3.134   1.182  -2.248  0.00  0.00    +0.068 A 
ATOM      9  C   UNL     1      -2.813   1.506  -3.662  0.00  0.00    +0.220 C 
ATOM     10  N   UNL     1      -3.697   1.192  -4.571  0.00  0.00    -0.220 NA
ATOM     11  C   UNL     1      -4.946   0.490  -4.306  0.00  0.00    +0.260 C 
ATOM     12  N   UNL     1      -5.421   0.726  -2.930  0.00  0.00    -0.311 N 
ATOM     13  C   UNL     1      -2.065   0.841   1.402  0.00  0.00    +0.046 C 
ATOM     14  H   UNL     1      -6.364   0.817  -2.722  0.00  0.00    +0.149 HD
ENDROOT
BRANCH  11  15
ATOM     15  C   UNL     1      -4.730  -0.989  -4.505  0.00  0.00    +0.148 A 
ATOM     16  C   UNL     1      -3.851  -1.546  -5.360  0.00  0.00    +0.049 A 
ATOM     17  C   UNL     1      -3.975  -2.944  -5.227  0.00  0.00    +0.050 A 
ATOM     18  C   UNL     1      -4.933  -3.164  -4.287  0.00  0.00    +0.137 A 
ATOM     19  O   UNL     1      -5.378  -1.969  -3.854  0.00  0.00    -0.456 OA
BRANCH  18  20
ATOM     20  C   UNL     1      -5.400  -4.485  -3.818  0.00  0.00    +0.037 A 
ATOM     21  C   UNL     1      -5.472  -4.759  -2.451  0.00  0.00    +0.013 A 
ATOM     22  C   UNL     1      -5.909  -5.994  -2.019  0.00  0.00    +0.002 A 
ATOM     23  C   UNL     1      -6.276  -6.962  -2.937  0.00  0.00    +0.021 A 
ATOM     24  C   UNL     1      -6.208  -6.699  -4.295  0.00  0.00    +0.060 A 
ATOM     25  C   UNL     1      -5.777  -5.464  -4.741  0.00  0.00    +0.070 A 
ATOM     26 CL   UNL     1      -5.698  -5.132  -6.443  0.00  0.00    -0.081 Cl
ATOM     27 CL   UNL     1      -6.671  -7.920  -5.438  0.00  0.00    -0.082 Cl
ENDBRANCH  18  20
ENDBRANCH  11  15
BRANCH   1  29
ATOM     28  C   UNL     1       1.482   2.006   2.357  0.00  0.00    +0.011 C 
ATOM     29  C   UNL     1       0.141   1.285   2.497  0.00  0.00    -0.035 C 
ATOM     30  C   UNL     1      -0.575   1.778   3.756  0.00  0.00    +0.011 C 
ATOM     31  C   UNL     1       0.380  -0.222   2.603  0.00  0.00    +0.011 C 
ENDBRANCH   1  29
BRANCH   9  32
ATOM     32  O   UNL     1      -1.647   2.104  -3.997  0.00  0.00    -0.492 OA
ATOM     33  H   UNL     1      -1.546   2.267  -4.945  0.00  0.00    +0.294 HD
ENDBRANCH   9  32
TORSDOF 4
