REMARK  Name = ZINC39864115
REMARK  5 active torsions:
REMARK  status: ('A' for Active; 'I' for Inactive)
REMARK    1  A    between atoms: C_3  and  N_8
REMARK    2  A    between atoms: N_10  and  C_30
REMARK    3  A    between atoms: C_14  and  C_15
REMARK    4  A    between atoms: C_18  and  C_20
REMARK    5  A    between atoms: C_23  and  N_26
REMARK                            x       y       z     vdW  Elec       q    Type
REMARK                         _______ _______ _______ _____ _____    ______ ____
ROOT
ATOM      1  N   UNL     1       3.474   1.960  -0.208  0.00  0.00    -0.222 NA
ATOM      2  C   UNL     1       3.700   3.039   0.513  0.00  0.00    +0.169 C 
ATOM      3  N   UNL     1       2.938   3.555   1.536  0.00  0.00    -0.243 N 
ATOM      4  C   UNL     1       3.360   4.662   2.129  0.00  0.00    +0.259 C 
ATOM      5  O   UNL     1       2.740   5.176   3.040  0.00  0.00    -0.269 OA
ATOM      6  C   UNL     1       4.628   5.243   1.624  0.00  0.00    +0.081 C 
ATOM      7  C   UNL     1       5.298   6.397   2.062  0.00  0.00    +0.066 C 
ATOM      8  S   UNL     1       5.068   4.175   0.402  0.00  0.00    -0.049 S 
ENDROOT
BRANCH   1  11
ATOM      9  C   UNL     1      -0.111   1.574  -0.668  0.00  0.00    +0.022 A 
ATOM     10  C   UNL     1       1.130   2.180  -0.652  0.00  0.00    +0.032 A 
ATOM     11  C   UNL     1       2.238   1.417  -0.242  0.00  0.00    +0.103 A 
ATOM     12  C   UNL     1       2.034   0.075   0.132  0.00  0.00    +0.154 A 
ATOM     13  N   UNL     1       0.828  -0.450   0.097  0.00  0.00    -0.241 NA
ATOM     14  C   UNL     1      -0.227   0.248  -0.284  0.00  0.00    +0.112 A 
ATOM     15 CL   UNL     1       3.382  -0.893   0.642  0.00  0.00    -0.060 Cl
ENDBRANCH   1  11
BRANCH   3  16
ATOM     16  C   UNL     1       1.697   2.900   1.958  0.00  0.00    +0.084 C 
ATOM     17  C   UNL     1       0.506   3.800   1.623  0.00  0.00    +0.023 C 
ATOM     18  C   UNL     1      -0.790   3.116   2.063  0.00  0.00    +0.002 C 
ATOM     19  C   UNL     1      -0.748   2.866   3.572  0.00  0.00    +0.000 C 
ATOM     20  C   UNL     1       0.443   1.966   3.907  0.00  0.00    +0.002 C 
ATOM     21  C   UNL     1       1.739   2.650   3.467  0.00  0.00    +0.023 C 
ENDBRANCH   3  16
BRANCH   7  22
ATOM     22  C   UNL     1       4.645   7.313   2.873  0.00  0.00    +0.130 A 
ATOM     23  C   UNL     1       5.160   8.559   3.304  0.00  0.00    +0.050 A 
ATOM     24  C   UNL     1       4.200   9.140   4.081  0.00  0.00    +0.050 A 
ATOM     25  C   UNL     1       3.108   8.258   4.125  0.00  0.00    +0.136 A 
ATOM     26  O   UNL     1       3.402   7.174   3.387  0.00  0.00    -0.455 OA
BRANCH  25  27
ATOM     27  C   UNL     1       1.854   8.485   4.851  0.00  0.00    +0.017 A 
ATOM     28  C   UNL     1       1.664   9.669   5.580  0.00  0.00    +0.014 A 
ATOM     29  C   UNL     1       0.483   9.873   6.258  0.00  0.00    +0.033 A 
ATOM     30  C   UNL     1      -0.516   8.913   6.223  0.00  0.00    +0.126 A 
ATOM     31  C   UNL     1      -0.337   7.740   5.506  0.00  0.00    +0.033 A 
ATOM     32  C   UNL     1       0.834   7.521   4.816  0.00  0.00    +0.014 A 
BRANCH  30  33
ATOM     33  N   UNL     1      -1.781   9.141   6.957  0.00  0.00    +0.056 N 
ATOM     34  O   UNL     1      -1.955  10.254   7.639  0.00  0.00    -0.126 OA
ATOM     35  O   UNL     1      -2.733   8.232   6.926  0.00  0.00    -0.126 OA
ENDBRANCH  30  33
ENDBRANCH  25  27
ENDBRANCH   7  22
TORSDOF 5
