REMARK  Name = ZINC39519595
REMARK  13 active torsions:
REMARK  status: ('A' for Active; 'I' for Inactive)
REMARK    1  A    between atoms: C_1  and  C_2
REMARK    2  A    between atoms: C_2  and  C_3
REMARK    3  A    between atoms: C_3  and  C_5
REMARK    4  A    between atoms: C_3  and  C_6
REMARK    5  A    between atoms: C_9  and  C_12
REMARK    6  A    between atoms: C_12  and  C_14
REMARK    7  A    between atoms: C_12  and  N_17
REMARK    8  A    between atoms: C_14  and  C_15
REMARK    9  A    between atoms: C_14  and  C_16
REMARK   10  A    between atoms: N_17  and  C_18
REMARK   11  A    between atoms: C_18  and  C_19
REMARK   12  A    between atoms: N_21  and  C_22
REMARK   13  A    between atoms: C_22  and  C_29
REMARK                            x       y       z     vdW  Elec       q    Type
REMARK                         _______ _______ _______ _____ _____    ______ ____
ROOT
ATOM      1  N   UNL     1      -0.799  -6.585  -1.852  0.00  0.00    +0.389 N 
ATOM      2  H   UNL     1      -0.944  -6.242  -2.790  0.00  0.00    -0.084 HD
ATOM      3  H   UNL     1      -0.879  -7.590  -1.846  0.00  0.00    -0.084 HD
ENDROOT
BRANCH   1   4
ATOM      4  C   UNL     1       0.541  -6.198  -1.391  0.00  0.00    -0.038 C 
BRANCH   4   8
ATOM      5  C   UNL     1       1.020  -1.972  -1.787  0.00  0.00    -0.045 A 
ATOM      6  C   UNL     1       1.520  -2.623  -0.674  0.00  0.00    +0.004 A 
ATOM      7  C   UNL     1       1.365  -3.990  -0.546  0.00  0.00    +0.002 A 
ATOM      8  C   UNL     1       0.710  -4.707  -1.530  0.00  0.00    -0.061 A 
ATOM      9  C   UNL     1       0.210  -4.056  -2.642  0.00  0.00    +0.002 A 
ATOM     10  C   UNL     1       0.361  -2.687  -2.768  0.00  0.00    +0.004 A 
BRANCH   5  11
ATOM     11  C   UNL     1       1.190  -0.481  -1.927  0.00  0.00    +0.016 C 
ATOM     12  C   UNL     1       2.680  -0.136  -1.941  0.00  0.00    +0.012 C 
BRANCH  11  14
ATOM     13  C   UNL     1       0.578   1.737  -0.952  0.00  0.00    +0.004 C 
ATOM     14  C   UNL     1       0.515   0.222  -0.747  0.00  0.00    +0.004 C 
ENDBRANCH  11  14
ENDBRANCH   5  11
ENDBRANCH   4   8
BRANCH   4  15
ATOM     15  C   UNL     1       1.598  -6.911  -2.237  0.00  0.00    -0.027 C 
ATOM     16  C   UNL     1       2.993  -6.491  -1.772  0.00  0.00    +0.006 C 
ATOM     17  C   UNL     1       1.442  -8.425  -2.078  0.00  0.00    +0.006 C 
ENDBRANCH   4  15
ENDBRANCH   1   4
BRANCH   1  18
ATOM     18  C   UNL     1      -1.810  -6.006  -0.957  0.00  0.00    +0.016 C 
BRANCH  18  19
ATOM     19  C   UNL     1      -3.186  -6.346  -1.469  0.00  0.00    +0.196 C 
ATOM     20  O   UNL     1      -3.312  -7.005  -2.479  0.00  0.00    -0.278 OA
ATOM     21  N   UNL     1      -4.277  -5.918  -0.803  0.00  0.00    -0.310 N 
ATOM     22  H   UNL     1      -4.177  -5.391   0.005  0.00  0.00    +0.149 HD
BRANCH  21  23
ATOM     23  C   UNL     1      -5.615  -6.249  -1.300  0.00  0.00    +0.052 C 
ATOM     24  C   UNL     1      -5.738  -5.756  -2.741  0.00  0.00    +0.049 C 
ATOM     25  C   UNL     1      -7.219  -5.423  -3.073  0.00  0.00    +0.168 C 
ATOM     26  S   UNL     1      -7.723  -4.640  -1.478  0.00  0.00    -0.029 S 
ATOM     27  O   UNL     1      -7.285  -3.288  -1.462  0.00  0.00    -0.174 OA
ATOM     28  O   UNL     1      -9.088  -4.940  -1.221  0.00  0.00    -0.174 OA
ATOM     29  C   UNL     1      -6.661  -5.634  -0.350  0.00  0.00    +0.191 C 
ATOM     30  C   UNL     1      -5.778  -7.770  -1.291  0.00  0.00    +0.033 C 
ENDBRANCH  21  23
ENDBRANCH  18  19
ENDBRANCH   1  18
TORSDOF 8
