REMARK  Name = ZINC39911549
REMARK  13 active torsions:
REMARK  status: ('A' for Active; 'I' for Inactive)
REMARK    1  A    between atoms: C_1  and  C_2
REMARK    2  A    between atoms: C_2  and  C_3
REMARK    3  A    between atoms: C_3  and  O_4
REMARK    4  A    between atoms: O_4  and  C_5
REMARK    5  A    between atoms: C_9  and  C_11
REMARK    6  A    between atoms: C_14  and  C_26
REMARK    7  A    between atoms: N_21  and  C_22
REMARK    8  A    between atoms: C_22  and  C_23
REMARK    9  A    between atoms: C_23  and  C_24
REMARK   10  A    between atoms: C_24  and  O_25
REMARK   11  A    between atoms: C_28  and  C_34
REMARK   12  A    between atoms: C_30  and  C_33
REMARK   13  A    between atoms: C_31  and  O_32
REMARK                            x       y       z     vdW  Elec       q    Type
REMARK                         _______ _______ _______ _____ _____    ______ ____
ROOT
ATOM      1  C   UNL     1       2.038  -5.616  -3.851  0.00  0.00    +0.141 C 
ATOM      2  C   UNL     1       0.941  -6.363  -4.559  0.00  0.00    +0.035 A 
ATOM      3  C   UNL     1      -0.427  -6.640  -4.652  0.00  0.00    +0.102 A 
ATOM      4  N   UNL     1      -0.590  -7.489  -5.648  0.00  0.00    -0.173 NA
ATOM      5  N   UNL     1       0.539  -7.775  -6.192  0.00  0.00    -0.272 N 
ATOM      6  H   UNL     1       0.658  -8.379  -6.941  0.00  0.00    +0.189 HD
ATOM      7  C   UNL     1       1.544  -7.103  -5.557  0.00  0.00    +0.126 A 
ATOM      8  C   UNL     1       2.990  -6.856  -5.513  0.00  0.00    +0.265 C 
ATOM      9  O   UNL     1       3.804  -7.359  -6.263  0.00  0.00    -0.268 OA
ATOM     10  N   UNL     1       3.288  -5.993  -4.523  0.00  0.00    -0.285 N 
ENDROOT
BRANCH   3  11
ATOM     11  C   UNL     1      -1.498  -6.081  -3.790  0.00  0.00    +0.044 A 
ATOM     12  C   UNL     1      -1.169  -5.285  -2.695  0.00  0.00    +0.017 A 
ATOM     13  C   UNL     1      -2.169  -4.768  -1.896  0.00  0.00    -0.049 A 
ATOM     14  C   UNL     1      -3.496  -5.037  -2.178  0.00  0.00    +0.010 A 
ATOM     15  C   UNL     1      -3.833  -5.825  -3.262  0.00  0.00    -0.008 A 
ATOM     16  C   UNL     1      -2.840  -6.346  -4.076  0.00  0.00    +0.129 A 
ATOM     17  C   UNL     1      -5.281  -6.114  -3.562  0.00  0.00    +0.047 C 
ATOM     18  C   UNL     1      -1.812  -3.907  -0.711  0.00  0.00    +0.044 C 
BRANCH  16  19
ATOM     19  O   UNL     1      -3.169  -7.116  -5.146  0.00  0.00    -0.506 OA
ATOM     20  H   UNL     1      -3.231  -8.060  -4.946  0.00  0.00    +0.292 HD
ENDBRANCH  16  19
ENDBRANCH   3  11
BRANCH   1  25
ATOM     21  C   UNL     1       1.264  -2.027  -2.958  0.00  0.00    +0.121 A 
ATOM     22  C   UNL     1       1.402  -1.402  -4.190  0.00  0.00    +0.045 A 
ATOM     23  C   UNL     1       1.745  -2.143  -5.304  0.00  0.00    +0.004 A 
ATOM     24  C   UNL     1       1.950  -3.506  -5.193  0.00  0.00    +0.006 A 
ATOM     25  C   UNL     1       1.813  -4.130  -3.968  0.00  0.00    -0.019 A 
ATOM     26  C   UNL     1       1.476  -3.393  -2.849  0.00  0.00    +0.051 A 
BRANCH  21  27
ATOM     27  O   UNL     1       0.927  -1.300  -1.860  0.00  0.00    -0.492 OA
BRANCH  27  28
ATOM     28  C   UNL     1       0.724   0.102  -2.047  0.00  0.00    +0.229 C 
BRANCH  28  30
ATOM     29  C   UNL     1       0.138   2.248  -0.910  0.00  0.00    +0.007 C 
ATOM     30  C   UNL     1       0.355   0.747  -0.710  0.00  0.00    +0.038 C 
ENDBRANCH  28  30
ENDBRANCH  27  28
ENDBRANCH  21  27
ENDBRANCH   1  25
BRANCH  10  31
ATOM     31  C   UNL     1       4.628  -5.511  -4.177  0.00  0.00    +0.111 C 
BRANCH  31  32
ATOM     32  C   UNL     1       5.254  -6.447  -3.141  0.00  0.00    +0.047 C 
BRANCH  32  33
ATOM     33  C   UNL     1       6.653  -5.944  -2.780  0.00  0.00    +0.157 C 
BRANCH  33  34
ATOM     34  O   UNL     1       7.238  -6.818  -1.812  0.00  0.00    -0.395 OA
ATOM     35  H   UNL     1       8.128  -6.560  -1.536  0.00  0.00    +0.209 HD
ENDBRANCH  33  34
ENDBRANCH  32  33
ENDBRANCH  31  32
ENDBRANCH  10  31
TORSDOF 10
