REMARK  Name = ZINC39675356
REMARK  10 active torsions:
REMARK  status: ('A' for Active; 'I' for Inactive)
REMARK    1  A    between atoms: C_1  and  C_2
REMARK    2  A    between atoms: C_2  and  C_4
REMARK    3  A    between atoms: C_2  and  N_14
REMARK    4  A    between atoms: C_4  and  C_5
REMARK    5  A    between atoms: C_5  and  C_6
REMARK    6  A    between atoms: C_9  and  O_12
REMARK    7  A    between atoms: O_12  and  C_13
REMARK    8  A    between atoms: C_15  and  C_17
REMARK    9  A    between atoms: C_28  and  C_30
REMARK   10  A    between atoms: N_34  and  C_35
REMARK                            x       y       z     vdW  Elec       q    Type
REMARK                         _______ _______ _______ _____ _____    ______ ____
ROOT
ATOM      1  C   UNL     1       1.682  -1.417   3.983  0.00  0.00    +0.100 C 
ATOM      2  C   UNL     1       2.617  -0.248   4.366  0.00  0.00    +0.121 C 
ATOM      3  N   UNL     1       1.751   0.695   5.113  0.00  0.00    -0.295 N 
ATOM      4  C   UNL     1       0.882  -0.178   5.938  0.00  0.00    +0.115 C 
ATOM      5  C   UNL     1       0.547  -1.370   5.019  0.00  0.00    -0.004 C 
ATOM      6  C   UNL     1       0.513  -2.665   5.826  0.00  0.00    -0.010 C 
ATOM      7  C   UNL     1      -0.660  -2.619   6.809  0.00  0.00    -0.082 C 
ATOM      8  N   UNL     1      -1.915  -2.448   6.068  0.00  0.00    +0.379 N 
ATOM      9  C   UNL     1      -1.913  -1.156   5.370  0.00  0.00    -0.082 C 
ATOM     10  C   UNL     1      -0.793  -1.141   4.326  0.00  0.00    -0.010 C 
ATOM     11  C   UNL     1       1.754   2.041   5.056  0.00  0.00    +0.263 C 
ATOM     12  O   UNL     1       1.117   2.686   5.868  0.00  0.00    -0.268 OA
ATOM     13  H   UNL     1      -2.011  -3.193   5.394  0.00  0.00    -0.086 HD
ATOM     14  H   UNL     1      -2.691  -2.478   6.712  0.00  0.00    -0.086 HD
ENDROOT
BRANCH  11  15
ATOM     15  C   UNL     1       2.525   2.729   4.015  0.00  0.00    +0.104 A 
ATOM     16  C   UNL     1       2.993   2.171   2.844  0.00  0.00    +0.032 A 
ATOM     17  C   UNL     1       3.670   3.179   2.151  0.00  0.00    +0.020 A 
ATOM     18  C   UNL     1       3.605   4.310   2.893  0.00  0.00    +0.086 A 
ATOM     19  N   UNL     1       2.907   4.052   4.026  0.00  0.00    -0.346 N 
ATOM     20  C   UNL     1       2.610   5.018   5.086  0.00  0.00    +0.149 C 
ENDBRANCH  11  15
BRANCH   1  22
ATOM     21  N   UNL     1       0.844  -2.285   1.823  0.00  0.00    -0.312 N 
ATOM     22  C   UNL     1       1.133  -1.217   2.594  0.00  0.00    +0.218 C 
ATOM     23  O   UNL     1       0.951  -0.096   2.169  0.00  0.00    -0.275 OA
ATOM     24  H   UNL     1       0.990  -3.182   2.163  0.00  0.00    +0.149 HD
BRANCH  21  26
ATOM     25  C   UNL     1       1.467  -1.880  -0.507  0.00  0.00    +0.028 C 
ATOM     26  C   UNL     1       0.311  -2.090   0.473  0.00  0.00    +0.070 C 
BRANCH  26  27
ATOM     27  C   UNL     1      -0.491  -3.326   0.059  0.00  0.00    +0.026 C 
BRANCH  27  28
ATOM     28  C   UNL     1      -1.717  -3.465   0.962  0.00  0.00    +0.037 C 
BRANCH  28  29
ATOM     29  C   UNL     1      -2.507  -4.682   0.554  0.00  0.00    -0.047 A 
ATOM     30  C   UNL     1      -3.502  -4.571  -0.399  0.00  0.00    +0.007 A 
ATOM     31  C   UNL     1      -4.227  -5.686  -0.775  0.00  0.00    +0.046 A 
ATOM     32  C   UNL     1      -3.956  -6.916  -0.195  0.00  0.00    +0.120 A 
ATOM     33  C   UNL     1      -2.957  -7.025   0.761  0.00  0.00    +0.046 A 
ATOM     34  C   UNL     1      -2.231  -5.909   1.129  0.00  0.00    +0.007 A 
BRANCH  32  35
ATOM     35  O   UNL     1      -4.669  -8.014  -0.562  0.00  0.00    -0.495 OA
ATOM     36  C   UNL     1      -4.335  -9.248   0.076  0.00  0.00    +0.277 C 
ENDBRANCH  32  35
ENDBRANCH  28  29
ENDBRANCH  27  28
ENDBRANCH  26  27
ENDBRANCH  21  26
ENDBRANCH   1  22
TORSDOF 7
