REMARK  Name = ZINC10029153
REMARK  9 active torsions:
REMARK  status: ('A' for Active; 'I' for Inactive)
REMARK    1  A    between atoms: C_1  and  C_2
REMARK    2  A    between atoms: C_5  and  C_8
REMARK    3  A    between atoms: C_11  and  C_13
REMARK    4  A    between atoms: C_16  and  C_19
REMARK    5  A    between atoms: N_21  and  N_22
REMARK    6  A    between atoms: C_25  and  C_29
REMARK    7  A    between atoms: C_25  and  C_30
REMARK    8  A    between atoms: C_30  and  C_31
REMARK    9  A    between atoms: C_31  and  C_32
REMARK                            x       y       z     vdW  Elec       q    Type
REMARK                         _______ _______ _______ _____ _____    ______ ____
ROOT
ATOM      1  C   UNL     1     -10.318   0.823   0.057  0.00  0.00    +0.261 C 
ATOM      2  O   UNL     1     -10.984  -0.194   0.055  0.00  0.00    -0.269 OA
ATOM      3  N   UNL     1     -10.924   2.026   0.066  0.00  0.00    -0.220 N 
ATOM      4  H   UNL     1     -10.393   2.837   0.068  0.00  0.00    +0.174 HD
ENDROOT
BRANCH   3   5
ATOM      5  N   UNL     1     -12.323   2.106   0.073  0.00  0.00    -0.137 N 
ATOM      6  C   UNL     1     -13.067   2.448  -0.997  0.00  0.00    +0.263 C 
ATOM      7  O   UNL     1     -12.668   2.734  -2.105  0.00  0.00    -0.271 OA
ATOM      8  C   UNL     1     -14.508   2.398  -0.527  0.00  0.00    +0.112 C 
ATOM      9  N   UNL     1     -14.397   2.004   0.888  0.00  0.00    -0.284 N 
ATOM     10  C   UNL     1     -13.085   1.857   1.145  0.00  0.00    +0.326 C 
ATOM     11  O   UNL     1     -12.641   1.534   2.229  0.00  0.00    -0.251 OA
ATOM     12  C   UNL     1     -15.161   3.776  -0.653  0.00  0.00    +0.041 C 
ATOM     13  H   UNL     1     -15.128   1.876   1.513  0.00  0.00    +0.151 HD
BRANCH   8  14
ATOM     14  C   UNL     1     -15.300   1.354  -1.316  0.00  0.00    +0.040 C 
BRANCH  14  15
ATOM     15  C   UNL     1     -16.717   1.254  -0.749  0.00  0.00    +0.038 C 
BRANCH  15  16
ATOM     16  C   UNL     1     -17.498   0.225  -1.526  0.00  0.00    -0.047 A 
ATOM     17  C   UNL     1     -18.225   0.605  -2.638  0.00  0.00    +0.003 A 
ATOM     18  C   UNL     1     -18.938  -0.339  -3.354  0.00  0.00    +0.000 A 
ATOM     19  C   UNL     1     -18.931  -1.661  -2.951  0.00  0.00    +0.000 A 
ATOM     20  C   UNL     1     -18.207  -2.041  -1.836  0.00  0.00    +0.000 A 
ATOM     21  C   UNL     1     -17.491  -1.097  -1.123  0.00  0.00    +0.003 A 
ENDBRANCH  15  16
ENDBRANCH  14  15
ENDBRANCH   8  14
ENDBRANCH   3   5
BRANCH   1  25
ATOM     22  C   UNL     1      -6.074   0.582   0.035  0.00  0.00    +0.039 A 
ATOM     23  C   UNL     1      -6.703   1.830   0.050  0.00  0.00    +0.014 A 
ATOM     24  C   UNL     1      -8.077   1.908   0.052  0.00  0.00    +0.014 A 
ATOM     25  C   UNL     1      -8.843   0.739   0.050  0.00  0.00    +0.038 A 
ATOM     26  C   UNL     1      -8.214  -0.509   0.040  0.00  0.00    +0.014 A 
ATOM     27  C   UNL     1      -6.840  -0.587   0.033  0.00  0.00    +0.014 A 
BRANCH  22  31
ATOM     28  C   UNL     1      -2.502   1.008   0.019  0.00  0.00    +0.249 A 
ATOM     29  N   UNL     1      -2.634  -0.300   0.013  0.00  0.00    -0.107 NA
ATOM     30  N   UNL     1      -3.884  -0.604   0.018  0.00  0.00    -0.107 NA
ATOM     31  C   UNL     1      -4.600   0.498   0.028  0.00  0.00    +0.249 A 
ATOM     32  O   UNL     1      -3.742   1.538   0.034  0.00  0.00    -0.416 OA
BRANCH  28  37
ATOM     33  C   UNL     1       2.452   3.933  -0.002  0.00  0.00    +0.044 C 
ATOM     34  C   UNL     1       1.155   3.167   0.007  0.00  0.00    -0.050 A 
ATOM     35  C   UNL     1       1.172   1.783   0.000  0.00  0.00    +0.004 A 
ATOM     36  C   UNL     1      -0.013   1.076   0.008  0.00  0.00    +0.013 A 
ATOM     37  C   UNL     1      -1.230   1.759   0.017  0.00  0.00    +0.039 A 
ATOM     38  C   UNL     1      -1.240   3.155   0.030  0.00  0.00    +0.013 A 
ATOM     39  C   UNL     1      -0.048   3.850   0.021  0.00  0.00    +0.004 A 
ENDBRANCH  28  37
ENDBRANCH  22  31
ENDBRANCH   1  25
TORSDOF 7
