REMARK  Name = ZINC51584883
REMARK  9 active torsions:
REMARK  status: ('A' for Active; 'I' for Inactive)
REMARK    1  A    between atoms: C_1  and  N_2
REMARK    2  A    between atoms: N_2  and  C_3
REMARK    3  A    between atoms: N_2  and  C_21
REMARK    4  A    between atoms: C_3  and  C_4
REMARK    5  A    between atoms: C_9  and  N_10
REMARK    6  A    between atoms: N_13  and  C_14
REMARK    7  A    between atoms: C_14  and  C_15
REMARK    8  A    between atoms: N_17  and  C_18
REMARK    9  A    between atoms: C_18  and  C_19
REMARK                            x       y       z     vdW  Elec       q    Type
REMARK                         _______ _______ _______ _____ _____    ______ ____
ROOT
ATOM      1  C   UNL     1      -2.084  -0.123  -1.271  0.00  0.00    -0.043 A 
ATOM      2  C   UNL     1      -2.944   0.958  -1.291  0.00  0.00    +0.003 A 
ATOM      3  C   UNL     1      -3.583   1.312  -2.465  0.00  0.00    +0.000 A 
ATOM      4  C   UNL     1      -3.363   0.587  -3.622  0.00  0.00    +0.002 A 
ATOM      5  C   UNL     1      -2.504  -0.494  -3.608  0.00  0.00    +0.023 A 
ATOM      6  C   UNL     1      -1.856  -0.849  -2.432  0.00  0.00    +0.036 A 
ENDROOT
BRANCH   6   7
ATOM      7  N   UNL     1      -0.981  -1.941  -2.417  0.00  0.00    -0.269 N 
ATOM      8  C   UNL     1      -0.374  -2.335  -3.554  0.00  0.00    +0.304 C 
ATOM      9  O   UNL     1      -0.507  -1.682  -4.571  0.00  0.00    -0.252 OA
ATOM     10  N   UNL     1       0.379  -3.453  -3.564  0.00  0.00    -0.291 N 
ATOM     11  H   UNL     1      -0.810  -2.414  -1.587  0.00  0.00    +0.156 HD
ATOM     12  H   UNL     1       0.485  -3.973  -2.752  0.00  0.00    +0.151 HD
BRANCH  10  13
ATOM     13  C   UNL     1       1.038  -3.881  -4.800  0.00  0.00    +0.201 C 
BRANCH  13  14
ATOM     14  C   UNL     1       1.812  -5.148  -4.543  0.00  0.00    +0.231 C 
ATOM     15  O   UNL     1       1.813  -5.645  -3.437  0.00  0.00    -0.274 OA
ATOM     16  N   UNL     1       2.503  -5.730  -5.544  0.00  0.00    -0.303 N 
ATOM     17  H   UNL     1       2.502  -5.333  -6.429  0.00  0.00    +0.150 HD
BRANCH  16  18
ATOM     18  C   UNL     1       3.255  -6.962  -5.294  0.00  0.00    +0.193 C 
BRANCH  18  19
ATOM     19  C   UNL     1       3.918  -7.393  -6.537  0.00  0.00    -0.087 C 
ATOM     20  C   UNL     1       4.446  -7.736  -7.527  0.00  0.00    +0.005 C 
ENDBRANCH  18  19
ENDBRANCH  16  18
ENDBRANCH  13  14
ENDBRANCH  10  13
ENDBRANCH   6   7
BRANCH   1  21
ATOM     21  C   UNL     1      -1.388  -0.509   0.009  0.00  0.00    -0.041 C 
BRANCH  21  23
ATOM     22  C   UNL     1      -0.048   1.480  -0.000  0.00  0.00    -0.095 C 
ATOM     23  N   UNL     1      -0.015   0.012  -0.004  0.00  0.00    +0.382 N 
ATOM     24  H   UNL     1       0.460  -0.312  -0.834  0.00  0.00    -0.081 HD
BRANCH  23  25
ATOM     25  C   UNL     1       0.701  -0.465   1.187  0.00  0.00    -0.069 C 
ATOM     26  C   UNL     1       2.132   0.078   1.174  0.00  0.00    -0.015 C 
ATOM     27  C   UNL     1       2.877  -0.419   2.414  0.00  0.00    -0.002 C 
ATOM     28  C   UNL     1       2.912  -1.948   2.410  0.00  0.00    -0.000 C 
ATOM     29  C   UNL     1       1.481  -2.491   2.423  0.00  0.00    -0.002 C 
ATOM     30  C   UNL     1       0.736  -1.994   1.183  0.00  0.00    -0.015 C 
ENDBRANCH  23  25
ENDBRANCH  21  23
ENDBRANCH   1  21
TORSDOF 8
