REMARK  Name = ZINC36621755
REMARK  7 active torsions:
REMARK  status: ('A' for Active; 'I' for Inactive)
REMARK    1  A    between atoms: C_1  and  C_2
REMARK    2  A    between atoms: C_5  and  O_35
REMARK    3  A    between atoms: C_17  and  C_34
REMARK    4  A    between atoms: C_22  and  C_23
REMARK    5  A    between atoms: C_26  and  N_29
REMARK    6  A    between atoms: N_29  and  C_30
REMARK    7  A    between atoms: N_29  and  C_31
REMARK                            x       y       z     vdW  Elec       q    Type
REMARK                         _______ _______ _______ _____ _____    ______ ____
ROOT
ATOM      1  C   UNL     1      -1.656   0.707  -0.602  0.00  0.00    +0.016 C 
ATOM      2  C   UNL     1      -1.267  -0.771  -0.532  0.00  0.00    -0.008 C 
ATOM      3  C   UNL     1      -2.549  -1.605  -0.613  0.00  0.00    +0.014 C 
ATOM      4  C   UNL     1      -3.428  -1.304   0.603  0.00  0.00    +0.032 C 
ATOM      5  C   UNL     1      -2.699  -1.720   1.882  0.00  0.00    +0.119 C 
ATOM      6  C   UNL     1      -1.434  -0.874   2.047  0.00  0.00    +0.062 C 
ATOM      7  C   UNL     1      -0.596  -1.016   0.787  0.00  0.00    -0.065 C 
ATOM      8  C   UNL     1       0.656  -1.346   0.913  0.00  0.00    -0.027 C 
ATOM      9  C   UNL     1       1.575  -1.533  -0.258  0.00  0.00    +0.031 C 
ATOM     10  C   UNL     1       1.073  -0.687  -1.436  0.00  0.00    +0.001 C 
ATOM     11  C   UNL     1      -0.381  -1.085  -1.726  0.00  0.00    +0.003 C 
ATOM     12  C   UNL     1      -0.871  -0.287  -2.940  0.00  0.00    +0.005 C 
ATOM     13  C   UNL     1      -0.047  -0.694  -4.157  0.00  0.00    +0.015 C 
ATOM     14  C   UNL     1       1.427  -0.332  -3.958  0.00  0.00    +0.034 C 
ATOM     15  C   UNL     1       1.961  -0.905  -2.634  0.00  0.00    +0.010 C 
ATOM     16  C   UNL     1       2.105  -2.392  -3.013  0.00  0.00    +0.043 C 
ATOM     17  C   UNL     1       2.575  -2.329  -4.459  0.00  0.00    -0.004 C 
ATOM     18  C   UNL     1       3.244  -3.310  -5.115  0.00  0.00    +0.015 C 
ATOM     19  C   UNL     1       2.209  -1.117  -5.011  0.00  0.00    +0.165 C 
ATOM     20  O   UNL     1       2.460  -0.739  -6.137  0.00  0.00    -0.292 OA
ATOM     21  C   UNL     1       1.666   1.175  -4.065  0.00  0.00    +0.020 C 
ENDROOT
BRANCH  18  22
ATOM     22  C   UNL     1       3.429  -4.620  -4.483  0.00  0.00    -0.025 A 
ATOM     23  C   UNL     1       2.642  -4.988  -3.383  0.00  0.00    +0.010 A 
ATOM     24  C   UNL     1       2.817  -6.209  -2.798  0.00  0.00    +0.023 A 
ATOM     25  C   UNL     1       3.777  -7.090  -3.293  0.00  0.00    +0.029 A 
ATOM     26  C   UNL     1       4.562  -6.729  -4.386  0.00  0.00    +0.023 A 
ATOM     27  C   UNL     1       4.389  -5.511  -4.981  0.00  0.00    +0.010 A 
BRANCH  25  28
ATOM     28  N   UNL     1       3.952  -8.332  -2.694  0.00  0.00    -0.336 N 
ATOM     29  C   UNL     1       3.046  -8.765  -1.628  0.00  0.00    +0.129 C 
ATOM     30  C   UNL     1       5.043  -9.207  -3.130  0.00  0.00    +0.129 C 
ENDBRANCH  25  28
ENDBRANCH  18  22
BRANCH   5  31
ATOM     31  O   UNL     1      -3.558  -1.518   3.006  0.00  0.00    -0.391 OA
ATOM     32  H   UNL     1      -3.160  -1.761   3.854  0.00  0.00    +0.210 HD
ENDBRANCH   5  31
TORSDOF 3
