REMARK  Name = ZINC39834439
REMARK  7 active torsions:
REMARK  status: ('A' for Active; 'I' for Inactive)
REMARK    1  A    between atoms: C_1  and  C_2
REMARK    2  A    between atoms: C_3  and  C_21
REMARK    3  A    between atoms: C_6  and  C_8
REMARK    4  A    between atoms: N_10  and  N_11
REMARK    5  A    between atoms: C_12  and  C_13
REMARK    6  A    between atoms: C_12  and  C_14
REMARK    7  A    between atoms: C_19  and  O_20
REMARK                            x       y       z     vdW  Elec       q    Type
REMARK                         _______ _______ _______ _____ _____    ______ ____
ROOT
ATOM      1  C   UNL     1       1.415  -0.699   1.910  0.00  0.00    +0.263 C 
ATOM      2  O   UNL     1       2.366  -1.425   1.711  0.00  0.00    -0.271 OA
ATOM      3  N   UNL     1       1.520   0.329   2.776  0.00  0.00    -0.205 N 
ATOM      4  H   UNL     1       0.760   0.909   2.934  0.00  0.00    +0.177 HD
ENDROOT
BRANCH   1  10
ATOM      5  C   UNL     1      -0.088   1.501   0.016  0.00  0.00    +0.044 C 
ATOM      6  C   UNL     1      -0.028  -0.005   0.005  0.00  0.00    -0.010 C 
ATOM      7  C   UNL     1      -0.083  -0.830  -1.059  0.00  0.00    +0.094 C 
ATOM      8  N   UNL     1       0.003  -2.126  -0.658  0.00  0.00    -0.153 NA
ATOM      9  N   UNL     1       0.111  -2.277   0.560  0.00  0.00    -0.170 NA
ATOM     10  C   UNL     1       0.115  -0.946   1.188  0.00  0.00    +0.243 C 
BRANCH   7  11
ATOM     11  C   UNL     1      -0.220  -0.387  -2.468  0.00  0.00    +0.002 A 
ATOM     12  C   UNL     1       0.580   0.644  -2.957  0.00  0.00    +0.010 A 
ATOM     13  C   UNL     1       0.450   1.052  -4.269  0.00  0.00    +0.001 A 
ATOM     14  C   UNL     1      -0.473   0.440  -5.098  0.00  0.00    +0.000 A 
ATOM     15  C   UNL     1      -1.270  -0.584  -4.618  0.00  0.00    +0.001 A 
ATOM     16  C   UNL     1      -1.144  -1.004  -3.309  0.00  0.00    +0.010 A 
ENDBRANCH   7  11
ENDBRANCH   1  10
BRANCH   3  17
ATOM     17  N   UNL     1       2.729   0.558   3.446  0.00  0.00    -0.184 NA
ATOM     18  C   UNL     1       2.830   1.547   4.280  0.00  0.00    +0.067 C 
ATOM     19  C   UNL     1       1.649   2.449   4.527  0.00  0.00    +0.068 C 
BRANCH  18  20
ATOM     20  C   UNL     1       4.101   1.788   4.986  0.00  0.00    +0.039 A 
ATOM     21  C   UNL     1       4.213   2.848   5.889  0.00  0.00    +0.013 A 
ATOM     22  C   UNL     1       5.406   3.068   6.546  0.00  0.00    +0.001 A 
ATOM     23  C   UNL     1       6.493   2.242   6.316  0.00  0.00    +0.004 A 
ATOM     24  C   UNL     1       6.395   1.190   5.425  0.00  0.00    +0.046 A 
ATOM     25  C   UNL     1       5.203   0.952   4.760  0.00  0.00    +0.126 A 
BRANCH  25  26
ATOM     26  O   UNL     1       5.104  -0.085   3.889  0.00  0.00    -0.506 OA
ATOM     27  H   UNL     1       5.341   0.142   2.979  0.00  0.00    +0.292 HD
ENDBRANCH  25  26
ENDBRANCH  18  20
ENDBRANCH   3  17
TORSDOF 5
