REMARK  Name = ZINC32825471
REMARK  6 active torsions:
REMARK  status: ('A' for Active; 'I' for Inactive)
REMARK    1  A    between atoms: C_3  and  N_9
REMARK    2  A    between atoms: C_10  and  C_12
REMARK    3  A    between atoms: N_17  and  C_18
REMARK    4  A    between atoms: C_18  and  C_19
REMARK    5  A    between atoms: N_21  and  C_22
REMARK    6  A    between atoms: C_22  and  C_27
REMARK                            x       y       z     vdW  Elec       q    Type
REMARK                         _______ _______ _______ _____ _____    ______ ____
ROOT
ATOM      1  C   UNL     1       2.522   5.702   0.419  0.00  0.00    +0.020 C 
ATOM      2  C   UNL     1       1.605   6.163  -0.733  0.00  0.00    -0.008 C 
ATOM      3  C   UNL     1       2.422   7.303  -1.396  0.00  0.00    -0.020 C 
ATOM      4  C   UNL     1       3.872   6.777  -1.246  0.00  0.00    -0.077 C 
ATOM      5  N   UNL     1       3.896   6.110   0.074  0.00  0.00    +0.393 N 
ATOM      6  H   UNL     1       4.278   6.804   0.836  0.00  0.00    -0.080 HD
ENDROOT
BRANCH   1   8
ATOM      7  N   UNL     1       2.168   3.654   1.759  0.00  0.00    -0.286 N 
ATOM      8  C   UNL     1       2.452   4.204   0.562  0.00  0.00    +0.204 C 
ATOM      9  O   UNL     1       2.652   3.493  -0.400  0.00  0.00    -0.277 OA
ATOM     10  H   UNL     1       1.901   4.297   2.611  0.00  0.00    +0.155 HD
BRANCH   7  13
ATOM     11  C   UNL     1       3.045   0.120   1.236  0.00  0.00    +0.022 A 
ATOM     12  C   UNL     1       3.002   1.492   1.077  0.00  0.00    +0.026 A 
ATOM     13  C   UNL     1       2.214   2.263   1.919  0.00  0.00    +0.052 A 
ATOM     14  C   UNL     1       1.469   1.653   2.922  0.00  0.00    +0.064 A 
ATOM     15  C   UNL     1       1.516   0.281   3.077  0.00  0.00    +0.041 A 
ATOM     16  C   UNL     1       2.303  -0.485   2.235  0.00  0.00    +0.042 A 
ATOM     17 CL   UNL     1       2.359  -2.209   2.432  0.00  0.00    -0.083 Cl
ATOM     18 CL   UNL     1       0.475   2.613   3.973  0.00  0.00    -0.082 Cl
ENDBRANCH   7  13
ENDBRANCH   1   8
BRANCH   5  19
ATOM     19  C   UNL     1       4.801   4.953   0.062  0.00  0.00    +0.020 C 
BRANCH  19  20
ATOM     20  C   UNL     1       6.179   5.397  -0.358  0.00  0.00    +0.198 C 
ATOM     21  O   UNL     1       6.386   6.563  -0.621  0.00  0.00    -0.278 OA
ATOM     22  N   UNL     1       7.180   4.499  -0.441  0.00  0.00    -0.299 N 
ATOM     23  H   UNL     1       6.992   3.442  -0.202  0.00  0.00    +0.150 HD
BRANCH  22  24
ATOM     24  C   UNL     1       8.520   4.931  -0.848  0.00  0.00    +0.121 C 
ATOM     25  C   UNL     1       8.478   5.501  -2.281  0.00  0.00    +0.041 C 
ATOM     26  C   UNL     1       9.810   5.029  -2.916  0.00  0.00    +0.003 C 
ATOM     27  C   UNL     1       9.980   3.603  -2.334  0.00  0.00    +0.003 C 
ATOM     28  C   UNL     1       9.475   3.725  -0.882  0.00  0.00    +0.041 C 
BRANCH  24  29
ATOM     29  C   UNL     1       9.027   5.950   0.085  0.00  0.00    +0.088 C 
ATOM     30  N   UNL     1       9.418   6.736   0.806  0.00  0.00    -0.194 NA
ENDBRANCH  24  29
ENDBRANCH  22  24
ENDBRANCH  19  20
ENDBRANCH   5  19
TORSDOF 6
