REMARK  Name = ZINC12842182
REMARK  7 active torsions:
REMARK  status: ('A' for Active; 'I' for Inactive)
REMARK    1  A    between atoms: C_1  and  C_2
REMARK    2  A    between atoms: C_5  and  C_7
REMARK    3  A    between atoms: C_8  and  C_9
REMARK    4  A    between atoms: C_11  and  S_14
REMARK    5  A    between atoms: S_14  and  C_15
REMARK    6  A    between atoms: C_15  and  C_16
REMARK    7  A    between atoms: C_29  and  C_31
REMARK                            x       y       z     vdW  Elec       q    Type
REMARK                         _______ _______ _______ _____ _____    ______ ____
ROOT
ATOM      1  C   UNL     1       6.424  -8.389  -0.074  0.00  0.00    +0.173 C 
ENDROOT
BRANCH   1   2
ATOM      2  C   UNL     1       6.578  -9.888  -0.087  0.00  0.00    +0.230 C 
ATOM      3  O   UNL     1       5.595 -10.598  -0.093  0.00  0.00    -0.274 OA
ATOM      4  N   UNL     1       7.808 -10.439  -0.092  0.00  0.00    -0.266 N 
ATOM      5  C   UNL     1       8.952  -9.630  -0.080  0.00  0.00    +0.058 A 
ATOM      6  C   UNL     1       9.315  -8.936   1.062  0.00  0.00    +0.025 A 
ATOM      7  C   UNL     1      10.460  -8.161   1.062  0.00  0.00    +0.002 A 
ATOM      8  C   UNL     1      11.246  -8.078  -0.073  0.00  0.00    +0.002 A 
ATOM      9  C   UNL     1      10.886  -8.761  -1.220  0.00  0.00    +0.025 A 
ATOM     10  C   UNL     1       9.734  -9.530  -1.232  0.00  0.00    +0.055 A 
ATOM     11  N   UNL     1       9.320 -10.185  -2.397  0.00  0.00    -0.284 N 
ATOM     12  C   UNL     1       8.955 -11.485  -2.360  0.00  0.00    +0.219 C 
ATOM     13  O   UNL     1       8.520 -12.018  -3.359  0.00  0.00    -0.275 OA
ATOM     14  C   UNL     1       9.086 -12.278  -1.086  0.00  0.00    +0.118 C 
ATOM     15  C   UNL     1       7.972 -11.894  -0.105  0.00  0.00    +0.087 C 
ATOM     16  C   UNL     1       8.338 -12.376   1.301  0.00  0.00    +0.029 C 
ATOM     17  H   UNL     1       9.295  -9.702  -3.238  0.00  0.00    +0.155 HD
ENDBRANCH   1   2
BRANCH   1  18
ATOM     18  S   UNL     1       4.661  -7.961  -0.070  0.00  0.00    -0.075 S 
BRANCH  18  21
ATOM     19  C   UNL     1       3.906  -4.159  -0.038  0.00  0.00    +0.150 A 
ATOM     20  N   UNL     1       3.557  -5.435  -0.049  0.00  0.00    -0.202 NA
ATOM     21  C   UNL     1       4.649  -6.199  -0.055  0.00  0.00    +0.209 A 
ATOM     22  N   UNL     1       5.716  -5.432  -0.049  0.00  0.00    -0.145 NA
ATOM     23  N   UNL     1       5.266  -4.102  -0.044  0.00  0.00    -0.258 N 
ATOM     24  H   UNL     1       5.815  -3.302  -0.043  0.00  0.00    +0.191 HD
BRANCH  19  26
ATOM     25  C   UNL     1       1.657  -3.215  -0.023  0.00  0.00    +0.050 C 
ATOM     26  C   UNL     1       2.993  -3.013  -0.028  0.00  0.00    +0.051 C 
BRANCH  25  31
ATOM     27  C   UNL     1      -0.018   1.503   0.010  0.00  0.00    +0.086 C 
ATOM     28  C   UNL     1       0.002  -0.004   0.002  0.00  0.00    +0.103 A 
ATOM     29  C   UNL     1      -1.085  -0.805   0.003  0.00  0.00    +0.045 A 
ATOM     30  C   UNL     1      -0.621  -2.132  -0.007  0.00  0.00    +0.049 A 
ATOM     31  C   UNL     1       0.745  -2.071  -0.013  0.00  0.00    +0.128 A 
ATOM     32  O   UNL     1       1.104  -0.771  -0.013  0.00  0.00    -0.461 OA
ENDBRANCH  25  31
ENDBRANCH  19  26
ENDBRANCH  18  21
ENDBRANCH   1  18
TORSDOF 5
