REMARK  Name = ZINC64392151
REMARK  5 active torsions:
REMARK  status: ('A' for Active; 'I' for Inactive)
REMARK    1  A    between atoms: C_1  and  C_2
REMARK    2  A    between atoms: C_7  and  C_8
REMARK    3  A    between atoms: C_10  and  C_14
REMARK    4  A    between atoms: N_24  and  C_27
REMARK    5  A    between atoms: C_27  and  C_28
REMARK                            x       y       z     vdW  Elec       q    Type
REMARK                         _______ _______ _______ _____ _____    ______ ____
ROOT
ATOM      1  C   UNL     1       1.665   0.855   5.260  0.00  0.00    +0.006 A 
ATOM      2  C   UNL     1       2.816   0.453   4.601  0.00  0.00    +0.009 A 
ATOM      3  C   UNL     1       4.040   0.512   5.234  0.00  0.00    +0.016 A 
ATOM      4  C   UNL     1       4.113   0.980   6.544  0.00  0.00    +0.063 A 
ATOM      5  C   UNL     1       2.945   1.387   7.211  0.00  0.00    +0.056 A 
ATOM      6  C   UNL     1       1.724   1.326   6.557  0.00  0.00    +0.034 A 
ATOM      7  N   UNL     1       3.048   1.849   8.515  0.00  0.00    -0.307 N 
ATOM      8  H   UNL     1       2.251   2.134   8.989  0.00  0.00    +0.170 HD
ATOM      9  C   UNL     1       4.243   1.906   9.129  0.00  0.00    +0.330 A 
ATOM     10  O   UNL     1       4.290   2.317  10.273  0.00  0.00    -0.246 OA
ATOM     11  N   UNL     1       5.385   1.528   8.535  0.00  0.00    -0.256 N 
ATOM     12  C   UNL     1       5.395   1.064   7.266  0.00  0.00    +0.265 A 
ATOM     13  O   UNL     1       6.434   0.724   6.735  0.00  0.00    -0.267 OA
ENDROOT
BRANCH   1  16
ATOM     14  C   UNL     1       0.142   0.175   2.397  0.00  0.00    +0.134 C 
ATOM     15  N   UNL     1       0.336  -0.316   3.581  0.00  0.00    -0.339 N 
ATOM     16  C   UNL     1       0.336   0.784   4.553  0.00  0.00    +0.274 C 
ATOM     17  O   UNL     1       0.117   1.975   3.782  0.00  0.00    -0.243 OA
ATOM     18  N   UNL     1       0.007   1.540   2.436  0.00  0.00    -0.247 N 
ATOM     19  H   UNL     1      -0.142   2.115   1.668  0.00  0.00    +0.196 HD
ATOM     20  H   UNL     1       0.461  -1.255   3.790  0.00  0.00    +0.164 HD
BRANCH  14  27
ATOM     21  C   UNL     1      -2.190   0.342   0.693  0.00  0.00    +0.044 C 
ATOM     22  C   UNL     1      -1.040  -0.561   0.330  0.00  0.00    -0.040 A 
ATOM     23  C   UNL     1      -1.090  -1.313  -0.826  0.00  0.00    +0.004 A 
ATOM     24  C   UNL     1      -0.034  -2.143  -1.161  0.00  0.00    +0.000 A 
ATOM     25  C   UNL     1       1.077  -2.223  -0.341  0.00  0.00    +0.001 A 
ATOM     26  C   UNL     1       1.139  -1.476   0.817  0.00  0.00    +0.012 A 
ATOM     27  C   UNL     1       0.080  -0.634   1.158  0.00  0.00    +0.020 A 
ENDBRANCH  14  27
ENDBRANCH   1  16
BRANCH  11  28
ATOM     28  C   UNL     1       6.646   1.622   9.275  0.00  0.00    +0.165 C 
BRANCH  28  29
ATOM     29  C   UNL     1       6.892   0.331  10.012  0.00  0.00    -0.024 A 
ATOM     30  C   UNL     1       6.410   0.168  11.298  0.00  0.00    +0.009 A 
ATOM     31  C   UNL     1       6.633  -1.015  11.978  0.00  0.00    +0.050 A 
ATOM     32  C   UNL     1       7.342  -2.040  11.373  0.00  0.00    +0.166 A 
ATOM     33  C   UNL     1       7.827  -1.875  10.078  0.00  0.00    +0.167 A 
ATOM     34  C   UNL     1       7.595  -0.690   9.400  0.00  0.00    +0.055 A 
ATOM     35  O   UNL     1       8.483  -3.015   9.710  0.00  0.00    -0.453 OA
ATOM     36  C   UNL     1       8.747  -3.720  10.938  0.00  0.00    +0.466 C 
ATOM     37  O   UNL     1       7.693  -3.282  11.816  0.00  0.00    -0.453 OA
ENDBRANCH  28  29
ENDBRANCH  11  28
TORSDOF 4
