REMARK  Name = ZINC15024021
REMARK  11 active torsions:
REMARK  status: ('A' for Active; 'I' for Inactive)
REMARK    1  A    between atoms: C_1  and  C_2
REMARK    2  A    between atoms: C_2  and  O_3
REMARK    3  A    between atoms: O_3  and  C_4
REMARK    4  A    between atoms: C_4  and  C_6
REMARK    5  A    between atoms: C_7  and  C_24
REMARK    6  A    between atoms: N_8  and  C_23
REMARK    7  A    between atoms: C_11  and  C_17
REMARK    8  A    between atoms: C_12  and  O_16
REMARK    9  A    between atoms: C_17  and  N_18
REMARK   10  A    between atoms: C_24  and  S_25
REMARK   11  A    between atoms: S_25  and  C_26
REMARK                            x       y       z     vdW  Elec       q    Type
REMARK                         _______ _______ _______ _____ _____    ______ ____
ROOT
ATOM      1  C   UNL     1      -2.845  -2.417   0.016  0.00  0.00    +0.088 A 
ATOM      2  C   UNL     1      -3.604  -2.739  -1.072  0.00  0.00    +0.044 A 
ATOM      3  N   UNL     1      -4.790  -3.250  -0.667  0.00  0.00    -0.345 N 
ATOM      4  C   UNL     1      -4.856  -3.284   0.712  0.00  0.00    +0.051 A 
ATOM      5  C   UNL     1      -3.645  -2.772   1.204  0.00  0.00    +0.019 A 
ATOM      6  C   UNL     1      -3.425  -2.690   2.576  0.00  0.00    -0.011 A 
ATOM      7  C   UNL     1      -4.405  -3.118   3.452  0.00  0.00    +0.133 A 
ATOM      8  C   UNL     1      -5.605  -3.630   2.964  0.00  0.00    +0.061 A 
ATOM      9  C   UNL     1      -5.834  -3.706   1.607  0.00  0.00    +0.045 A 
ATOM     10 BR   UNL     1      -6.936  -4.213   4.173  0.00  0.00    -0.046 Br
ATOM     11  C   UNL     1      -5.855  -3.704  -1.566  0.00  0.00    +0.149 C 
ENDROOT
BRANCH   1  12
ATOM     12  C   UNL     1      -1.497  -1.838   0.006  0.00  0.00    +0.342 C 
ATOM     13  O   UNL     1      -0.523  -2.565  -0.007  0.00  0.00    -0.245 OA
BRANCH  12  14
ATOM     14  O   UNL     1      -1.339  -0.499   0.012  0.00  0.00    -0.461 OA
BRANCH  14  16
ATOM     15  C   UNL     1      -0.019   1.526   0.010  0.00  0.00    +0.048 C 
ATOM     16  C   UNL     1       0.002  -0.004   0.002  0.00  0.00    +0.229 C 
ENDBRANCH  14  16
ENDBRANCH  12  14
ENDBRANCH   1  12
BRANCH   7  17
ATOM     17  O   UNL     1      -4.197  -3.041   4.793  0.00  0.00    -0.505 OA
ATOM     18  H   UNL     1      -4.485  -2.207   5.189  0.00  0.00    +0.292 HD
ENDBRANCH   7  17
BRANCH   6  19
ATOM     19  C   UNL     1      -2.127  -2.137   3.104  0.00  0.00    -0.039 C 
BRANCH  19  20
ATOM     20  N   UNL     1      -2.251  -0.685   3.287  0.00  0.00    +0.382 N 
ATOM     21  C   UNL     1      -3.188  -0.387   4.400  0.00  0.00    -0.078 C 
ATOM     22  C   UNL     1      -2.787   1.048   4.827  0.00  0.00    -0.020 C 
ATOM     23  C   UNL     1      -1.248   1.036   4.676  0.00  0.00    -0.020 C 
ATOM     24  C   UNL     1      -0.949  -0.109   3.690  0.00  0.00    -0.078 C 
ATOM     25  H   UNL     1      -2.573  -0.253   2.434  0.00  0.00    -0.081 HD
ENDBRANCH  19  20
ENDBRANCH   6  19
BRANCH   2  26
ATOM     26  C   UNL     1      -3.184  -2.553  -2.507  0.00  0.00    +0.128 C 
BRANCH  26  27
ATOM     27  S   UNL     1      -3.691  -0.907  -3.077  0.00  0.00    -0.119 S 
BRANCH  27  28
ATOM     28  C   UNL     1      -3.136  -0.845  -4.748  0.00  0.00    +0.008 A 
ATOM     29  C   UNL     1      -2.481  -1.937  -5.306  0.00  0.00    +0.015 A 
ATOM     30  C   UNL     1      -2.047  -1.885  -6.615  0.00  0.00    +0.001 A 
ATOM     31  C   UNL     1      -2.264  -0.748  -7.373  0.00  0.00    +0.000 A 
ATOM     32  C   UNL     1      -2.916   0.341  -6.821  0.00  0.00    +0.001 A 
ATOM     33  C   UNL     1      -3.357   0.293  -5.514  0.00  0.00    +0.015 A 
ENDBRANCH  27  28
ENDBRANCH  26  27
ENDBRANCH   2  26
TORSDOF 9
