REMARK  Name = ZINC12880221
REMARK  6 active torsions:
REMARK  status: ('A' for Active; 'I' for Inactive)
REMARK    1  A    between atoms: C_1  and  C_2
REMARK    2  A    between atoms: C_5  and  C_34
REMARK    3  A    between atoms: C_9  and  C_10
REMARK    4  A    between atoms: C_9  and  N_57
REMARK    5  A    between atoms: C_11  and  O_33
REMARK    6  A    between atoms: C_20  and  C_21
REMARK                            x       y       z     vdW  Elec       q    Type
REMARK                         _______ _______ _______ _____ _____    ______ ____
ROOT
ATOM      1  C   UNL     1       0.023  -0.698   1.201  0.00  0.00    +0.020 A 
ATOM      2  C   UNL     1       0.002  -0.004   0.002  0.00  0.00    +0.122 A 
ATOM      3  C   UNL     1      -0.006  -0.689  -1.211  0.00  0.00    +0.046 A 
ATOM      4  C   UNL     1       0.017  -2.054  -1.233  0.00  0.00    +0.016 A 
ATOM      5  C   UNL     1       0.038  -2.768  -0.033  0.00  0.00    +0.026 A 
ATOM      6  C   UNL     1       0.041  -2.085   1.195  0.00  0.00    +0.144 A 
ATOM      7  O   UNL     1       0.061  -2.778   2.353  0.00  0.00    -0.422 OA
ATOM      8  C   UNL     1       0.080  -4.120   2.378  0.00  0.00    +0.338 A 
ATOM      9  O   UNL     1       0.097  -4.692   3.454  0.00  0.00    -0.245 OA
ATOM     10  C   UNL     1       0.078  -4.883   1.200  0.00  0.00    +0.101 A 
ATOM     11  C   UNL     1       0.058  -4.241  -0.027  0.00  0.00    +0.006 A 
ENDROOT
BRANCH  11  12
ATOM     12  C   UNL     1       0.057  -5.008  -1.287  0.00  0.00    +0.068 A 
ATOM     13  C   UNL     1      -1.014  -5.818  -1.617  0.00  0.00    +0.027 A 
ATOM     14  C   UNL     1      -0.974  -6.538  -2.838  0.00  0.00    +0.020 A 
ATOM     15  C   UNL     1      -2.045  -7.368  -3.203  0.00  0.00    +0.031 A 
ATOM     16  C   UNL     1      -1.998  -8.062  -4.390  0.00  0.00    +0.042 A 
ATOM     17  C   UNL     1      -0.896  -7.944  -5.227  0.00  0.00    +0.023 A 
ATOM     18  C   UNL     1       0.164  -7.133  -4.883  0.00  0.00    +0.048 A 
ATOM     19  C   UNL     1       0.140  -6.421  -3.689  0.00  0.00    +0.139 A 
ATOM     20  O   UNL     1       1.181  -5.628  -3.359  0.00  0.00    -0.422 OA
ATOM     21  C   UNL     1       1.189  -4.921  -2.216  0.00  0.00    +0.345 A 
ATOM     22  O   UNL     1       2.140  -4.210  -1.949  0.00  0.00    -0.245 OA
ATOM     23 CL   UNL     1      -3.321  -9.091  -4.843  0.00  0.00    -0.084 Cl
ENDBRANCH  11  12
BRANCH   2  24
ATOM     24  O   UNL     1      -0.016   1.353   0.009  0.00  0.00    -0.506 OA
ATOM     25  H   UNL     1       0.862   1.759   0.003  0.00  0.00    +0.292 HD
ENDBRANCH   2  24
BRANCH   1  26
ATOM     26  C   UNL     1       0.026   0.052   2.508  0.00  0.00    -0.036 C 
BRANCH  26  34
ATOM     27  C   UNL     1      -4.452  -1.918   3.022  0.00  0.00    +0.005 C 
ATOM     28  C   UNL     1      -3.621  -0.638   3.140  0.00  0.00    -0.031 C 
ATOM     29  C   UNL     1      -3.718  -0.096   4.568  0.00  0.00    +0.003 C 
ATOM     30  C   UNL     1      -2.837   1.151   4.693  0.00  0.00    -0.031 C 
ATOM     31  C   UNL     1      -1.397   0.791   4.322  0.00  0.00    -0.075 C 
ATOM     32  C   UNL     1      -2.158  -0.946   2.814  0.00  0.00    -0.075 C 
ATOM     33  C   UNL     1      -2.881   1.665   6.133  0.00  0.00    +0.005 C 
ATOM     34  N   UNL     1      -1.369   0.299   2.928  0.00  0.00    +0.383 N 
ATOM     35  H   UNL     1      -1.781   1.012   2.315  0.00  0.00    -0.081 HD
ENDBRANCH  26  34
ENDBRANCH   1  26
TORSDOF 4
