REMARK  Name = ZINC39611857
REMARK  11 active torsions:
REMARK  status: ('A' for Active; 'I' for Inactive)
REMARK    1  A    between atoms: C_1  and  C_2
REMARK    2  A    between atoms: C_2  and  C_3
REMARK    3  A    between atoms: C_2  and  C_4
REMARK    4  A    between atoms: C_4  and  C_6
REMARK    5  A    between atoms: C_4  and  N_25
REMARK    6  A    between atoms: C_6  and  O_8
REMARK    7  A    between atoms: O_8  and  C_9
REMARK    8  A    between atoms: C_9  and  C_10
REMARK    9  A    between atoms: C_12  and  O_13
REMARK   10  A    between atoms: C_22  and  C_24
REMARK   11  A    between atoms: C_26  and  C_28
REMARK                            x       y       z     vdW  Elec       q    Type
REMARK                         _______ _______ _______ _____ _____    ______ ____
ROOT
ATOM      1  O   UNL     1      -1.030  -2.368   1.336  0.00  0.00    -0.459 OA
ENDROOT
BRANCH   1   2
ATOM      2  C   UNL     1      -0.088  -1.423   1.482  0.00  0.00    +0.328 C 
ATOM      3  O   UNL     1       1.053  -1.739   1.724  0.00  0.00    -0.249 OA
BRANCH   2   4
ATOM      4  C   UNL     1      -0.454   0.033   1.347  0.00  0.00    +0.185 C 
BRANCH   4   5
ATOM      5  N   UNL     1       0.740   0.857   1.549  0.00  0.00    -0.298 N 
ATOM      6  C   UNL     1       0.616   2.131   1.973  0.00  0.00    +0.246 C 
ATOM      7  O   UNL     1      -0.487   2.595   2.187  0.00  0.00    -0.270 OA
ATOM      8  H   UNL     1       1.620   0.487   1.378  0.00  0.00    +0.150 HD
BRANCH   6   9
ATOM      9  C   UNL     1       1.820   2.962   2.177  0.00  0.00    +0.055 A 
ATOM     10  C   UNL     1       3.088   2.434   1.927  0.00  0.00    +0.014 A 
ATOM     11  C   UNL     1       4.208   3.215   2.119  0.00  0.00    +0.001 A 
ATOM     12  C   UNL     1       4.078   4.521   2.559  0.00  0.00    +0.001 A 
ATOM     13  C   UNL     1       2.826   5.052   2.811  0.00  0.00    +0.021 A 
ATOM     14  C   UNL     1       1.695   4.282   2.616  0.00  0.00    +0.053 A 
ATOM     15 CL   UNL     1       0.123   4.952   2.924  0.00  0.00    -0.083 Cl
ENDBRANCH   6   9
ENDBRANCH   4   5
BRANCH   4  17
ATOM     16  C   UNL     1      -1.390   1.766  -0.189  0.00  0.00    +0.009 C 
ATOM     17  C   UNL     1      -1.019   0.288  -0.052  0.00  0.00    +0.014 C 
ATOM     18  C   UNL     1       0.034  -0.073  -1.101  0.00  0.00    +0.009 C 
ENDBRANCH   4  17
ENDBRANCH   2   4
ENDBRANCH   1   2
BRANCH   1  19
ATOM     19  C   UNL     1      -0.613  -3.727   1.477  0.00  0.00    +0.268 C 
BRANCH  19  20
ATOM     20  C   UNL     1      -1.796  -4.639   1.281  0.00  0.00    +0.007 A 
ATOM     21  C   UNL     1      -2.558  -4.569   0.131  0.00  0.00    +0.095 A 
ATOM     22  C   UNL     1      -3.643  -5.417  -0.032  0.00  0.00    +0.285 A 
ATOM     23  O   UNL     1      -3.976  -6.311   0.905  0.00  0.00    -0.425 OA
ATOM     24  C   UNL     1      -3.266  -6.422   2.047  0.00  0.00    +0.141 A 
ATOM     25  C   UNL     1      -2.147  -5.588   2.265  0.00  0.00    +0.024 A 
ATOM     26  C   UNL     1      -1.401  -5.704   3.451  0.00  0.00    +0.014 A 
ATOM     27  C   UNL     1      -1.755  -6.623   4.387  0.00  0.00    +0.024 A 
ATOM     28  C   UNL     1      -2.864  -7.461   4.177  0.00  0.00    +0.037 A 
ATOM     29  C   UNL     1      -3.621  -7.351   3.009  0.00  0.00    +0.070 A 
ATOM     30  N   UNL     1      -3.208  -8.379   5.122  0.00  0.00    -0.286 N 
ATOM     31  C   UNL     1      -4.029  -9.364   4.817  0.00  0.00    +0.214 C 
ATOM     32  O   UNL     1      -4.383  -9.527   3.662  0.00  0.00    -0.276 OA
ATOM     33  C   UNL     1      -4.530 -10.290   5.896  0.00  0.00    +0.109 C 
ATOM     34  H   UNL     1      -2.849  -8.307   6.021  0.00  0.00    +0.155 HD
BRANCH  22  35
ATOM     35  O   UNL     1      -4.378  -5.338  -1.158  0.00  0.00    -0.480 OA
ATOM     36  H   UNL     1      -5.115  -5.964  -1.191  0.00  0.00    +0.295 HD
ENDBRANCH  22  35
ENDBRANCH  19  20
ENDBRANCH   1  19
TORSDOF 8
