REMARK  Name = ZINC65074891
REMARK  6 active torsions:
REMARK  status: ('A' for Active; 'I' for Inactive)
REMARK    1  A    between atoms: C_1  and  C_2
REMARK    2  A    between atoms: C_4  and  C_31
REMARK    3  A    between atoms: C_6  and  S_8
REMARK    4  A    between atoms: S_8  and  N_11
REMARK    5  A    between atoms: N_22  and  C_23
REMARK    6  A    between atoms: C_23  and  C_24
REMARK                            x       y       z     vdW  Elec       q    Type
REMARK                         _______ _______ _______ _____ _____    ______ ____
ROOT
ATOM      1  N   UNL     1       1.644  -3.200   3.123  0.00  0.00    -0.176 NA
ATOM      2  C   UNL     1       2.374  -4.390   2.668  0.00  0.00    +0.111 C 
ATOM      3  C   UNL     1       3.657  -3.942   1.962  0.00  0.00    +0.047 C 
ATOM      4  C   UNL     1       4.460  -3.034   2.898  0.00  0.00    +0.075 C 
ATOM      5  C   UNL     1       3.632  -1.790   3.233  0.00  0.00    +0.047 C 
ATOM      6  C   UNL     1       2.351  -2.211   3.949  0.00  0.00    +0.111 C 
ATOM      7  C   UNL     1       5.737  -2.621   2.223  0.00  0.00    +0.089 C 
ATOM      8  N   UNL     1       6.874  -2.607   2.808  0.00  0.00    -0.374 N 
ATOM      9  C   UNL     1       7.075  -2.998   4.200  0.00  0.00    +0.129 C 
ATOM     10  C   UNL     1       5.736  -3.005   4.941  0.00  0.00    +0.102 C 
ATOM     11  N   UNL     1       4.762  -3.763   4.138  0.00  0.00    -0.303 NA
ATOM     12  N   UNL     1       5.681  -2.239   0.908  0.00  0.00    -0.329 N 
ATOM     13  H   UNL     1       3.921  -3.944   4.665  0.00  0.00    +0.123 HD
ATOM     14  H   UNL     1       4.832  -2.240   0.439  0.00  0.00    +0.147 HD
ATOM     15  H   UNL     1       7.648  -2.319   2.298  0.00  0.00    +0.161 HD
ENDROOT
BRANCH   1  16
ATOM     16  S   UNL     1       0.057  -2.973   2.709  0.00  0.00    +0.061 S 
ATOM     17  O   UNL     1      -0.500  -2.110   3.691  0.00  0.00    -0.153 OA
ATOM     18  O   UNL     1      -0.479  -4.260   2.434  0.00  0.00    -0.153 OA
BRANCH  16  24
ATOM     19  C   UNL     1      -0.018   1.503   0.010  0.00  0.00    +0.044 C 
ATOM     20  C   UNL     1       0.002  -0.004   0.002  0.00  0.00    -0.048 A 
ATOM     21  C   UNL     1       0.006  -0.689  -1.199  0.00  0.00    +0.006 A 
ATOM     22  C   UNL     1       0.025  -2.071  -1.206  0.00  0.00    -0.048 A 
ATOM     23  C   UNL     1       0.040  -2.768  -0.013  0.00  0.00    +0.032 A 
ATOM     24  C   UNL     1       0.037  -2.084   1.188  0.00  0.00    +0.106 A 
ATOM     25  C   UNL     1       0.023  -0.702   1.195  0.00  0.00    +0.032 A 
ATOM     26  C   UNL     1       0.027  -2.817  -2.516  0.00  0.00    +0.044 C 
ENDBRANCH  16  24
ENDBRANCH   1  16
BRANCH  12  27
ATOM     27  C   UNL     1       6.903  -1.829   0.212  0.00  0.00    +0.138 C 
BRANCH  27  28
ATOM     28  C   UNL     1       6.570  -1.460  -1.211  0.00  0.00    -0.030 A 
ATOM     29  C   UNL     1       6.600  -2.426  -2.200  0.00  0.00    +0.008 A 
ATOM     30  C   UNL     1       6.295  -2.090  -3.505  0.00  0.00    +0.038 A 
ATOM     31  C   UNL     1       5.959  -0.785  -3.822  0.00  0.00    +0.123 A 
ATOM     32  C   UNL     1       5.928   0.182  -2.831  0.00  0.00    +0.038 A 
ATOM     33  C   UNL     1       6.229  -0.158  -1.526  0.00  0.00    +0.008 A 
ATOM     34  F   UNL     1       5.660  -0.454  -5.098  0.00  0.00    -0.205 F 
ENDBRANCH  27  28
ENDBRANCH  12  27
TORSDOF 4
