REMARK  Name = ZINC67267359
REMARK  7 active torsions:
REMARK  status: ('A' for Active; 'I' for Inactive)
REMARK    1  A    between atoms: C_1  and  N_2
REMARK    2  A    between atoms: N_2  and  C_3
REMARK    3  A    between atoms: N_2  and  C_4
REMARK    4  A    between atoms: C_4  and  C_6
REMARK    5  A    between atoms: C_4  and  C_22
REMARK    6  A    between atoms: C_6  and  N_7
REMARK    7  A    between atoms: C_8  and  C_10
REMARK                            x       y       z     vdW  Elec       q    Type
REMARK                         _______ _______ _______ _____ _____    ______ ____
ROOT
ATOM      1  N   UNL     1      -1.654   1.208  -1.514  0.00  0.00    -0.317 N 
ATOM      2  C   UNL     1      -2.182   1.821  -2.592  0.00  0.00    +0.216 C 
ATOM      3  O   UNL     1      -2.915   1.209  -3.339  0.00  0.00    -0.276 OA
ATOM      4  H   UNL     1      -1.067   1.697  -0.916  0.00  0.00    +0.149 HD
ENDROOT
BRANCH   2   5
ATOM      5  C   UNL     1      -1.861   3.268  -2.868  0.00  0.00    +0.075 C 
ATOM      6  C   UNL     1      -2.324   4.127  -1.690  0.00  0.00    +0.015 C 
ATOM      7  C   UNL     1      -1.986   5.594  -1.966  0.00  0.00    +0.036 C 
ATOM      8  C   UNL     1      -2.678   6.045  -3.248  0.00  0.00    +0.112 C 
ATOM      9  C   UNL     1      -2.246   5.181  -4.428  0.00  0.00    +0.036 C 
ATOM     10  C   UNL     1      -2.582   3.716  -4.141  0.00  0.00    +0.015 C 
ATOM     11  C   UNL     1      -4.179   5.999  -3.082  0.00  0.00    +0.244 C 
ATOM     12  O   UNL     1      -4.862   5.025  -2.846  0.00  0.00    -0.273 OA
ATOM     13  N   UNL     1      -4.600   7.270  -3.250  0.00  0.00    -0.238 N 
ATOM     14  C   UNL     1      -3.578   8.099  -3.497  0.00  0.00    +0.307 C 
ATOM     15  O   UNL     1      -3.706   9.293  -3.683  0.00  0.00    -0.252 OA
ATOM     16  N   UNL     1      -2.392   7.461  -3.515  0.00  0.00    -0.285 N 
ATOM     17  H   UNL     1      -5.528   7.548  -3.199  0.00  0.00    +0.159 HD
ATOM     18  H   UNL     1      -1.521   7.858  -3.673  0.00  0.00    +0.151 HD
ENDBRANCH   2   5
BRANCH   1  19
ATOM     19  C   UNL     1      -1.965  -0.198  -1.246  0.00  0.00    +0.089 C 
BRANCH  19  20
ATOM     20  C   UNL     1      -1.132  -0.688  -0.060  0.00  0.00    -0.049 C 
BRANCH  20  21
ATOM     21  C   UNL     1       0.339  -0.774  -0.472  0.00  0.00    -0.023 C 
ATOM     22  C   UNL     1       0.817   0.599  -0.949  0.00  0.00    +0.002 C 
ATOM     23  C   UNL     1       2.288   0.512  -1.361  0.00  0.00    +0.000 C 
ATOM     24  C   UNL     1       2.441  -0.503  -2.495  0.00  0.00    +0.000 C 
ATOM     25  C   UNL     1       1.964  -1.876  -2.018  0.00  0.00    +0.000 C 
ATOM     26  C   UNL     1       0.493  -1.790  -1.606  0.00  0.00    +0.002 C 
ENDBRANCH  20  21
BRANCH  20  28
ATOM     27  C   UNL     1      -2.693   0.395   1.404  0.00  0.00    -0.096 C 
ATOM     28  N   UNL     1      -1.272   0.253   1.059  0.00  0.00    +0.379 N 
ATOM     29  C   UNL     1      -0.535  -0.257   2.223  0.00  0.00    -0.096 C 
ATOM     30  H   UNL     1      -0.899   1.152   0.792  0.00  0.00    -0.082 HD
ENDBRANCH  20  28
ENDBRANCH  19  20
ENDBRANCH   1  19
TORSDOF 5
