REMARK  Name = ZINC39666583
REMARK  7 active torsions:
REMARK  status: ('A' for Active; 'I' for Inactive)
REMARK    1  A    between atoms: C_1  and  C_2
REMARK    2  A    between atoms: C_2  and  C_4
REMARK    3  A    between atoms: C_2  and  O_32
REMARK    4  A    between atoms: C_4  and  N_5
REMARK    5  A    between atoms: C_6  and  C_8
REMARK    6  A    between atoms: C_19  and  C_21
REMARK    7  A    between atoms: O_32  and  C_33
REMARK                            x       y       z     vdW  Elec       q    Type
REMARK                         _______ _______ _______ _____ _____    ______ ____
ROOT
ATOM      1  C   UNL     1       1.648  -4.303  -2.644  0.00  0.00    +0.100 C 
ATOM      2  C   UNL     1       0.279  -4.940  -2.975  0.00  0.00    +0.121 C 
ATOM      3  N   UNL     1       0.274  -5.069  -4.451  0.00  0.00    -0.297 N 
ATOM      4  C   UNL     1       1.657  -5.482  -4.790  0.00  0.00    +0.115 C 
ATOM      5  C   UNL     1       2.550  -4.665  -3.836  0.00  0.00    -0.004 C 
ATOM      6  C   UNL     1       3.732  -5.508  -3.368  0.00  0.00    -0.010 C 
ATOM      7  C   UNL     1       4.646  -5.805  -4.560  0.00  0.00    -0.082 C 
ATOM      8  N   UNL     1       5.119  -4.544  -5.143  0.00  0.00    +0.379 N 
ATOM      9  C   UNL     1       3.983  -3.781  -5.675  0.00  0.00    -0.082 C 
ATOM     10  C   UNL     1       3.042  -3.398  -4.530  0.00  0.00    -0.010 C 
ATOM     11  C   UNL     1      -0.756  -4.859  -5.295  0.00  0.00    +0.260 C 
ATOM     12  O   UNL     1      -0.602  -5.008  -6.489  0.00  0.00    -0.271 OA
ATOM     13  H   UNL     1       5.584  -3.999  -4.432  0.00  0.00    -0.086 HD
ATOM     14  H   UNL     1       5.768  -4.742  -5.889  0.00  0.00    -0.086 HD
ENDROOT
BRANCH  11  15
ATOM     15  C   UNL     1      -2.099  -4.440  -4.755  0.00  0.00    +0.296 C 
ATOM     16  C   UNL     1      -2.690  -5.570  -3.902  0.00  0.00    +0.283 C 
ATOM     17  O   UNL     1      -3.969  -5.145  -3.418  0.00  0.00    -0.484 OA
ATOM     18  C   UNL     1      -4.804  -4.567  -4.324  0.00  0.00    +0.162 A 
ATOM     19  C   UNL     1      -6.157  -4.465  -4.034  0.00  0.00    +0.049 A 
ATOM     20  C   UNL     1      -7.017  -3.878  -4.942  0.00  0.00    +0.004 A 
ATOM     21  C   UNL     1      -6.533  -3.393  -6.142  0.00  0.00    +0.004 A 
ATOM     22  C   UNL     1      -5.187  -3.493  -6.439  0.00  0.00    +0.049 A 
ATOM     23  C   UNL     1      -4.318  -4.082  -5.532  0.00  0.00    +0.163 A 
ATOM     24  O   UNL     1      -2.996  -4.180  -5.841  0.00  0.00    -0.473 OA
ENDBRANCH  11  15
BRANCH   1  26
ATOM     25  N   UNL     1       2.346  -2.121  -1.712  0.00  0.00    -0.312 N 
ATOM     26  C   UNL     1       1.515  -2.807  -2.521  0.00  0.00    +0.218 C 
ATOM     27  O   UNL     1       0.660  -2.221  -3.151  0.00  0.00    -0.275 OA
ATOM     28  H   UNL     1       3.030  -2.590  -1.209  0.00  0.00    +0.149 HD
BRANCH  25  29
ATOM     29  C   UNL     1       2.217  -0.667  -1.593  0.00  0.00    +0.148 C 
BRANCH  29  31
ATOM     30  C   UNL     1       3.059   1.360  -0.398  0.00  0.00    +0.053 C 
ATOM     31  C   UNL     1       3.272  -0.139  -0.619  0.00  0.00    +0.187 C 
BRANCH  31  32
ATOM     32  O   UNL     1       4.575  -0.359  -1.164  0.00  0.00    -0.486 OA
BRANCH  32  33
ATOM     33  C   UNL     1       5.607  -0.435  -0.283  0.00  0.00    +0.139 A 
ATOM     34  C   UNL     1       5.390  -0.189   1.065  0.00  0.00    +0.047 A 
ATOM     35  C   UNL     1       6.441  -0.268   1.958  0.00  0.00    +0.004 A 
ATOM     36  C   UNL     1       7.709  -0.591   1.511  0.00  0.00    +0.002 A 
ATOM     37  C   UNL     1       7.929  -0.837   0.168  0.00  0.00    +0.023 A 
ATOM     38  C   UNL     1       6.880  -0.766  -0.729  0.00  0.00    +0.083 A 
ATOM     39 CL   UNL     1       7.155  -1.081  -2.414  0.00  0.00    -0.080 Cl
ENDBRANCH  32  33
ENDBRANCH  31  32
ENDBRANCH  29  31
ENDBRANCH  25  29
ENDBRANCH   1  26
TORSDOF 6
