REMARK  Name = ZINC40981902
REMARK  13 active torsions:
REMARK  status: ('A' for Active; 'I' for Inactive)
REMARK    1  A    between atoms: C_1  and  C_2
REMARK    2  A    between atoms: C_2  and  C_3
REMARK    3  A    between atoms: C_3  and  S_4
REMARK    4  A    between atoms: S_4  and  C_5
REMARK    5  A    between atoms: C_10  and  C_26
REMARK    6  A    between atoms: C_12  and  C_16
REMARK    7  A    between atoms: C_13  and  C_15
REMARK    8  A    between atoms: N_18  and  C_19
REMARK    9  A    between atoms: C_24  and  C_25
REMARK   10  A    between atoms: C_29  and  O_32
REMARK   11  A    between atoms: O_32  and  C_33
REMARK   12  A    between atoms: C_33  and  C_34
REMARK   13  A    between atoms: C_33  and  C_35
REMARK                            x       y       z     vdW  Elec       q    Type
REMARK                         _______ _______ _______ _____ _____    ______ ____
ROOT
ATOM      1  C   UNL     1       1.981  -2.746  -2.727  0.00  0.00    +0.210 A 
ATOM      2  N   UNL     1       2.490  -1.856  -3.591  0.00  0.00    -0.187 NA
ATOM      3  C   UNL     1       3.010  -2.485  -4.610  0.00  0.00    +0.219 A 
ATOM      4  N   UNL     1       2.836  -3.816  -4.416  0.00  0.00    -0.220 N 
ATOM      5  N   UNL     1       2.180  -3.959  -3.195  0.00  0.00    -0.141 NA
ATOM      6  C   UNL     1       3.285  -4.835  -5.361  0.00  0.00    +0.177 C 
ATOM      7  C   UNL     1       4.199  -4.207  -6.380  0.00  0.00    +0.060 C 
ATOM      8  C   UNL     1       4.333  -2.881  -6.523  0.00  0.00    +0.018 C 
ATOM      9  N   UNL     1       3.649  -1.986  -5.737  0.00  0.00    -0.287 N 
ATOM     10  C   UNL     1       5.266  -2.354  -7.583  0.00  0.00    +0.061 C 
ATOM     11  H   UNL     1       3.613  -1.043  -5.960  0.00  0.00    +0.155 HD
ENDROOT
BRANCH   6  12
ATOM     12  C   UNL     1       2.091  -5.434  -6.059  0.00  0.00    -0.018 A 
ATOM     13  C   UNL     1       1.257  -4.629  -6.813  0.00  0.00    +0.009 A 
ATOM     14  C   UNL     1       0.162  -5.176  -7.453  0.00  0.00    +0.046 A 
ATOM     15  C   UNL     1      -0.101  -6.533  -7.339  0.00  0.00    +0.121 A 
ATOM     16  C   UNL     1       0.738  -7.338  -6.582  0.00  0.00    +0.046 A 
ATOM     17  C   UNL     1       1.835  -6.788  -5.948  0.00  0.00    +0.009 A 
BRANCH  15  18
ATOM     18  O   UNL     1      -1.178  -7.073  -7.968  0.00  0.00    -0.489 OA
BRANCH  18  19
ATOM     19  C   UNL     1      -1.931  -6.210  -8.822  0.00  0.00    +0.167 C 
ATOM     20  C   UNL     1      -2.659  -7.045  -9.878  0.00  0.00    +0.051 C 
ATOM     21  C   UNL     1      -2.955  -5.435  -7.990  0.00  0.00    +0.051 C 
ENDBRANCH  18  19
ENDBRANCH  15  18
ENDBRANCH   6  12
BRANCH   7  22
ATOM     22  C   UNL     1       4.952  -5.056  -7.224  0.00  0.00    +0.248 C 
ATOM     23  O   UNL     1       5.974  -5.573  -6.813  0.00  0.00    -0.270 OA
ATOM     24  N   UNL     1       4.536  -5.293  -8.485  0.00  0.00    -0.281 N 
ATOM     25  H   UNL     1       3.757  -4.832  -8.834  0.00  0.00    +0.155 HD
BRANCH  24  26
ATOM     26  C   UNL     1       5.229  -6.204  -9.289  0.00  0.00    +0.037 A 
ATOM     27  C   UNL     1       6.608  -6.323  -9.178  0.00  0.00    +0.023 A 
ATOM     28  C   UNL     1       7.288  -7.223  -9.974  0.00  0.00    +0.002 A 
ATOM     29  C   UNL     1       6.598  -8.005 -10.882  0.00  0.00    +0.000 A 
ATOM     30  C   UNL     1       5.225  -7.889 -10.995  0.00  0.00    +0.005 A 
ATOM     31  C   UNL     1       4.538  -6.995 -10.198  0.00  0.00    -0.029 A 
ATOM     32  C   UNL     1       3.040  -6.874 -10.318  0.00  0.00    +0.045 C 
ENDBRANCH  24  26
ENDBRANCH   7  22
BRANCH   1  33
ATOM     33  S   UNL     1       1.182  -2.354  -1.206  0.00  0.00    -0.084 S 
BRANCH  33  34
ATOM     34  C   UNL     1       1.225  -0.542  -1.142  0.00  0.00    +0.077 C 
BRANCH  34  36
ATOM     35  C   UNL     1       0.591   1.468   0.200  0.00  0.00    +0.004 C 
ATOM     36  C   UNL     1       0.554  -0.061   0.146  0.00  0.00    +0.008 C 
ENDBRANCH  34  36
ENDBRANCH  33  34
ENDBRANCH   1  33
TORSDOF 8
