REMARK  Name = ZINC44908137
REMARK  11 active torsions:
REMARK  status: ('A' for Active; 'I' for Inactive)
REMARK    1  A    between atoms: C_1  and  C_2
REMARK    2  A    between atoms: C_2  and  C_3
REMARK    3  A    between atoms: C_2  and  C_4
REMARK    4  A    between atoms: C_2  and  C_5
REMARK    5  A    between atoms: N_11  and  S_28
REMARK    6  A    between atoms: C_13  and  C_16
REMARK    7  A    between atoms: N_18  and  C_19
REMARK    8  A    between atoms: C_19  and  C_20
REMARK    9  A    between atoms: C_20  and  C_21
REMARK   10  A    between atoms: C_21  and  N_22
REMARK   11  A    between atoms: S_28  and  C_31
REMARK                            x       y       z     vdW  Elec       q    Type
REMARK                         _______ _______ _______ _____ _____    ______ ____
ROOT
ATOM      1  C   UNL     1       0.602   0.205  -1.529  0.00  0.00    -0.040 A 
ATOM      2  C   UNL     1      -0.119  -0.589  -2.402  0.00  0.00    +0.008 A 
ATOM      3  C   UNL     1       0.524  -1.267  -3.421  0.00  0.00    +0.048 A 
ATOM      4  C   UNL     1       1.898  -1.153  -3.573  0.00  0.00    +0.144 A 
ATOM      5  C   UNL     1       2.622  -0.355  -2.691  0.00  0.00    +0.093 A 
ATOM      6  C   UNL     1       1.972   0.328  -1.675  0.00  0.00    +0.032 A 
ATOM      7  N   UNL     1       4.014  -0.242  -2.836  0.00  0.00    -0.200 N 
ATOM      8  C   UNL     1       4.612  -0.720  -4.094  0.00  0.00    +0.185 C 
ATOM      9  C   UNL     1       3.927  -2.045  -4.460  0.00  0.00    +0.277 C 
ATOM     10  O   UNL     1       2.521  -1.819  -4.581  0.00  0.00    -0.476 OA
ENDROOT
BRANCH   1  12
ATOM     11  C   UNL     1       0.114   2.446  -0.588  0.00  0.00    +0.015 C 
ATOM     12  C   UNL     1      -0.106   0.941  -0.422  0.00  0.00    -0.013 C 
ATOM     13  C   UNL     1       0.452   0.490   0.929  0.00  0.00    +0.015 C 
ATOM     14  C   UNL     1      -1.604   0.636  -0.482  0.00  0.00    +0.015 C 
ENDBRANCH   1  12
BRANCH   9  15
ATOM     15  C   UNL     1       4.474  -2.551  -5.769  0.00  0.00    +0.255 C 
ATOM     16  O   UNL     1       3.751  -2.630  -6.739  0.00  0.00    -0.272 OA
ATOM     17  N   UNL     1       5.768  -2.917  -5.862  0.00  0.00    -0.312 N 
ATOM     18  H   UNL     1       6.347  -2.855  -5.087  0.00  0.00    +0.149 HD
BRANCH  17  19
ATOM     19  C   UNL     1       6.300  -3.410  -7.136  0.00  0.00    +0.102 C 
BRANCH  19  20
ATOM     20  C   UNL     1       7.782  -3.754  -6.970  0.00  0.00    +0.000 C 
BRANCH  20  21
ATOM     21  C   UNL     1       8.338  -4.268  -8.300  0.00  0.00    -0.077 C 
BRANCH  21  22
ATOM     22  N   UNL     1       9.760  -4.598  -8.141  0.00  0.00    +0.380 N 
ATOM     23  C   UNL     1      10.514  -3.375  -7.843  0.00  0.00    -0.079 C 
ATOM     24  C   UNL     1      11.984  -3.724  -7.596  0.00  0.00    -0.019 C 
ATOM     25  C   UNL     1      12.562  -4.389  -8.849  0.00  0.00    -0.004 C 
ATOM     26  C   UNL     1      11.722  -5.623  -9.193  0.00  0.00    -0.019 C 
ATOM     27  C   UNL     1      10.262  -5.203  -9.380  0.00  0.00    -0.079 C 
ATOM     28  H   UNL     1       9.870  -5.253  -7.380  0.00  0.00    -0.082 HD
ENDBRANCH  21  22
ENDBRANCH  20  21
ENDBRANCH  19  20
ENDBRANCH  17  19
ENDBRANCH   9  15
BRANCH   7  29
ATOM     29  S   UNL     1       4.950   0.404  -1.633  0.00  0.00    +0.043 S 
ATOM     30  O   UNL     1       4.303   0.025  -0.426  0.00  0.00    -0.155 OA
ATOM     31  O   UNL     1       6.268  -0.044  -1.920  0.00  0.00    -0.155 OA
ATOM     32  C   UNL     1       4.836   2.199  -1.867  0.00  0.00    +0.218 C 
ENDBRANCH   7  29
TORSDOF 7
