REMARK  Name = ZINC36604093
REMARK  9 active torsions:
REMARK  status: ('A' for Active; 'I' for Inactive)
REMARK    1  A    between atoms: C_4  and  C_7
REMARK    2  A    between atoms: C_8  and  C_9
REMARK    3  A    between atoms: C_8  and  C_15
REMARK    4  A    between atoms: N_17  and  C_18
REMARK    5  A    between atoms: N_17  and  C_24
REMARK    6  A    between atoms: C_24  and  C_26
REMARK    7  A    between atoms: C_24  and  C_33
REMARK    8  A    between atoms: C_31  and  O_32
REMARK    9  A    between atoms: N_35  and  C_36
REMARK                            x       y       z     vdW  Elec       q    Type
REMARK                         _______ _______ _______ _____ _____    ______ ____
ROOT
ATOM      1  C   UNL     1       2.761  -3.146  -0.091  0.00  0.00    +0.252 C 
ATOM      2  O   UNL     1       3.889  -2.730   0.093  0.00  0.00    -0.270 OA
ATOM      3  N   UNL     1       2.409  -4.364   0.366  0.00  0.00    -0.251 N 
ENDROOT
BRANCH   3   4
ATOM      4  C   UNL     1       3.301  -5.101   1.151  0.00  0.00    +0.038 A 
ATOM      5  C   UNL     1       4.490  -4.525   1.580  0.00  0.00    +0.023 A 
ATOM      6  C   UNL     1       5.369  -5.256   2.354  0.00  0.00    +0.002 A 
ATOM      7  C   UNL     1       5.066  -6.559   2.704  0.00  0.00    +0.000 A 
ATOM      8  C   UNL     1       3.884  -7.136   2.278  0.00  0.00    +0.002 A 
ATOM      9  C   UNL     1       2.997  -6.408   1.508  0.00  0.00    +0.023 A 
ENDBRANCH   3   4
BRANCH   1  11
ATOM     10  C   UNL     1       0.731  -1.771  -0.148  0.00  0.00    +0.021 C 
ATOM     11  C   UNL     1       1.782  -2.320  -0.815  0.00  0.00    +0.045 C 
BRANCH  10  15
ATOM     12  C   UNL     1       0.554  -1.994   4.082  0.00  0.00    +0.000 A 
ATOM     13  C   UNL     1       1.779  -1.868   3.450  0.00  0.00    +0.001 A 
ATOM     14  C   UNL     1       1.846  -1.794   2.075  0.00  0.00    +0.008 A 
ATOM     15  C   UNL     1       0.670  -1.848   1.318  0.00  0.00    -0.024 A 
ATOM     16  C   UNL     1      -0.565  -1.976   1.965  0.00  0.00    +0.008 A 
ATOM     17  C   UNL     1      -0.613  -2.048   3.341  0.00  0.00    +0.001 A 
ENDBRANCH  10  15
BRANCH  11  18
ATOM     18  C   UNL     1       1.940  -2.087  -2.269  0.00  0.00    -0.013 A 
ATOM     19  C   UNL     1       1.810  -3.146  -3.166  0.00  0.00    +0.008 A 
ATOM     20  C   UNL     1       1.958  -2.923  -4.519  0.00  0.00    +0.001 A 
ATOM     21  C   UNL     1       2.235  -1.650  -4.987  0.00  0.00    +0.000 A 
ATOM     22  C   UNL     1       2.365  -0.595  -4.102  0.00  0.00    +0.001 A 
ATOM     23  C   UNL     1       2.213  -0.805  -2.747  0.00  0.00    +0.008 A 
ENDBRANCH  11  18
ENDBRANCH   1  11
BRANCH   3  24
ATOM     24  C   UNL     1       1.091  -4.915   0.042  0.00  0.00    +0.201 C 
BRANCH  24  25
ATOM     25  C   UNL     1       1.252  -6.093  -0.883  0.00  0.00    +0.024 A 
ATOM     26  C   UNL     1       2.488  -6.695  -1.026  0.00  0.00    +0.009 A 
ATOM     27  C   UNL     1       2.637  -7.776  -1.875  0.00  0.00    +0.001 A 
ATOM     28  C   UNL     1       1.551  -8.257  -2.583  0.00  0.00    +0.004 A 
ATOM     29  C   UNL     1       0.314  -7.659  -2.444  0.00  0.00    +0.046 A 
ATOM     30  C   UNL     1       0.160  -6.577  -1.588  0.00  0.00    +0.122 A 
BRANCH  30  31
ATOM     31  O   UNL     1      -1.057  -5.990  -1.445  0.00  0.00    -0.506 OA
ATOM     32  H   UNL     1      -1.223  -5.271  -2.070  0.00  0.00    +0.292 HD
ENDBRANCH  30  31
ENDBRANCH  24  25
BRANCH  24  33
ATOM     33  C   UNL     1       0.407  -5.361   1.309  0.00  0.00    +0.239 C 
ATOM     34  O   UNL     1       0.966  -5.232   2.378  0.00  0.00    -0.273 OA
ATOM     35  N   UNL     1      -0.825  -5.904   1.255  0.00  0.00    -0.311 N 
ATOM     36  H   UNL     1      -1.272  -6.008   0.400  0.00  0.00    +0.149 HD
BRANCH  35  37
ATOM     37  C   UNL     1      -1.489  -6.338   2.486  0.00  0.00    +0.073 C 
ATOM     38  C   UNL     1      -1.039  -7.758   2.836  0.00  0.00    +0.022 C 
ATOM     39  C   UNL     1      -1.732  -8.211   4.122  0.00  0.00    +0.002 C 
ATOM     40  C   UNL     1      -3.249  -8.193   3.917  0.00  0.00    +0.000 C 
ATOM     41  C   UNL     1      -3.699  -6.773   3.568  0.00  0.00    +0.002 C 
ATOM     42  C   UNL     1      -3.005  -6.320   2.282  0.00  0.00    +0.022 C 
ENDBRANCH  35  37
ENDBRANCH  24  33
ENDBRANCH   3  24
TORSDOF 9
