REMARK  Name = ZINC08780783
REMARK  9 active torsions:
REMARK  status: ('A' for Active; 'I' for Inactive)
REMARK    1  A    between atoms: C_1  and  O_2
REMARK    2  A    between atoms: O_2  and  C_3
REMARK    3  A    between atoms: C_5  and  O_28
REMARK    4  A    between atoms: C_8  and  C_9
REMARK    5  A    between atoms: N_10  and  N_11
REMARK    6  A    between atoms: C_12  and  C_14
REMARK    7  A    between atoms: C_19  and  C_20
REMARK    8  A    between atoms: C_19  and  N_55
REMARK    9  A    between atoms: O_28  and  C_29
REMARK                            x       y       z     vdW  Elec       q    Type
REMARK                         _______ _______ _______ _____ _____    ______ ____
ROOT
ATOM      1  N   UNL     1      -7.927  -1.176   1.156  0.00  0.00    -0.207 N 
ATOM      2  C   UNL     1      -8.524  -1.956   0.234  0.00  0.00    +0.235 C 
ATOM      3  O   UNL     1      -7.907  -2.318  -0.746  0.00  0.00    -0.274 OA
ATOM      4  H   UNL     1      -8.420  -0.887   1.939  0.00  0.00    +0.177 HD
ENDROOT
BRANCH   2   5
ATOM      5  C   UNL     1      -9.958  -2.380   0.419  0.00  0.00    +0.073 C 
ATOM      6  C   UNL     1     -10.090  -3.184   1.716  0.00  0.00    -0.006 C 
ATOM      7  C   UNL     1     -11.536  -3.662   1.868  0.00  0.00    -0.078 C 
ATOM      8  C   UNL     1     -11.827  -3.731  -0.537  0.00  0.00    -0.078 C 
ATOM      9  C   UNL     1     -10.390  -3.255  -0.761  0.00  0.00    -0.006 C 
ATOM     10  N   UNL     1     -11.882  -4.519   0.713  0.00  0.00    +0.382 N 
ATOM     11  H   UNL     1     -11.203  -5.287   0.653  0.00  0.00    -0.081 HD
BRANCH  10  12
ATOM     12  C   UNL     1     -13.234  -5.086   0.893  0.00  0.00    -0.043 C 
BRANCH  12  13
ATOM     13  C   UNL     1     -13.204  -6.055   2.047  0.00  0.00    -0.064 A 
ATOM     14  C   UNL     1     -12.904  -7.386   1.825  0.00  0.00    +0.003 A 
ATOM     15  C   UNL     1     -12.871  -8.274   2.883  0.00  0.00    +0.020 A 
ATOM     16  C   UNL     1     -13.149  -7.832   4.165  0.00  0.00    +0.041 A 
ATOM     17  C   UNL     1     -13.455  -6.501   4.386  0.00  0.00    +0.020 A 
ATOM     18  C   UNL     1     -13.482  -5.613   3.328  0.00  0.00    +0.003 A 
ATOM     19 CL   UNL     1     -13.114  -8.948   5.494  0.00  0.00    -0.084 Cl
ENDBRANCH  12  13
ENDBRANCH  10  12
ENDBRANCH   2   5
BRANCH   1  21
ATOM     20  C   UNL     1      -6.018  -0.030   1.872  0.00  0.00    +0.142 C 
ATOM     21  N   UNL     1      -6.593  -0.782   0.983  0.00  0.00    -0.188 NA
BRANCH  20  27
ATOM     22  C   UNL     1      -3.900  -0.033   0.559  0.00  0.00    +0.132 A 
ATOM     23  C   UNL     1      -2.585   0.364   0.393  0.00  0.00    +0.093 A 
ATOM     24  C   UNL     1      -1.974   1.163   1.348  0.00  0.00    +0.137 A 
ATOM     25  C   UNL     1      -2.682   1.578   2.471  0.00  0.00    +0.060 A 
ATOM     26  C   UNL     1      -3.994   1.193   2.645  0.00  0.00    +0.032 A 
ATOM     27  C   UNL     1      -4.616   0.384   1.690  0.00  0.00    +0.037 A 
ATOM     28 BR   UNL     1      -1.842   2.673   3.764  0.00  0.00    -0.046 Br
BRANCH  22  30
ATOM     29  C   UNL     1      -3.706  -1.206  -1.499  0.00  0.00    +0.277 C 
ATOM     30  O   UNL     1      -4.497  -0.820  -0.373  0.00  0.00    -0.494 OA
ENDBRANCH  22  30
BRANCH  24  31
ATOM     31  O   UNL     1      -0.682   1.547   1.184  0.00  0.00    -0.494 OA
ATOM     32  C   UNL     1      -0.013   1.086   0.008  0.00  0.00    +0.277 C 
ENDBRANCH  24  31
ENDBRANCH  20  27
ENDBRANCH   1  21
TORSDOF 7
