REMARK  Name = ZINC09881527
REMARK  11 active torsions:
REMARK  status: ('A' for Active; 'I' for Inactive)
REMARK    1  A    between atoms: C_1  and  C_2
REMARK    2  A    between atoms: C_2  and  C_4
REMARK    3  A    between atoms: C_2  and  S_16
REMARK    4  A    between atoms: N_6  and  C_7
REMARK    5  A    between atoms: C_10  and  N_13
REMARK    6  A    between atoms: N_13  and  C_14
REMARK    7  A    between atoms: N_13  and  C_15
REMARK    8  A    between atoms: S_16  and  C_17
REMARK    9  A    between atoms: C_20  and  C_29
REMARK   10  A    between atoms: N_21  and  C_22
REMARK   11  A    between atoms: C_29  and  N_65
REMARK                            x       y       z     vdW  Elec       q    Type
REMARK                         _______ _______ _______ _____ _____    ______ ____
ROOT
ATOM      1  C   UNL     1      -0.053  -0.023   0.360  0.00  0.00    +0.197 A 
ATOM      2  N   UNL     1      -0.035   1.280   0.201  0.00  0.00    -0.122 NA
ATOM      3  N   UNL     1       1.177   1.707   0.217  0.00  0.00    -0.135 NA
ATOM      4  C   UNL     1       2.001   0.711   0.386  0.00  0.00    +0.122 A 
ATOM      5  N   UNL     1       1.248  -0.429   0.484  0.00  0.00    -0.276 N 
ENDROOT
BRANCH   5   6
ATOM      6  C   UNL     1       1.714  -1.739   0.671  0.00  0.00    +0.050 A 
ATOM      7  C   UNL     1       2.366  -2.083   1.847  0.00  0.00    +0.029 A 
ATOM      8  C   UNL     1       2.820  -3.374   2.032  0.00  0.00    +0.040 A 
ATOM      9  C   UNL     1       2.633  -4.323   1.041  0.00  0.00    +0.124 A 
ATOM     10  C   UNL     1       1.987  -3.981  -0.135  0.00  0.00    +0.040 A 
ATOM     11  C   UNL     1       1.527  -2.691  -0.321  0.00  0.00    +0.029 A 
ATOM     12  F   UNL     1       3.083  -5.584   1.221  0.00  0.00    -0.205 F 
ENDBRANCH   5   6
BRANCH   1  13
ATOM     13  S   UNL     1      -1.480  -1.055   0.406  0.00  0.00    -0.073 S 
BRANCH  13  15
ATOM     14  C   UNL     1      -2.788   1.136   1.382  0.00  0.00    +0.029 C 
ATOM     15  C   UNL     1      -2.775   0.190   0.180  0.00  0.00    +0.137 C 
BRANCH  15  16
ATOM     16  C   UNL     1      -4.113  -0.492   0.062  0.00  0.00    +0.230 C 
ATOM     17  O   UNL     1      -4.281  -1.588   0.555  0.00  0.00    -0.274 OA
ATOM     18  N   UNL     1      -5.124   0.115  -0.590  0.00  0.00    -0.285 N 
ATOM     19  H   UNL     1      -5.015   1.021  -0.918  0.00  0.00    +0.155 HD
BRANCH  18  20
ATOM     20  C   UNL     1      -6.333  -0.564  -0.795  0.00  0.00    +0.034 A 
ATOM     21  C   UNL     1      -6.333  -1.937  -0.997  0.00  0.00    +0.025 A 
ATOM     22  C   UNL     1      -7.524  -2.607  -1.193  0.00  0.00    +0.025 A 
ATOM     23  C   UNL     1      -8.722  -1.904  -1.201  0.00  0.00    +0.029 A 
ATOM     24  C   UNL     1      -8.722  -0.529  -1.005  0.00  0.00    +0.025 A 
ATOM     25  C   UNL     1      -7.531   0.139  -0.803  0.00  0.00    +0.025 A 
BRANCH  23  26
ATOM     26  N   UNL     1      -9.929  -2.582  -1.405  0.00  0.00    -0.336 N 
ATOM     27  C   UNL     1     -11.193  -1.841  -1.412  0.00  0.00    +0.129 C 
ATOM     28  C   UNL     1      -9.929  -4.032  -1.611  0.00  0.00    +0.129 C 
ENDBRANCH  23  26
ENDBRANCH  18  20
ENDBRANCH  15  16
ENDBRANCH  13  15
ENDBRANCH   1  13
BRANCH   4  29
ATOM     29  C   UNL     1       3.503   0.798   0.460  0.00  0.00    -0.001 C 
BRANCH  29  35
ATOM     30  C   UNL     1       3.818  -0.685  -1.427  0.00  0.00    -0.078 C 
ATOM     31  C   UNL     1       4.290  -0.749  -2.882  0.00  0.00    -0.019 C 
ATOM     32  C   UNL     1       5.786  -0.426  -2.942  0.00  0.00    -0.004 C 
ATOM     33  C   UNL     1       6.026   0.957  -2.331  0.00  0.00    -0.019 C 
ATOM     34  C   UNL     1       5.504   0.972  -0.893  0.00  0.00    -0.078 C 
ATOM     35  N   UNL     1       4.055   0.678  -0.905  0.00  0.00    +0.384 N 
ATOM     36  H   UNL     1       3.583   1.355  -1.516  0.00  0.00    -0.081 HD
ENDBRANCH  29  35
ENDBRANCH   4  29
TORSDOF 8
