REMARK  Name = ZINC17177813
REMARK  5 active torsions:
REMARK  status: ('A' for Active; 'I' for Inactive)
REMARK    1  A    between atoms: C_5  and  C_7
REMARK    2  A    between atoms: C_7  and  S_8
REMARK    3  A    between atoms: S_8  and  C_9
REMARK    4  A    between atoms: C_14  and  C_24
REMARK    5  A    between atoms: C_27  and  N_30
REMARK                            x       y       z     vdW  Elec       q    Type
REMARK                         _______ _______ _______ _____ _____    ______ ____
ROOT
ATOM      1  C   UNL     1       1.275  -4.553   1.506  0.00  0.00    +0.211 A 
ATOM      2  N   UNL     1       1.278  -5.218   0.341  0.00  0.00    -0.187 NA
ATOM      3  C   UNL     1       1.293  -6.502   0.572  0.00  0.00    +0.219 A 
ATOM      4  N   UNL     1       1.306  -6.689   1.915  0.00  0.00    -0.220 N 
ATOM      5  N   UNL     1       1.296  -5.422   2.495  0.00  0.00    -0.141 NA
ATOM      6  C   UNL     1       1.336  -8.005   2.541  0.00  0.00    +0.175 C 
ATOM      7  C   UNL     1       1.009  -9.072   1.520  0.00  0.00    +0.041 C 
ATOM      8  C   UNL     1       1.003  -8.819   0.194  0.00  0.00    +0.020 C 
ATOM      9  N   UNL     1       1.294  -7.573  -0.307  0.00  0.00    -0.287 N 
ATOM     10  C   UNL     1       0.665  -9.903  -0.802  0.00  0.00    +0.052 C 
ATOM     11  C   UNL     1       1.104 -11.262  -0.253  0.00  0.00    +0.014 C 
ATOM     12  C   UNL     1       0.391 -11.496   1.083  0.00  0.00    +0.080 C 
ATOM     13  C   UNL     1       0.708 -10.356   2.010  0.00  0.00    +0.163 C 
ATOM     14  O   UNL     1       0.705 -10.548   3.211  0.00  0.00    -0.292 OA
ATOM     15  H   UNL     1       1.495  -7.446  -1.247  0.00  0.00    +0.155 HD
ENDROOT
BRANCH   6  16
ATOM     16  C   UNL     1       2.711  -8.260   3.103  0.00  0.00    -0.018 A 
ATOM     17  C   UNL     1       3.812  -8.256   2.267  0.00  0.00    +0.008 A 
ATOM     18  C   UNL     1       5.073  -8.489   2.783  0.00  0.00    +0.033 A 
ATOM     19  C   UNL     1       5.233  -8.727   4.136  0.00  0.00    +0.126 A 
ATOM     20  C   UNL     1       4.132  -8.730   4.972  0.00  0.00    +0.033 A 
ATOM     21  C   UNL     1       2.872  -8.492   4.457  0.00  0.00    +0.008 A 
BRANCH  19  22
ATOM     22  N   UNL     1       6.583  -8.978   4.688  0.00  0.00    +0.056 N 
ATOM     23  O   UNL     1       7.546  -8.975   3.957  0.00  0.00    -0.126 OA
ATOM     24  O   UNL     1       6.723  -9.185   5.871  0.00  0.00    -0.126 OA
ENDBRANCH  19  22
ENDBRANCH   6  16
BRANCH   1  25
ATOM     25  S   UNL     1       1.253  -2.800   1.685  0.00  0.00    -0.080 S 
BRANCH  25  26
ATOM     26  C   UNL     1       1.228  -2.186  -0.022  0.00  0.00    +0.115 C 
BRANCH  26  31
ATOM     27  C   UNL     1      -0.017   1.378   0.010  0.00  0.00    +0.000 A 
ATOM     28  C   UNL     1       1.171   2.087   0.002  0.00  0.00    +0.003 A 
ATOM     29  C   UNL     1       2.377   1.414  -0.013  0.00  0.00    +0.038 A 
ATOM     30  C   UNL     1       2.397   0.029  -0.021  0.00  0.00    +0.127 A 
ATOM     31  C   UNL     1       1.208  -0.679  -0.013  0.00  0.00    -0.002 A 
ATOM     32  C   UNL     1       0.002  -0.004   0.002  0.00  0.00    +0.007 A 
ATOM     33  F   UNL     1       3.577  -0.630  -0.036  0.00  0.00    -0.205 F 
ENDBRANCH  26  31
ENDBRANCH  25  26
ENDBRANCH   1  25
TORSDOF 5
