REMARK  Name = ZINC12371447
REMARK  8 active torsions:
REMARK  status: ('A' for Active; 'I' for Inactive)
REMARK    1  A    between atoms: C_1  and  O_2
REMARK    2  A    between atoms: O_2  and  C_3
REMARK    3  A    between atoms: C_9  and  C_13
REMARK    4  A    between atoms: C_13  and  C_14
REMARK    5  A    between atoms: C_14  and  N_15
REMARK    6  A    between atoms: N_15  and  C_16
REMARK    7  A    between atoms: N_21  and  C_24
REMARK    8  A    between atoms: C_29  and  C_30
REMARK                            x       y       z     vdW  Elec       q    Type
REMARK                         _______ _______ _______ _____ _____    ______ ____
ROOT
ATOM      1  N   UNL     1      -0.691  -6.775   1.433  0.00  0.00    +0.387 N 
ATOM      2  H   UNL     1      -1.179  -7.563   1.033  0.00  0.00    -0.085 HD
ATOM      3  H   UNL     1       0.129  -6.573   0.881  0.00  0.00    -0.085 HD
ENDROOT
BRANCH   1   4
ATOM      4  C   UNL     1      -0.289  -7.095   2.809  0.00  0.00    +0.026 C 
ATOM      5  C   UNL     1       0.700  -8.279   2.824  0.00  0.00    +0.090 C 
ATOM      6  C   UNL     1      -0.027  -9.337   3.626  0.00  0.00    +0.225 C 
ATOM      7  O   UNL     1       0.402 -10.442   3.882  0.00  0.00    -0.275 OA
ATOM      8  N   UNL     1      -1.218  -8.860   4.007  0.00  0.00    -0.211 N 
ATOM      9  C   UNL     1      -1.471  -7.605   3.604  0.00  0.00    +0.213 C 
ATOM     10  O   UNL     1      -2.482  -6.979   3.838  0.00  0.00    -0.277 OA
BRANCH   8  11
ATOM     11  C   UNL     1      -2.127  -9.609   4.768  0.00  0.00    +0.055 A 
ATOM     12  C   UNL     1      -2.088  -9.551   6.154  0.00  0.00    +0.024 A 
ATOM     13  C   UNL     1      -2.985 -10.290   6.901  0.00  0.00    +0.002 A 
ATOM     14  C   UNL     1      -3.921 -11.087   6.268  0.00  0.00    +0.001 A 
ATOM     15  C   UNL     1      -3.962 -11.148   4.887  0.00  0.00    +0.014 A 
ATOM     16  C   UNL     1      -3.072 -10.406   4.136  0.00  0.00    +0.077 A 
BRANCH  16  17
ATOM     17  C   UNL     1      -3.121 -10.468   2.631  0.00  0.00    +0.419 C 
ATOM     18  F   UNL     1      -4.148 -11.331   2.232  0.00  0.00    -0.166 F 
ATOM     19  F   UNL     1      -3.363  -9.188   2.119  0.00  0.00    -0.166 F 
ATOM     20  F   UNL     1      -1.898 -10.941   2.143  0.00  0.00    -0.166 F 
ENDBRANCH  16  17
ENDBRANCH   8  11
ENDBRANCH   1   4
BRANCH   1  21
ATOM     21  C   UNL     1      -1.577  -5.603   1.442  0.00  0.00    -0.077 C 
BRANCH  21  22
ATOM     22  C   UNL     1      -1.996  -5.270   0.008  0.00  0.00    +0.018 C 
BRANCH  22  29
ATOM     23  C   UNL     1      -1.201  -0.638   0.010  0.00  0.00    +0.121 A 
ATOM     24  C   UNL     1      -2.377   0.107   0.019  0.00  0.00    +0.047 A 
ATOM     25  C   UNL     1      -3.604  -0.518   0.027  0.00  0.00    +0.030 A 
ATOM     26  C   UNL     1      -3.676  -1.907   0.026  0.00  0.00    +0.047 A 
ATOM     27  C   UNL     1      -2.490  -2.663   0.016  0.00  0.00    +0.006 A 
ATOM     28  C   UNL     1      -1.251  -2.017   0.003  0.00  0.00    +0.056 A 
ATOM     29  C   UNL     1      -2.904  -4.068   0.017  0.00  0.00    -0.024 A 
ATOM     30  C   UNL     1      -4.247  -4.082   0.027  0.00  0.00    +0.087 A 
ATOM     31  N   UNL     1      -4.726  -2.801   0.032  0.00  0.00    -0.360 N 
ATOM     32  H   UNL     1      -5.665  -2.557   0.040  0.00  0.00    +0.165 HD
BRANCH  23  34
ATOM     33  C   UNL     1      -0.017   1.425   0.010  0.00  0.00    +0.277 C 
ATOM     34  O   UNL     1       0.002  -0.004   0.002  0.00  0.00    -0.495 OA
ENDBRANCH  23  34
ENDBRANCH  22  29
ENDBRANCH  21  22
ENDBRANCH   1  21
TORSDOF 7
