REMARK  Name = ZINC33308949
REMARK  8 active torsions:
REMARK  status: ('A' for Active; 'I' for Inactive)
REMARK    1  A    between atoms: C_1  and  C_2
REMARK    2  A    between atoms: C_2  and  C_3
REMARK    3  A    between atoms: C_2  and  C_4
REMARK    4  A    between atoms: C_7  and  O_10
REMARK    5  A    between atoms: O_10  and  C_11
REMARK    6  A    between atoms: N_14  and  C_21
REMARK    7  A    between atoms: C_21  and  C_22
REMARK    8  A    between atoms: N_24  and  C_25
REMARK                            x       y       z     vdW  Elec       q    Type
REMARK                         _______ _______ _______ _____ _____    ______ ____
ROOT
ATOM      1  C   UNL     1       6.771   7.212   1.924  0.00  0.00    +0.266 A 
ATOM      2  C   UNL     1       5.585   6.826   1.151  0.00  0.00    +0.224 A 
ATOM      3  N   UNL     1       4.403   6.379   1.487  0.00  0.00    -0.143 NA
ATOM      4  N   UNL     1       3.669   6.176   0.310  0.00  0.00    -0.203 N 
ATOM      5  C   UNL     1       4.456   6.529  -0.728  0.00  0.00    +0.352 A 
ATOM      6  O   UNL     1       4.150   6.490  -1.907  0.00  0.00    -0.244 OA
ATOM      7  N   UNL     1       5.639   6.931  -0.229  0.00  0.00    -0.245 N 
ATOM      8  C   UNL     1       6.801   7.393  -0.813  0.00  0.00    +0.117 A 
ATOM      9  C   UNL     1       7.854   7.732  -0.055  0.00  0.00    +0.133 A 
ATOM     10  N   UNL     1       7.835   7.642   1.282  0.00  0.00    -0.216 NA
ENDROOT
BRANCH   1  11
ATOM     11  O   UNL     1       6.770   7.128   3.276  0.00  0.00    -0.435 OA
BRANCH  11  15
ATOM     12  C   UNL     1      10.064   8.553   5.309  0.00  0.00    -0.045 A 
ATOM     13  C   UNL     1       9.262   9.426   4.597  0.00  0.00    +0.007 A 
ATOM     14  C   UNL     1       8.158   8.951   3.915  0.00  0.00    +0.046 A 
ATOM     15  C   UNL     1       7.855   7.597   3.945  0.00  0.00    +0.131 A 
ATOM     16  C   UNL     1       8.659   6.725   4.665  0.00  0.00    +0.046 A 
ATOM     17  C   UNL     1       9.764   7.204   5.340  0.00  0.00    +0.007 A 
BRANCH  12  19
ATOM     18  C   UNL     1      11.122   8.762   7.542  0.00  0.00    +0.012 C 
ATOM     19  C   UNL     1      11.268   9.074   6.051  0.00  0.00    +0.013 C 
ATOM     20  C   UNL     1      12.531   8.400   5.511  0.00  0.00    +0.012 C 
ENDBRANCH  12  19
ENDBRANCH  11  15
ENDBRANCH   1  11
BRANCH   4  21
ATOM     21  C   UNL     1       2.294   5.678   0.222  0.00  0.00    +0.244 C 
BRANCH  21  22
ATOM     22  C   UNL     1       2.311   4.175   0.110  0.00  0.00    +0.239 C 
ATOM     23  O   UNL     1       3.367   3.579   0.104  0.00  0.00    -0.273 OA
ATOM     24  N   UNL     1       1.151   3.494   0.017  0.00  0.00    -0.284 N 
ATOM     25  H   UNL     1       0.200   4.037  -0.074  0.00  0.00    +0.155 HD
BRANCH  24  26
ATOM     26  C   UNL     1       1.159   2.094   0.037  0.00  0.00    +0.034 A 
ATOM     27  C   UNL     1       2.192   1.413   0.667  0.00  0.00    +0.024 A 
ATOM     28  C   UNL     1       2.197   0.032   0.685  0.00  0.00    +0.017 A 
ATOM     29  C   UNL     1       1.173  -0.673   0.076  0.00  0.00    +0.018 A 
ATOM     30  C   UNL     1       0.143   0.004  -0.552  0.00  0.00    +0.017 A 
ATOM     31  C   UNL     1       0.133   1.384  -0.574  0.00  0.00    +0.024 A 
ATOM     32 BR   UNL     1       1.184  -2.563   0.102  0.00  0.00    -0.050 Br
ENDBRANCH  24  26
ENDBRANCH  21  22
ENDBRANCH   4  21
TORSDOF 6
