REMARK  Name = ZINC02768536
REMARK  14 active torsions:
REMARK  status: ('A' for Active; 'I' for Inactive)
REMARK    1  A    between atoms: C_1  and  C_2
REMARK    2  A    between atoms: C_2  and  C_3
REMARK    3  A    between atoms: C_15  and  C_34
REMARK    4  A    between atoms: C_22  and  C_24
REMARK    5  A    between atoms: C_27  and  O_32
REMARK    6  A    between atoms: C_28  and  O_30
REMARK    7  A    between atoms: O_30  and  C_31
REMARK    8  A    between atoms: O_32  and  C_33
REMARK    9  A    between atoms: C_36  and  O_44
REMARK   10  A    between atoms: C_37  and  O_42
REMARK   11  A    between atoms: C_38  and  O_40
REMARK   12  A    between atoms: O_40  and  C_41
REMARK   13  A    between atoms: O_42  and  C_43
REMARK   14  A    between atoms: O_44  and  C_45
REMARK                            x       y       z     vdW  Elec       q    Type
REMARK                         _______ _______ _______ _____ _____    ______ ____
ROOT
ATOM      1  C   UNL     1       8.822   3.544   1.866  0.00  0.00    +0.220 C 
ATOM      2  O   UNL     1       8.987   4.246   0.891  0.00  0.00    -0.275 OA
ATOM      3  N   UNL     1       7.581   3.137   2.201  0.00  0.00    -0.261 N 
ATOM      4  C   UNL     1       7.381   2.327   3.325  0.00  0.00    +0.058 A 
ATOM      5  C   UNL     1       7.599   2.804   4.605  0.00  0.00    +0.025 A 
ATOM      6  C   UNL     1       7.358   1.986   5.695  0.00  0.00    +0.002 A 
ATOM      7  C   UNL     1       6.900   0.694   5.512  0.00  0.00    +0.002 A 
ATOM      8  C   UNL     1       6.688   0.204   4.236  0.00  0.00    +0.025 A 
ATOM      9  C   UNL     1       6.933   1.012   3.141  0.00  0.00    +0.053 A 
ATOM     10  N   UNL     1       6.752   0.555   1.832  0.00  0.00    -0.316 N 
ATOM     11  C   UNL     1       5.786   1.165   1.021  0.00  0.00    +0.017 C 
ATOM     12  C   UNL     1       4.630   0.560   0.896  0.00  0.00    +0.001 C 
ATOM     13  C   UNL     1       3.495   1.048   0.049  0.00  0.00    +0.050 C 
ATOM     14  C   UNL     1       3.560   2.573  -0.084  0.00  0.00    +0.087 C 
ATOM     15  C   UNL     1       4.967   2.933  -0.506  0.00  0.00    +0.145 C 
ATOM     16  O   UNL     1       5.164   3.584  -1.504  0.00  0.00    -0.297 OA
ATOM     17  C   UNL     1       6.118   2.464   0.347  0.00  0.00    +0.124 C 
ATOM     18  C   UNL     1       6.426   3.538   1.394  0.00  0.00    +0.127 C 
ATOM     19  H   UNL     1       7.289  -0.176   1.489  0.00  0.00    +0.152 HD
ENDROOT
BRANCH  18  20
ATOM     20  C   UNL     1       5.227   3.715   2.290  0.00  0.00    -0.022 A 
ATOM     21  C   UNL     1       4.396   4.807   2.122  0.00  0.00    +0.009 A 
ATOM     22  C   UNL     1       3.296   4.975   2.942  0.00  0.00    +0.050 A 
ATOM     23  C   UNL     1       3.023   4.047   3.934  0.00  0.00    +0.162 A 
ATOM     24  C   UNL     1       3.860   2.948   4.103  0.00  0.00    +0.162 A 
ATOM     25  C   UNL     1       4.958   2.783   3.275  0.00  0.00    +0.055 A 
BRANCH  24  26
ATOM     26  O   UNL     1       3.596   2.034   5.076  0.00  0.00    -0.491 OA
ATOM     27  C   UNL     1       4.556   0.992   5.264  0.00  0.00    +0.277 C 
ENDBRANCH  24  26
BRANCH  23  28
ATOM     28  O   UNL     1       1.941   4.211   4.742  0.00  0.00    -0.491 OA
ATOM     29  C   UNL     1       1.069   5.302   4.444  0.00  0.00    +0.277 C 
ENDBRANCH  23  28
ENDBRANCH  18  20
BRANCH  13  30
ATOM     30  C   UNL     1       2.188   0.656   0.689  0.00  0.00    -0.033 A 
ATOM     31  C   UNL     1       1.105   0.321  -0.103  0.00  0.00    +0.054 A 
ATOM     32  C   UNL     1      -0.099  -0.039   0.483  0.00  0.00    +0.165 A 
ATOM     33  C   UNL     1      -0.217  -0.063   1.867  0.00  0.00    +0.204 A 
ATOM     34  C   UNL     1       0.872   0.281   2.660  0.00  0.00    +0.165 A 
ATOM     35  C   UNL     1       2.075   0.634   2.067  0.00  0.00    +0.054 A 
BRANCH  34  36
ATOM     36  O   UNL     1       0.760   0.264   4.015  0.00  0.00    -0.491 OA
ATOM     37  C   UNL     1       1.872   0.760   4.764  0.00  0.00    +0.277 C 
ENDBRANCH  34  36
BRANCH  33  38
ATOM     38  O   UNL     1      -1.397  -0.415   2.446  0.00  0.00    -0.488 OA
ATOM     39  C   UNL     1      -1.591  -1.802   2.732  0.00  0.00    +0.277 C 
ENDBRANCH  33  38
BRANCH  32  40
ATOM     40  O   UNL     1      -1.163  -0.370  -0.297  0.00  0.00    -0.491 OA
ATOM     41  C   UNL     1      -0.970  -0.324  -1.712  0.00  0.00    +0.277 C 
ENDBRANCH  32  40
ENDBRANCH  13  30
BRANCH   1  43
ATOM     42  C   UNL     1      11.283   3.720   2.110  0.00  0.00    +0.013 C 
ATOM     43  C   UNL     1      10.003   3.127   2.703  0.00  0.00    +0.093 C 
ENDBRANCH   1  43
TORSDOF 8
