REMARK  Name = ZINC10645119
REMARK  8 active torsions:
REMARK  status: ('A' for Active; 'I' for Inactive)
REMARK    1  A    between atoms: C_1  and  C_2
REMARK    2  A    between atoms: C_4  and  C_29
REMARK    3  A    between atoms: C_8  and  N_28
REMARK    4  A    between atoms: C_9  and  C_11
REMARK    5  A    between atoms: C_11  and  O_13
REMARK    6  A    between atoms: O_13  and  C_14
REMARK    7  A    between atoms: C_14  and  C_16
REMARK    8  A    between atoms: C_14  and  C_17
REMARK                            x       y       z     vdW  Elec       q    Type
REMARK                         _______ _______ _______ _____ _____    ______ ____
ROOT
ATOM      1  C   UNL     1      -0.593   2.601  -1.515  0.00  0.00    +0.348 C 
ATOM      2  O   UNL     1      -0.524   3.802  -1.700  0.00  0.00    -0.244 OA
ENDROOT
BRANCH   1  11
ATOM      3  C   UNL     1       4.876   2.737  -2.345  0.00  0.00    +0.044 C 
ATOM      4  C   UNL     1       4.307   1.370  -2.061  0.00  0.00    -0.037 A 
ATOM      5  C   UNL     1       5.128   0.267  -2.022  0.00  0.00    +0.027 A 
ATOM      6  C   UNL     1       4.602  -0.989  -1.761  0.00  0.00    +0.040 A 
ATOM      7  N   UNL     1       3.309  -1.141  -1.547  0.00  0.00    -0.245 NA
ATOM      8  C   UNL     1       2.484  -0.117  -1.573  0.00  0.00    +0.111 A 
ATOM      9  C   UNL     1       2.919   1.203  -1.830  0.00  0.00    +0.032 A 
ATOM     10  C   UNL     1       1.872   2.212  -1.821  0.00  0.00    +0.056 A 
ATOM     11  C   UNL     1       0.578   1.809  -1.569  0.00  0.00    +0.119 A 
ATOM     12  S   UNL     1       0.732   0.049  -1.336  0.00  0.00    -0.060 S 
ATOM     13  C   UNL     1       5.513  -2.189  -1.722  0.00  0.00    +0.065 C 
BRANCH  10  14
ATOM     14  N   UNL     1       2.167   3.546  -2.060  0.00  0.00    -0.356 N 
ATOM     15  H   UNL     1       1.528   4.109  -2.524  0.00  0.00    +0.142 HD
ATOM     16  H   UNL     1       3.013   3.916  -1.763  0.00  0.00    +0.142 HD
ENDBRANCH  10  14
ENDBRANCH   1  11
BRANCH   1  17
ATOM     17  O   UNL     1      -1.787   2.025  -1.258  0.00  0.00    -0.448 OA
BRANCH  17  18
ATOM     18  C   UNL     1      -2.927   2.886  -1.219  0.00  0.00    +0.259 C 
ATOM     19  C   UNL     1      -3.129   3.399   0.208  0.00  0.00    +0.062 C 
BRANCH  18  20
ATOM     20  C   UNL     1      -4.149   2.120  -1.656  0.00  0.00    +0.260 C 
ATOM     21  O   UNL     1      -4.098   0.914  -1.777  0.00  0.00    -0.271 OA
ATOM     22  N   UNL     1      -5.299   2.775  -1.911  0.00  0.00    -0.268 N 
ATOM     23  C   UNL     1      -5.449   4.233  -1.931  0.00  0.00    +0.118 C 
ATOM     24  C   UNL     1      -6.928   4.481  -2.269  0.00  0.00    +0.056 C 
ATOM     25  C   UNL     1      -7.524   3.099  -2.411  0.00  0.00    -0.024 A 
ATOM     26  C   UNL     1      -6.525   2.164  -2.191  0.00  0.00    +0.040 A 
ATOM     27  C   UNL     1      -6.839   0.806  -2.269  0.00  0.00    +0.024 A 
ATOM     28  C   UNL     1      -8.126   0.405  -2.561  0.00  0.00    +0.002 A 
ATOM     29  C   UNL     1      -9.115   1.347  -2.779  0.00  0.00    +0.000 A 
ATOM     30  C   UNL     1      -8.811   2.693  -2.704  0.00  0.00    +0.005 A 
ENDBRANCH  18  20
ENDBRANCH  17  18
ENDBRANCH   1  17
TORSDOF 5
