REMARK  Name = ZINC36630850
REMARK  8 active torsions:
REMARK  status: ('A' for Active; 'I' for Inactive)
REMARK    1  A    between atoms: C_1  and  C_2
REMARK    2  A    between atoms: C_4  and  C_36
REMARK    3  A    between atoms: N_8  and  C_33
REMARK    4  A    between atoms: N_10  and  C_11
REMARK    5  A    between atoms: C_11  and  C_13
REMARK    6  A    between atoms: C_16  and  S_19
REMARK    7  A    between atoms: S_19  and  N_22
REMARK    8  A    between atoms: C_33  and  C_34
REMARK                            x       y       z     vdW  Elec       q    Type
REMARK                         _______ _______ _______ _____ _____    ______ ____
ROOT
ATOM      1  C   UNL     1       0.239  -6.743   4.894  0.00  0.00    +0.039 A 
ATOM      2  C   UNL     1       0.121  -7.961   4.226  0.00  0.00    +0.015 A 
ATOM      3  C   UNL     1       0.163  -9.142   4.937  0.00  0.00    +0.029 A 
ATOM      4  C   UNL     1       0.321  -9.120   6.311  0.00  0.00    +0.109 A 
ATOM      5  C   UNL     1       0.438  -7.915   6.981  0.00  0.00    +0.029 A 
ATOM      6  C   UNL     1       0.405  -6.727   6.279  0.00  0.00    +0.015 A 
ENDROOT
BRANCH   4   7
ATOM      7  S   UNL     1       0.372 -10.633   7.213  0.00  0.00    +0.075 S 
ATOM      8  O   UNL     1      -0.019 -10.326   8.544  0.00  0.00    -0.150 OA
ATOM      9  O   UNL     1      -0.306 -11.600   6.423  0.00  0.00    -0.150 OA
BRANCH   7  10
ATOM     10  N   UNL     1       1.958 -11.107   7.284  0.00  0.00    -0.203 N 
ATOM     11  C   UNL     1       2.500 -12.050   6.296  0.00  0.00    +0.132 C 
ATOM     12  C   UNL     1       3.339 -13.089   7.051  0.00  0.00    +0.025 C 
ATOM     13  C   UNL     1       4.517 -12.381   7.719  0.00  0.00    +0.038 C 
ATOM     14  C   UNL     1       4.036 -11.203   8.525  0.00  0.00    -0.025 A 
ATOM     15  C   UNL     1       2.804 -10.612   8.282  0.00  0.00    +0.054 A 
ATOM     16  C   UNL     1       2.393  -9.519   9.037  0.00  0.00    +0.025 A 
ATOM     17  C   UNL     1       3.213  -9.018  10.029  0.00  0.00    +0.002 A 
ATOM     18  C   UNL     1       4.442  -9.604  10.270  0.00  0.00    +0.000 A 
ATOM     19  C   UNL     1       4.849 -10.699   9.525  0.00  0.00    +0.005 A 
ENDBRANCH   7  10
ENDBRANCH   4   7
BRANCH   1  20
ATOM     20  C   UNL     1       0.196  -5.471   4.136  0.00  0.00    +0.269 C 
ATOM     21  O   UNL     1       0.304  -4.408   4.723  0.00  0.00    -0.268 OA
BRANCH  20  31
ATOM     22  C   UNL     1      -7.328  -5.085   2.331  0.00  0.00    +0.044 C 
ATOM     23  C   UNL     1      -5.925  -5.243   1.805  0.00  0.00    -0.048 A 
ATOM     24  C   UNL     1      -5.724  -5.432   0.448  0.00  0.00    +0.008 A 
ATOM     25  C   UNL     1      -4.435  -5.576  -0.034  0.00  0.00    -0.034 A 
ATOM     26  C   UNL     1      -3.376  -5.530   0.842  0.00  0.00    +0.042 A 
ATOM     27  C   UNL     1      -3.550  -5.340   2.220  0.00  0.00    +0.058 A 
ATOM     28  C   UNL     1      -4.865  -5.191   2.681  0.00  0.00    +0.030 A 
ATOM     29  N   UNL     1      -2.367  -5.321   2.934  0.00  0.00    -0.317 N 
ATOM     30  C   UNL     1      -1.184  -5.480   2.286  0.00  0.00    +0.167 A 
ATOM     31  N   UNL     1       0.037  -5.489   2.809  0.00  0.00    -0.152 NA
ATOM     32  S   UNL     1      -1.615  -5.663   0.672  0.00  0.00    -0.052 S 
ATOM     33  C   UNL     1      -4.194  -5.784  -1.507  0.00  0.00    +0.045 C 
BRANCH  29  34
ATOM     34  C   UNL     1      -2.389  -5.131   4.387  0.00  0.00    +0.151 C 
BRANCH  34  35
ATOM     35  C   UNL     1      -2.182  -3.672   4.705  0.00  0.00    -0.013 C 
ATOM     36  C   UNL     1      -3.043  -3.039   5.463  0.00  0.00    +0.005 C 
ENDBRANCH  34  35
ENDBRANCH  29  34
ENDBRANCH  20  31
ENDBRANCH   1  20
TORSDOF 6
