REMARK  Name = ZINC36647975
REMARK  8 active torsions:
REMARK  status: ('A' for Active; 'I' for Inactive)
REMARK    1  A    between atoms: C_1  and  N_2
REMARK    2  A    between atoms: N_2  and  C_3
REMARK    3  A    between atoms: N_2  and  C_4
REMARK    4  A    between atoms: C_4  and  C_5
REMARK    5  A    between atoms: C_5  and  N_6
REMARK    6  A    between atoms: C_18  and  C_20
REMARK    7  A    between atoms: N_25  and  S_27
REMARK    8  A    between atoms: S_27  and  C_30
REMARK                            x       y       z     vdW  Elec       q    Type
REMARK                         _______ _______ _______ _____ _____    ______ ____
ROOT
ATOM      1  N   UNL     1      -2.816  -2.150   0.101  0.00  0.00    -0.252 N 
ATOM      2  C   UNL     1      -3.718  -2.028  -0.945  0.00  0.00    +0.168 A 
ATOM      3  N   UNL     1      -3.528  -1.526  -2.141  0.00  0.00    -0.221 NA
ATOM      4  C   UNL     1      -4.509  -1.471  -3.070  0.00  0.00    +0.116 A 
ATOM      5  C   UNL     1      -4.436  -0.957  -4.388  0.00  0.00    +0.152 A 
ATOM      6  C   UNL     1      -5.535  -0.977  -5.209  0.00  0.00    +0.079 A 
ATOM      7  C   UNL     1      -6.751  -1.496  -4.782  0.00  0.00    +0.127 A 
ATOM      8  C   UNL     1      -6.856  -2.006  -3.499  0.00  0.00    +0.055 A 
ATOM      9  C   UNL     1      -5.760  -1.991  -2.671  0.00  0.00    +0.046 A 
ATOM     10  S   UNL     1      -5.434  -2.523  -1.007  0.00  0.00    -0.052 S 
ATOM     11  F   UNL     1      -7.819  -1.503  -5.609  0.00  0.00    -0.205 F 
ATOM     12  F   UNL     1      -3.272  -0.443  -4.841  0.00  0.00    -0.203 F 
ATOM     13  C   UNL     1      -3.239  -2.567   1.311  0.00  0.00    +0.226 C 
ATOM     14  O   UNL     1      -2.435  -2.776   2.195  0.00  0.00    -0.275 OA
ENDROOT
BRANCH  13  15
ATOM     15  C   UNL     1      -4.709  -2.775   1.565  0.00  0.00    +0.091 C 
ATOM     16  C   UNL     1      -5.105  -4.192   1.145  0.00  0.00    +0.015 C 
ATOM     17  C   UNL     1      -6.606  -4.393   1.372  0.00  0.00    +0.018 C 
ATOM     18  C   UNL     1      -6.920  -4.225   2.862  0.00  0.00    +0.109 C 
ATOM     19  N   UNL     1      -6.411  -2.921   3.308  0.00  0.00    -0.175 NA
ATOM     20  C   UNL     1      -5.002  -2.588   3.057  0.00  0.00    +0.122 C 
BRANCH  19  21
ATOM     21  S   UNL     1      -7.407  -1.845   4.079  0.00  0.00    +0.067 S 
ATOM     22  O   UNL     1      -6.845  -0.556   3.878  0.00  0.00    -0.152 OA
ATOM     23  O   UNL     1      -8.734  -2.168   3.686  0.00  0.00    -0.152 OA
BRANCH  21  24
ATOM     24  C   UNL     1      -7.298  -2.180   5.805  0.00  0.00    +0.143 A 
ATOM     25  C   UNL     1      -6.449  -1.656   6.724  0.00  0.00    +0.036 A 
ATOM     26  C   UNL     1      -6.547  -2.070   8.039  0.00  0.00    +0.010 A 
ATOM     27  C   UNL     1      -7.488  -2.988   8.371  0.00  0.00    +0.047 A 
ATOM     28  S   UNL     1      -8.280  -3.290   6.800  0.00  0.00    -0.077 S 
ENDBRANCH  21  24
ENDBRANCH  19  21
ENDBRANCH  13  15
BRANCH   1  29
ATOM     29  C   UNL     1      -1.403  -1.825  -0.110  0.00  0.00    +0.097 C 
BRANCH  29  30
ATOM     30  C   UNL     1      -1.170  -0.343   0.192  0.00  0.00    -0.060 C 
BRANCH  30  32
ATOM     31  C   UNL     1       0.422   1.447   0.077  0.00  0.00    -0.097 C 
ATOM     32  N   UNL     1       0.228   0.002  -0.097  0.00  0.00    +0.377 N 
ATOM     33  C   UNL     1       1.112  -0.726   0.823  0.00  0.00    -0.097 C 
ATOM     34  H   UNL     1       0.448  -0.255  -1.048  0.00  0.00    -0.083 HD
ENDBRANCH  30  32
ENDBRANCH  29  30
ENDBRANCH   1  29
TORSDOF 6
