REMARK  Name = ZINC38655776
REMARK  7 active torsions:
REMARK  status: ('A' for Active; 'I' for Inactive)
REMARK    1  A    between atoms: C_4  and  C_7
REMARK    2  A    between atoms: C_8  and  C_9
REMARK    3  A    between atoms: C_9  and  O_11
REMARK    4  A    between atoms: O_11  and  C_12
REMARK    5  A    between atoms: C_19  and  N_33
REMARK    6  A    between atoms: C_20  and  C_31
REMARK    7  A    between atoms: C_21  and  C_23
REMARK                            x       y       z     vdW  Elec       q    Type
REMARK                         _______ _______ _______ _____ _____    ______ ____
ROOT
ATOM      1  C   UNL     1       6.176  -4.792  -0.119  0.00  0.00    +0.135 A 
ATOM      2  C   UNL     1       7.394  -4.127  -0.085  0.00  0.00    +0.047 A 
ATOM      3  C   UNL     1       8.573  -4.843  -0.136  0.00  0.00    +0.012 A 
ATOM      4  C   UNL     1       8.546  -6.224  -0.220  0.00  0.00    +0.008 A 
ATOM      5  C   UNL     1       7.333  -6.894  -0.254  0.00  0.00    +0.138 A 
ATOM      6  C   UNL     1       6.146  -6.174  -0.198  0.00  0.00    +0.093 A 
ATOM      7  O   UNL     1       7.287  -8.246  -0.336  0.00  0.00    -0.441 OA
ATOM      8  C   UNL     1       8.361  -8.929  -0.767  0.00  0.00    +0.199 C 
ATOM      9  C   UNL     1       9.602  -8.388  -0.763  0.00  0.00    +0.098 C 
ATOM     10  C   UNL     1       9.843  -6.988  -0.273  0.00  0.00    +0.098 C 
ENDROOT
BRANCH  10  11
ATOM     11  C   UNL     1      10.449  -7.039   1.105  0.00  0.00    -0.033 A 
ATOM     12  C   UNL     1       9.756  -7.634   2.143  0.00  0.00    +0.006 A 
ATOM     13  C   UNL     1      10.311  -7.681   3.408  0.00  0.00    +0.022 A 
ATOM     14  C   UNL     1      11.560  -7.133   3.637  0.00  0.00    +0.059 A 
ATOM     15  C   UNL     1      12.254  -6.537   2.597  0.00  0.00    +0.060 A 
ATOM     16  C   UNL     1      11.700  -6.495   1.331  0.00  0.00    +0.026 A 
ATOM     17 CL   UNL     1      13.822  -5.848   2.882  0.00  0.00    -0.082 Cl
ATOM     18 CL   UNL     1      12.257  -7.191   5.226  0.00  0.00    -0.082 Cl
ENDBRANCH  10  11
BRANCH   8  19
ATOM     19  N   UNL     1       8.195 -10.213  -1.223  0.00  0.00    -0.328 N 
ATOM     20  H   UNL     1       7.312 -10.614  -1.231  0.00  0.00    +0.145 HD
ATOM     21  H   UNL     1       8.960 -10.718  -1.537  0.00  0.00    +0.145 HD
ENDBRANCH   8  19
BRANCH   9  22
ATOM     22  C   UNL     1      10.707  -9.166  -1.236  0.00  0.00    +0.101 C 
ATOM     23  N   UNL     1      11.584  -9.783  -1.610  0.00  0.00    -0.191 NA
ENDBRANCH   9  22
BRANCH   1  24
ATOM     24  O   UNL     1       5.014  -4.087  -0.070  0.00  0.00    -0.423 OA
BRANCH  24  25
ATOM     25  C   UNL     1       4.604  -3.463  -1.193  0.00  0.00    +0.337 C 
ATOM     26  O   UNL     1       5.311  -3.465  -2.183  0.00  0.00    -0.245 OA
BRANCH  25  28
ATOM     27  C   UNL     1       2.899  -2.159  -2.344  0.00  0.00    +0.015 C 
ATOM     28  C   UNL     1       3.309  -2.784  -1.221  0.00  0.00    +0.092 C 
BRANCH  27  32
ATOM     29  C   UNL     1      -0.857  -0.190  -2.424  0.00  0.00    +0.000 A 
ATOM     30  C   UNL     1      -0.055  -0.189  -3.552  0.00  0.00    +0.001 A 
ATOM     31  C   UNL     1       1.167  -0.827  -3.534  0.00  0.00    +0.008 A 
ATOM     32  C   UNL     1       1.596  -1.475  -2.372  0.00  0.00    -0.025 A 
ATOM     33  C   UNL     1       0.780  -1.471  -1.236  0.00  0.00    +0.008 A 
ATOM     34  C   UNL     1      -0.440  -0.829  -1.270  0.00  0.00    +0.001 A 
ENDBRANCH  27  32
ENDBRANCH  25  28
ENDBRANCH  24  25
ENDBRANCH   1  24
TORSDOF 7
