REMARK  Name = ZINC64137850
REMARK  8 active torsions:
REMARK  status: ('A' for Active; 'I' for Inactive)
REMARK    1  A    between atoms: C_4  and  N_7
REMARK    2  A    between atoms: C_8  and  S_16
REMARK    3  A    between atoms: C_12  and  C_13
REMARK    4  A    between atoms: S_16  and  C_17
REMARK    5  A    between atoms: C_17  and  C_18
REMARK    6  A    between atoms: N_20  and  C_21
REMARK    7  A    between atoms: C_21  and  C_22
REMARK    8  A    between atoms: C_22  and  C_23
REMARK                            x       y       z     vdW  Elec       q    Type
REMARK                         _______ _______ _______ _____ _____    ______ ____
ROOT
ATOM      1  C   UNL     1       4.976   0.149   2.647  0.00  0.00    +0.168 C 
ENDROOT
BRANCH   1   2
ATOM      2  C   UNL     1       5.144   1.033   3.856  0.00  0.00    +0.223 C 
ATOM      3  O   UNL     1       5.385   2.213   3.716  0.00  0.00    -0.275 OA
ATOM      4  N   UNL     1       5.027   0.511   5.093  0.00  0.00    -0.314 N 
ATOM      5  H   UNL     1       4.834  -0.433   5.205  0.00  0.00    +0.149 HD
BRANCH   4   6
ATOM      6  C   UNL     1       5.191   1.370   6.269  0.00  0.00    +0.108 C 
BRANCH   6   7
ATOM      7  C   UNL     1       5.010   0.536   7.539  0.00  0.00    +0.052 C 
BRANCH   7   8
ATOM      8  C   UNL     1       5.178   1.419   8.748  0.00  0.00    -0.040 C 
ATOM      9  C   UNL     1       4.198   2.032   9.450  0.00  0.00    -0.001 A 
ATOM     10  C   UNL     1       2.738   2.059   9.304  0.00  0.00    +0.010 A 
ATOM     11  C   UNL     1       2.004   2.780  10.181  0.00  0.00    +0.001 A 
ATOM     12  C   UNL     1       2.602   3.501  11.225  0.00  0.00    +0.002 A 
ATOM     13  C   UNL     1       3.936   3.524  11.424  0.00  0.00    +0.026 A 
ATOM     14  C   UNL     1       4.805   2.801  10.561  0.00  0.00    +0.043 A 
ATOM     15  N   UNL     1       6.109   2.668  10.545  0.00  0.00    -0.380 N 
ATOM     16  C   UNL     1       6.477   1.795   9.426  0.00  0.00    +0.144 C 
ATOM     17  H   UNL     1       6.727   3.077  11.172  0.00  0.00    +0.160 HD
ENDBRANCH   7   8
ENDBRANCH   6   7
ENDBRANCH   4   6
ENDBRANCH   1   2
BRANCH   1  18
ATOM     18  S   UNL     1       5.190   1.138   1.141  0.00  0.00    -0.108 S 
BRANCH  18  20
ATOM     19  N   UNL     1       3.618  -0.659  -0.137  0.00  0.00    -0.258 N 
ATOM     20  C   UNL     1       4.960  -0.056  -0.205  0.00  0.00    +0.241 C 
ATOM     21  N   UNL     1       5.869  -1.204  -0.043  0.00  0.00    -0.237 N 
ATOM     22  N   UNL     1       5.050  -2.331   0.099  0.00  0.00    -0.173 NA
ATOM     23  C   UNL     1       3.806  -2.020   0.051  0.00  0.00    +0.125 C 
ATOM     24  H   UNL     1       6.839  -1.184  -0.037  0.00  0.00    +0.171 HD
BRANCH  19  28
ATOM     25  C   UNL     1      -0.027   1.333  -0.434  0.00  0.00    +0.000 A 
ATOM     26  C   UNL     1       0.339   0.737   0.760  0.00  0.00    +0.002 A 
ATOM     27  C   UNL     1       1.546   0.076   0.862  0.00  0.00    +0.023 A 
ATOM     28  C   UNL     1       2.395   0.009  -0.236  0.00  0.00    +0.037 A 
ATOM     29  C   UNL     1       2.025   0.609  -1.434  0.00  0.00    +0.023 A 
ATOM     30  C   UNL     1       0.816   1.269  -1.529  0.00  0.00    +0.002 A 
ENDBRANCH  19  28
BRANCH  23  31
ATOM     31  C   UNL     1       2.683  -3.017   0.181  0.00  0.00    +0.055 C 
ATOM     32  C   UNL     1       2.806  -4.082   1.273  0.00  0.00    +0.012 C 
ATOM     33  C   UNL     1       2.980  -4.469  -0.197  0.00  0.00    +0.012 C 
ENDBRANCH  23  31
ENDBRANCH  18  20
ENDBRANCH   1  18
TORSDOF 8
