REMARK  Name = ZINC63395784
REMARK  3 active torsions:
REMARK  status: ('A' for Active; 'I' for Inactive)
REMARK    1  A    between atoms: C_1  and  C_2
REMARK    2  A    between atoms: N_10  and  C_11
REMARK    3  A    between atoms: C_14  and  O_27
REMARK                            x       y       z     vdW  Elec       q    Type
REMARK                         _______ _______ _______ _____ _____    ______ ____
ROOT
ATOM      1  C   UNL     1       0.202  -6.979   0.698  0.00  0.00    +0.283 C 
ATOM      2  O   UNL     1       0.215  -8.292   1.021  0.00  0.00    -0.265 OA
ATOM      3  C   UNL     1       0.295  -6.591  -0.627  0.00  0.00    +0.113 C 
ATOM      4  C   UNL     1       0.299  -7.629  -1.736  0.00  0.00    +0.187 C 
ATOM      5  C   UNL     1       0.404  -7.088  -3.143  0.00  0.00    +0.007 A 
ATOM      6  C   UNL     1       0.419  -7.899  -4.255  0.00  0.00    +0.008 A 
ATOM      7  C   UNL     1       0.518  -7.321  -5.512  0.00  0.00    +0.001 A 
ATOM      8  C   UNL     1       0.600  -5.946  -5.657  0.00  0.00    +0.005 A 
ATOM      9  C   UNL     1       0.585  -5.136  -4.540  0.00  0.00    -0.024 A 
ATOM     10  C   UNL     1       0.486  -5.718  -3.295  0.00  0.00    +0.046 A 
ATOM     11  N   UNL     1       0.478  -4.820  -2.245  0.00  0.00    -0.267 N 
ATOM     12  C   UNL     1       0.381  -5.237  -0.966  0.00  0.00    +0.255 C 
ATOM     13  O   UNL     1       0.372  -4.405  -0.074  0.00  0.00    -0.270 OA
ATOM     14  C   UNL     1       0.582  -3.458  -2.803  0.00  0.00    +0.119 C 
ATOM     15  C   UNL     1       0.654  -3.642  -4.331  0.00  0.00    +0.056 C 
ENDROOT
BRANCH   1  25
ATOM     16  C   UNL     1       0.211  -7.960   9.157  0.00  0.00    +0.044 C 
ATOM     17  C   UNL     1       0.189  -7.917   7.651  0.00  0.00    -0.049 A 
ATOM     18  C   UNL     1       0.176  -9.090   6.916  0.00  0.00    +0.005 A 
ATOM     19  C   UNL     1       0.154  -9.071   5.542  0.00  0.00    +0.027 A 
ATOM     20  C   UNL     1       0.146  -7.855   4.837  0.00  0.00    +0.055 A 
ATOM     21  C   UNL     1       0.159  -6.684   5.610  0.00  0.00    +0.039 A 
ATOM     22  C   UNL     1       0.175  -6.704   6.984  0.00  0.00    +0.020 A 
ATOM     23  S   UNL     1       0.142  -5.389   4.394  0.00  0.00    -0.050 S 
ATOM     24  C   UNL     1       0.118  -6.418   2.936  0.00  0.00    +0.175 A 
ATOM     25  N   UNL     1       0.100  -6.053   1.661  0.00  0.00    -0.184 NA
ATOM     26  N   UNL     1       0.125  -7.676   3.466  0.00  0.00    -0.333 N 
ATOM     27  H   UNL     1       0.115  -8.447   2.878  0.00  0.00    +0.168 HD
ENDBRANCH   1  25
BRANCH   4  28
ATOM     28  O   UNL     1       1.401  -8.512  -1.517  0.00  0.00    -0.382 OA
ATOM     29  H   UNL     1       1.367  -8.981  -0.672  0.00  0.00    +0.211 HD
ENDBRANCH   4  28
TORSDOF 2
