REMARK  Name = ZINC09138448
REMARK  6 active torsions:
REMARK  status: ('A' for Active; 'I' for Inactive)
REMARK    1  A    between atoms: C_1  and  N_2
REMARK    2  A    between atoms: C_11  and  S_12
REMARK    3  A    between atoms: S_12  and  C_13
REMARK    4  A    between atoms: C_13  and  C_14
REMARK    5  A    between atoms: N_16  and  C_17
REMARK    6  A    between atoms: C_20  and  N_24
REMARK                            x       y       z     vdW  Elec       q    Type
REMARK                         _______ _______ _______ _____ _____    ______ ____
ROOT
ATOM      1  S   UNL     1      -2.937   1.445  -0.309  0.00  0.00    -0.078 S 
ENDROOT
BRANCH   1  12
ATOM      2  C   UNL     1      -0.019   1.046   0.017  0.00  0.00    +0.154 C 
ATOM      3  N   UNL     1      -0.705   1.516   1.224  0.00  0.00    -0.290 N 
ATOM      4  C   UNL     1       0.006   1.730   2.346  0.00  0.00    +0.263 A 
ATOM      5  O   UNL     1       1.210   1.535   2.364  0.00  0.00    -0.267 OA
ATOM      6  C   UNL     1      -0.673   2.189   3.519  0.00  0.00    +0.076 A 
ATOM      7  C   UNL     1      -0.097   2.483   4.841  0.00  0.00    -0.023 A 
ATOM      8  C   UNL     1      -0.945   2.907   5.792  0.00  0.00    -0.004 A 
ATOM      9  S   UNL     1      -2.540   2.939   5.006  0.00  0.00    -0.073 S 
ATOM     10  C   UNL     1      -2.056   2.381   3.393  0.00  0.00    +0.117 A 
ATOM     11  N   UNL     1      -2.700   2.152   2.255  0.00  0.00    -0.216 NA
ATOM     12  C   UNL     1      -2.052   1.734   1.187  0.00  0.00    +0.173 A 
ATOM     13  C   UNL     1      -0.246   3.181   7.096  0.00  0.00    +0.043 C 
ATOM     14  C   UNL     1       1.249   3.281   6.721  0.00  0.00    +0.010 C 
ATOM     15  C   UNL     1       1.310   2.421   5.444  0.00  0.00    +0.037 C 
ENDBRANCH   1  12
BRANCH   1  16
ATOM     16  C   UNL     1      -4.609   1.885   0.225  0.00  0.00    +0.173 C 
BRANCH  16  17
ATOM     17  C   UNL     1      -5.567   1.710  -0.925  0.00  0.00    +0.228 C 
ATOM     18  O   UNL     1      -5.159   1.325  -2.001  0.00  0.00    -0.275 OA
ATOM     19  N   UNL     1      -6.877   1.981  -0.759  0.00  0.00    -0.284 N 
ATOM     20  H   UNL     1      -7.214   2.226   0.117  0.00  0.00    +0.155 HD
BRANCH  19  21
ATOM     21  C   UNL     1      -7.750   1.909  -1.850  0.00  0.00    +0.048 A 
ATOM     22  C   UNL     1      -7.550   0.956  -2.840  0.00  0.00    +0.026 A 
ATOM     23  C   UNL     1      -8.414   0.887  -3.916  0.00  0.00    +0.034 A 
ATOM     24  C   UNL     1      -9.477   1.767  -4.008  0.00  0.00    +0.127 A 
ATOM     25  C   UNL     1      -9.679   2.718  -3.025  0.00  0.00    +0.049 A 
ATOM     26  C   UNL     1      -8.822   2.788  -1.943  0.00  0.00    +0.041 A 
ATOM     27 BR   UNL     1      -9.103   4.084  -0.595  0.00  0.00    -0.048 Br
BRANCH  24  28
ATOM     28  N   UNL     1     -10.401   1.690  -5.162  0.00  0.00    +0.056 N 
ATOM     29  O   UNL     1     -10.224   0.852  -6.029  0.00  0.00    -0.126 OA
ATOM     30  O   UNL     1     -11.338   2.464  -5.245  0.00  0.00    -0.126 OA
ENDBRANCH  24  28
ENDBRANCH  19  21
ENDBRANCH  16  17
ENDBRANCH   1  16
TORSDOF 5
