REMARK  Name = ZINC40733676
REMARK  6 active torsions:
REMARK  status: ('A' for Active; 'I' for Inactive)
REMARK    1  A    between atoms: C_1  and  C_2
REMARK    2  A    between atoms: C_2  and  C_3
REMARK    3  A    between atoms: C_11  and  N_25
REMARK    4  A    between atoms: C_12  and  N_16
REMARK    5  A    between atoms: N_16  and  C_17
REMARK    6  A    between atoms: C_17  and  C_18
REMARK                            x       y       z     vdW  Elec       q    Type
REMARK                         _______ _______ _______ _____ _____    ______ ____
ROOT
ATOM      1  C   UNL     1      -2.745   0.494   0.043  0.00  0.00    +0.075 C 
ATOM      2  C   UNL     1      -2.243  -0.051   1.384  0.00  0.00    +0.022 C 
ATOM      3  C   UNL     1      -2.277  -1.580   1.354  0.00  0.00    +0.003 C 
ATOM      4  C   UNL     1      -1.351  -2.091   0.248  0.00  0.00    +0.019 C 
ATOM      5  C   UNL     1      -1.842  -1.570  -1.106  0.00  0.00    +0.107 C 
ATOM      6  N   UNL     1      -1.954  -0.106  -1.040  0.00  0.00    -0.311 N 
ATOM      7  C   UNL     1      -1.320   0.696  -1.981  0.00  0.00    +0.147 A 
ATOM      8  C   UNL     1      -1.950   1.007  -3.188  0.00  0.00    +0.105 A 
ATOM      9  C   UNL     1      -1.269   1.816  -4.098  0.00  0.00    +0.145 A 
ATOM     10  N   UNL     1      -0.053   2.258  -3.784  0.00  0.00    -0.219 NA
ATOM     11  C   UNL     1       0.506   1.941  -2.634  0.00  0.00    +0.225 A 
ATOM     12  N   UNL     1      -0.104   1.184  -1.745  0.00  0.00    -0.219 NA
ENDROOT
BRANCH   8  13
ATOM     13  N   UNL     1      -3.235   0.518  -3.477  0.00  0.00    -0.353 N 
ATOM     14  H   UNL     1      -3.656  -0.120  -2.881  0.00  0.00    +0.143 HD
ATOM     15  H   UNL     1      -3.700   0.818  -4.274  0.00  0.00    +0.143 HD
ENDBRANCH   8  13
BRANCH   1  17
ATOM     16  C   UNL     1      -3.513   2.646   1.053  0.00  0.00    +0.006 C 
ATOM     17  C   UNL     1      -2.583   2.015   0.014  0.00  0.00    +0.019 C 
ENDBRANCH   1  17
BRANCH   9  18
ATOM     18  N   UNL     1      -1.851   2.156  -5.314  0.00  0.00    -0.323 N 
ATOM     19  H   UNL     1      -2.737   1.829  -5.535  0.00  0.00    +0.148 HD
BRANCH  18  20
ATOM     20  C   UNL     1      -1.126   3.006  -6.261  0.00  0.00    +0.138 C 
BRANCH  20  21
ATOM     21  C   UNL     1      -1.970   3.222  -7.490  0.00  0.00    -0.030 A 
ATOM     22  C   UNL     1      -1.878   2.345  -8.555  0.00  0.00    +0.006 A 
ATOM     23  C   UNL     1      -2.652   2.543  -9.682  0.00  0.00    +0.020 A 
ATOM     24  C   UNL     1      -3.520   3.618  -9.746  0.00  0.00    +0.041 A 
ATOM     25  C   UNL     1      -3.612   4.496  -8.680  0.00  0.00    +0.020 A 
ATOM     26  C   UNL     1      -2.841   4.294  -7.551  0.00  0.00    +0.006 A 
ATOM     27 CL   UNL     1      -4.492   3.867 -11.162  0.00  0.00    -0.084 Cl
ENDBRANCH  20  21
ENDBRANCH  18  20
ENDBRANCH   9  18
TORSDOF 5
