REMARK  Name = ZINC67582612
REMARK  4 active torsions:
REMARK  status: ('A' for Active; 'I' for Inactive)
REMARK    1  A    between atoms: C_4  and  C_7
REMARK    2  A    between atoms: C_10  and  N_12
REMARK    3  A    between atoms: N_15  and  C_16
REMARK    4  A    between atoms: C_18  and  N_23
REMARK                            x       y       z     vdW  Elec       q    Type
REMARK                         _______ _______ _______ _____ _____    ______ ____
ROOT
ATOM      1  N   UNL     1       5.397  -1.770   1.577  0.00  0.00    -0.296 N 
ATOM      2  C   UNL     1       5.669  -2.135   2.845  0.00  0.00    +0.304 C 
ATOM      3  O   UNL     1       4.761  -2.387   3.613  0.00  0.00    -0.252 OA
ATOM      4  N   UNL     1       6.948  -2.221   3.263  0.00  0.00    -0.267 N 
ATOM      5  H   UNL     1       6.122  -1.569   0.964  0.00  0.00    +0.151 HD
ATOM      6  H   UNL     1       7.673  -2.083   2.634  0.00  0.00    +0.156 HD
ENDROOT
BRANCH   4   7
ATOM      7  C   UNL     1       7.228  -2.509   4.604  0.00  0.00    +0.072 A 
ATOM      8  C   UNL     1       6.402  -3.364   5.320  0.00  0.00    +0.059 A 
ATOM      9  C   UNL     1       6.681  -3.646   6.643  0.00  0.00    +0.128 A 
ATOM     10  C   UNL     1       7.783  -3.078   7.256  0.00  0.00    +0.035 A 
ATOM     11  C   UNL     1       8.609  -2.225   6.548  0.00  0.00    +0.042 A 
ATOM     12  C   UNL     1       8.339  -1.943   5.221  0.00  0.00    +0.145 A 
ATOM     13  F   UNL     1       9.149  -1.114   4.527  0.00  0.00    -0.204 F 
BRANCH   9  14
ATOM     14  N   UNL     1       5.800  -4.559   7.406  0.00  0.00    +0.056 N 
ATOM     15  O   UNL     1       4.837  -5.056   6.871  0.00  0.00    -0.126 OA
ATOM     16  O   UNL     1       6.043  -4.806   8.564  0.00  0.00    -0.126 OA
ENDBRANCH   9  14
ENDBRANCH   4   7
BRANCH   1  19
ATOM     17  C   UNL     1       3.709  -0.743  -0.051  0.00  0.00    +0.041 C 
ATOM     18  C   UNL     1       3.673  -2.259  -0.253  0.00  0.00    +0.033 C 
ATOM     19  C   UNL     1       4.008  -1.677   1.123  0.00  0.00    +0.083 C 
BRANCH  17  23
ATOM     20  C   UNL     1      -0.025   1.332  -0.023  0.00  0.00    +0.000 A 
ATOM     21  C   UNL     1       1.160   2.043  -0.035  0.00  0.00    +0.000 A 
ATOM     22  C   UNL     1       2.369   1.371  -0.044  0.00  0.00    +0.004 A 
ATOM     23  C   UNL     1       2.392  -0.011  -0.040  0.00  0.00    -0.042 A 
ATOM     24  C   UNL     1       1.206  -0.722  -0.027  0.00  0.00    +0.004 A 
ATOM     25  C   UNL     1      -0.002  -0.050  -0.019  0.00  0.00    +0.000 A 
ENDBRANCH  17  23
ENDBRANCH   1  19
TORSDOF 4
