REMARK  Name = ZINC39686592
REMARK  9 active torsions:
REMARK  status: ('A' for Active; 'I' for Inactive)
REMARK    1  A    between atoms: C_1  and  C_2
REMARK    2  A    between atoms: C_2  and  C_4
REMARK    3  A    between atoms: C_2  and  N_13
REMARK    4  A    between atoms: C_4  and  C_5
REMARK    5  A    between atoms: C_10  and  O_11
REMARK    6  A    between atoms: O_11  and  C_12
REMARK    7  A    between atoms: C_14  and  C_16
REMARK    8  A    between atoms: C_27  and  C_29
REMARK    9  A    between atoms: C_35  and  C_37
REMARK                            x       y       z     vdW  Elec       q    Type
REMARK                         _______ _______ _______ _____ _____    ______ ____
ROOT
ATOM      1  C   UNL     1       0.777  -1.128   3.685  0.00  0.00    +0.100 C 
ATOM      2  C   UNL     1       1.970  -0.197   3.999  0.00  0.00    +0.121 C 
ATOM      3  N   UNL     1       1.440   0.770   4.989  0.00  0.00    -0.300 N 
ATOM      4  C   UNL     1       0.572  -0.046   5.872  0.00  0.00    +0.115 C 
ATOM      5  C   UNL     1      -0.136  -1.029   4.918  0.00  0.00    -0.004 C 
ATOM      6  C   UNL     1      -0.280  -2.396   5.580  0.00  0.00    -0.010 C 
ATOM      7  C   UNL     1      -1.239  -2.284   6.768  0.00  0.00    -0.082 C 
ATOM      8  N   UNL     1      -2.546  -1.804   6.302  0.00  0.00    +0.379 N 
ATOM      9  C   UNL     1      -2.413  -0.449   5.751  0.00  0.00    -0.082 C 
ATOM     10  C   UNL     1      -1.504  -0.484   4.520  0.00  0.00    -0.010 C 
ATOM     11  C   UNL     1       1.691   2.091   5.070  0.00  0.00    +0.219 C 
ATOM     12  O   UNL     1       1.177   2.754   5.947  0.00  0.00    -0.275 OA
ATOM     13  H   UNL     1      -2.895  -2.424   5.587  0.00  0.00    -0.086 HD
ATOM     14  H   UNL     1      -3.193  -1.789   7.076  0.00  0.00    -0.086 HD
ENDROOT
BRANCH  11  15
ATOM     15  C   UNL     1       2.610   2.746   4.072  0.00  0.00    +0.078 C 
ATOM     16  C   UNL     1       3.995   2.100   4.153  0.00  0.00    +0.032 C 
ATOM     17  C   UNL     1       4.917   2.744   3.113  0.00  0.00    +0.108 C 
ATOM     18  N   UNL     1       4.917   4.199   3.318  0.00  0.00    -0.302 N 
ATOM     19  C   UNL     1       3.631   4.908   3.348  0.00  0.00    +0.108 C 
ATOM     20  C   UNL     1       2.723   4.240   4.386  0.00  0.00    +0.032 C 
ATOM     21  C   UNL     1       6.075   4.870   3.476  0.00  0.00    +0.212 C 
ATOM     22  O   UNL     1       6.059   6.052   3.747  0.00  0.00    -0.276 OA
ATOM     23  C   UNL     1       7.390   4.152   3.315  0.00  0.00    +0.109 C 
ENDBRANCH  11  15
BRANCH   1  25
ATOM     24  N   UNL     1      -0.571  -1.540   1.653  0.00  0.00    -0.312 N 
ATOM     25  C   UNL     1       0.050  -0.652   2.454  0.00  0.00    +0.218 C 
ATOM     26  O   UNL     1       0.024   0.530   2.184  0.00  0.00    -0.275 OA
ATOM     27  H   UNL     1      -0.550  -2.485   1.869  0.00  0.00    +0.149 HD
BRANCH  24  29
ATOM     28  C   UNL     1      -0.288  -0.946  -0.703  0.00  0.00    +0.028 C 
ATOM     29  C   UNL     1      -1.278  -1.077   0.456  0.00  0.00    +0.074 C 
BRANCH  29  30
ATOM     30  C   UNL     1      -2.367  -2.085   0.085  0.00  0.00    +0.060 C 
BRANCH  30  31
ATOM     31  C   UNL     1      -3.409  -2.123   1.173  0.00  0.00    -0.004 A 
ATOM     32  C   UNL     1      -3.327  -3.071   2.176  0.00  0.00    +0.007 A 
ATOM     33  C   UNL     1      -4.282  -3.106   3.174  0.00  0.00    +0.000 A 
ATOM     34  C   UNL     1      -5.322  -2.194   3.173  0.00  0.00    +0.004 A 
ATOM     35  C   UNL     1      -5.407  -1.244   2.173  0.00  0.00    +0.046 A 
ATOM     36  C   UNL     1      -4.447  -1.203   1.173  0.00  0.00    +0.123 A 
BRANCH  36  37
ATOM     37  O   UNL     1      -4.526  -0.267   0.191  0.00  0.00    -0.495 OA
ATOM     38  C   UNL     1      -5.622   0.648   0.255  0.00  0.00    +0.277 C 
ENDBRANCH  36  37
ENDBRANCH  30  31
ENDBRANCH  29  30
ENDBRANCH  24  29
ENDBRANCH   1  25
TORSDOF 6
