REMARK  Name = ZINC08790064
REMARK  8 active torsions:
REMARK  status: ('A' for Active; 'I' for Inactive)
REMARK    1  A    between atoms: C_1  and  O_2
REMARK    2  A    between atoms: O_2  and  C_3
REMARK    3  A    between atoms: C_6  and  C_9
REMARK    4  A    between atoms: C_9  and  N_10
REMARK    5  A    between atoms: C_15  and  C_31
REMARK    6  A    between atoms: C_31  and  C_32
REMARK    7  A    between atoms: C_35  and  O_39
REMARK    8  A    between atoms: C_36  and  O_38
REMARK                            x       y       z     vdW  Elec       q    Type
REMARK                         _______ _______ _______ _____ _____    ______ ____
ROOT
ATOM      1  N   UNL     1       0.044   7.617   2.595  0.00  0.00    -0.237 N 
ATOM      2  C   UNL     1       0.071   7.707   3.929  0.00  0.00    +0.224 C 
ATOM      3  O   UNL     1      -0.839   7.402   4.670  0.00  0.00    -0.275 OA
ATOM      4  C   UNL     1       1.413   8.245   4.370  0.00  0.00    +0.073 C 
ATOM      5  C   UNL     1       1.222   9.656   4.966  0.00  0.00    -0.053 C 
ATOM      6  C   UNL     1       2.342   9.998   2.944  0.00  0.00    +0.050 C 
ATOM      7  C   UNL     1       2.165   8.476   3.029  0.00  0.00    +0.088 C 
ATOM      8  C   UNL     1       1.166   8.023   1.988  0.00  0.00    +0.225 C 
ATOM      9  O   UNL     1       1.353   8.025   0.790  0.00  0.00    -0.275 OA
ATOM     10  C   UNL     1       3.712  10.419   3.392  0.00  0.00    -0.028 A 
ATOM     11  C   UNL     1       4.412  10.272   4.569  0.00  0.00    +0.004 A 
ATOM     12  C   UNL     1       5.692  10.784   4.683  0.00  0.00    +0.000 A 
ATOM     13  C   UNL     1       6.267  11.443   3.611  0.00  0.00    +0.002 A 
ATOM     14  C   UNL     1       5.570  11.593   2.431  0.00  0.00    +0.023 A 
ATOM     15  C   UNL     1       4.281  11.080   2.307  0.00  0.00    +0.036 A 
ATOM     16  N   UNL     1       3.389  11.102   1.233  0.00  0.00    -0.286 N 
ATOM     17  C   UNL     1       2.227  10.486   1.526  0.00  0.00    +0.211 C 
ATOM     18  O   UNL     1       1.273  10.351   0.789  0.00  0.00    -0.277 OA
ATOM     19  H   UNL     1       3.583  11.513   0.377  0.00  0.00    +0.155 HD
ATOM     20  N   UNL     1       1.310  10.546   3.806  0.00  0.00    +0.394 N 
ATOM     21  H   UNL     1       1.564  11.495   4.105  0.00  0.00    -0.083 HD
ATOM     22  H   UNL     1       0.411  10.573   3.311  0.00  0.00    -0.083 HD
ENDROOT
BRANCH   1  23
ATOM     23  C   UNL     1      -1.120   7.122   1.857  0.00  0.00    +0.151 C 
BRANCH  23  27
ATOM     24  C   UNL     1      -0.787   2.892   1.346  0.00  0.00    +0.120 A 
ATOM     25  C   UNL     1      -0.253   3.751   0.396  0.00  0.00    +0.046 A 
ATOM     26  C   UNL     1      -0.368   5.117   0.561  0.00  0.00    +0.009 A 
ATOM     27  C   UNL     1      -1.003   5.630   1.677  0.00  0.00    -0.029 A 
ATOM     28  C   UNL     1      -1.531   4.776   2.628  0.00  0.00    +0.009 A 
ATOM     29  C   UNL     1      -1.425   3.409   2.465  0.00  0.00    +0.046 A 
BRANCH  24  31
ATOM     30  C   UNL     1      -0.013   1.086   0.008  0.00  0.00    +0.277 C 
ATOM     31  O   UNL     1      -0.682   1.547   1.184  0.00  0.00    -0.495 OA
ENDBRANCH  24  31
ENDBRANCH  23  27
ENDBRANCH   1  23
BRANCH   5  32
ATOM     32  C   UNL     1      -0.142   9.764   5.651  0.00  0.00    +0.020 C 
BRANCH  32  33
ATOM     33  C   UNL     1      -0.258  11.104   6.330  0.00  0.00    -0.045 A 
ATOM     34  C   UNL     1      -0.776  12.185   5.641  0.00  0.00    +0.007 A 
ATOM     35  C   UNL     1      -0.884  13.416   6.260  0.00  0.00    +0.049 A 
ATOM     36  C   UNL     1      -0.473  13.570   7.574  0.00  0.00    +0.158 A 
ATOM     37  C   UNL     1       0.048  12.482   8.268  0.00  0.00    +0.158 A 
ATOM     38  C   UNL     1       0.149  11.249   7.644  0.00  0.00    +0.052 A 
BRANCH  37  39
ATOM     39  O   UNL     1       0.453  12.628   9.558  0.00  0.00    -0.503 OA
ATOM     40  H   UNL     1      -0.241  12.459  10.210  0.00  0.00    +0.292 HD
ENDBRANCH  37  39
BRANCH  36  41
ATOM     41  O   UNL     1      -0.579  14.780   8.184  0.00  0.00    -0.503 OA
ATOM     42  H   UNL     1      -1.421  14.920   8.639  0.00  0.00    +0.292 HD
ENDBRANCH  36  41
ENDBRANCH  32  33
ENDBRANCH   5  32
TORSDOF 7
