REMARK  Name = ZINC09586301
REMARK  9 active torsions:
REMARK  status: ('A' for Active; 'I' for Inactive)
REMARK    1  A    between atoms: C_1  and  C_2
REMARK    2  A    between atoms: C_2  and  C_3
REMARK    3  A    between atoms: C_3  and  N_4
REMARK    4  A    between atoms: N_13  and  C_14
REMARK    5  A    between atoms: C_14  and  C_16
REMARK    6  A    between atoms: C_19  and  S_22
REMARK    7  A    between atoms: S_22  and  N_25
REMARK    8  A    between atoms: C_30  and  C_32
REMARK    9  A    between atoms: C_32  and  C_33
REMARK                            x       y       z     vdW  Elec       q    Type
REMARK                         _______ _______ _______ _____ _____    ______ ____
ROOT
ATOM      1  C   UNL     1      -1.623   1.461   0.782  0.00  0.00    +0.269 C 
ATOM      2  O   UNL     1      -0.789   2.317   1.022  0.00  0.00    -0.268 OA
ENDROOT
BRANCH   1  12
ATOM      3  N   UNL     1      -4.535   3.590   0.737  0.00  0.00    -0.321 N 
ATOM      4  C   UNL     1      -4.732   4.946   0.932  0.00  0.00    +0.061 A 
ATOM      5  C   UNL     1      -5.937   5.664   0.890  0.00  0.00    +0.076 A 
ATOM      6  C   UNL     1      -5.959   7.027   1.103  0.00  0.00    +0.168 A 
ATOM      7  C   UNL     1      -4.780   7.725   1.366  0.00  0.00    +0.167 A 
ATOM      8  C   UNL     1      -3.579   7.037   1.413  0.00  0.00    +0.066 A 
ATOM      9  C   UNL     1      -3.566   5.678   1.199  0.00  0.00    +0.043 A 
ATOM     10  S   UNL     1      -2.292   4.442   1.168  0.00  0.00    -0.052 S 
ATOM     11  C   UNL     1      -3.284   3.063   0.821  0.00  0.00    +0.167 A 
ATOM     12  N   UNL     1      -2.911   1.796   0.668  0.00  0.00    -0.152 NA
ATOM     13  O   UNL     1      -5.078   9.045   1.536  0.00  0.00    -0.453 OA
ATOM     14  C   UNL     1      -6.391   9.217   0.971  0.00  0.00    +0.466 C 
ATOM     15  O   UNL     1      -6.997   7.918   1.109  0.00  0.00    -0.453 OA
BRANCH   3  16
ATOM     16  C   UNL     1      -5.677   2.720   0.443  0.00  0.00    +0.124 C 
BRANCH  16  18
ATOM     17  C   UNL     1      -7.458   1.283   1.445  0.00  0.00    +0.005 C 
ATOM     18  C   UNL     1      -6.266   2.191   1.752  0.00  0.00    +0.018 C 
ENDBRANCH  16  18
ENDBRANCH   3  16
ENDBRANCH   1  12
BRANCH   1  19
ATOM     19  C   UNL     1      -1.207   0.050   0.612  0.00  0.00    +0.039 A 
ATOM     20  C   UNL     1      -2.160  -0.934   0.344  0.00  0.00    +0.015 A 
ATOM     21  C   UNL     1      -1.765  -2.246   0.180  0.00  0.00    +0.029 A 
ATOM     22  C   UNL     1      -0.430  -2.589   0.293  0.00  0.00    +0.106 A 
ATOM     23  C   UNL     1       0.519  -1.619   0.565  0.00  0.00    +0.029 A 
ATOM     24  C   UNL     1       0.138  -0.303   0.725  0.00  0.00    +0.015 A 
BRANCH  22  25
ATOM     25  S   UNL     1       0.065  -4.268   0.091  0.00  0.00    +0.061 S 
ATOM     26  O   UNL     1      -1.022  -4.939  -0.531  0.00  0.00    -0.153 OA
ATOM     27  O   UNL     1       1.368  -4.242  -0.475  0.00  0.00    -0.153 OA
BRANCH  25  28
ATOM     28  N   UNL     1       0.219  -4.919   1.606  0.00  0.00    -0.174 NA
ATOM     29  C   UNL     1       1.538  -5.031   2.242  0.00  0.00    +0.110 C 
ATOM     30  C   UNL     1       1.474  -4.359   3.622  0.00  0.00    +0.017 C 
ATOM     31  C   UNL     1       0.333  -4.978   4.431  0.00  0.00    +0.003 C 
ATOM     32  C   UNL     1      -0.996  -4.730   3.713  0.00  0.00    +0.021 C 
ATOM     33  C   UNL     1      -0.961  -5.402   2.337  0.00  0.00    +0.080 C 
BRANCH  33  34
ATOM     34  C   UNL     1      -2.228  -5.046   1.557  0.00  0.00    +0.017 C 
ATOM     35  C   UNL     1      -3.459  -5.408   2.391  0.00  0.00    +0.005 C 
ENDBRANCH  33  34
ENDBRANCH  25  28
ENDBRANCH  22  25
ENDBRANCH   1  19
TORSDOF 7
