REMARK  Name = ZINC45834836
REMARK  10 active torsions:
REMARK  status: ('A' for Active; 'I' for Inactive)
REMARK    1  A    between atoms: C_1  and  C_2
REMARK    2  A    between atoms: C_7  and  O_8
REMARK    3  A    between atoms: O_8  and  C_9
REMARK    4  A    between atoms: C_9  and  C_10
REMARK    5  A    between atoms: C_10  and  C_11
REMARK    6  A    between atoms: C_11  and  C_12
REMARK    7  A    between atoms: N_14  and  C_15
REMARK    8  A    between atoms: C_15  and  C_17
REMARK    9  A    between atoms: C_15  and  C_18
REMARK   10  A    between atoms: C_21  and  N_24
REMARK                            x       y       z     vdW  Elec       q    Type
REMARK                         _______ _______ _______ _____ _____    ______ ____
ROOT
ATOM      1  C   UNL     1      -0.179   0.041   7.319  0.00  0.00    +0.214 C 
ATOM      2  O   UNL     1      -0.076   1.228   7.092  0.00  0.00    -0.276 OA
ATOM      3  N   UNL     1      -0.122  -0.411   8.587  0.00  0.00    -0.309 N 
ATOM      4  H   UNL     1      -0.204  -1.360   8.768  0.00  0.00    +0.149 HD
ENDROOT
BRANCH   3   5
ATOM      5  C   UNL     1       0.064   0.532   9.693  0.00  0.00    +0.100 C 
ATOM      6  C   UNL     1      -1.293   1.102  10.111  0.00  0.00    +0.033 C 
BRANCH   5   7
ATOM      7  C   UNL     1       0.692  -0.181  10.862  0.00  0.00    -0.027 A 
ATOM      8  C   UNL     1       0.295  -1.467  11.179  0.00  0.00    +0.007 A 
ATOM      9  C   UNL     1       0.868  -2.124  12.250  0.00  0.00    +0.023 A 
ATOM     10  C   UNL     1       1.845  -1.492  13.008  0.00  0.00    +0.035 A 
ATOM     11  C   UNL     1       2.242  -0.201  12.687  0.00  0.00    +0.023 A 
ATOM     12  C   UNL     1       1.668   0.449  11.611  0.00  0.00    +0.007 A 
BRANCH  10  13
ATOM     13  N   UNL     1       2.428  -2.155  14.095  0.00  0.00    -0.270 N 
ATOM     14  C   UNL     1       2.603  -3.491  14.053  0.00  0.00    +0.301 C 
ATOM     15  O   UNL     1       2.345  -4.107  13.037  0.00  0.00    -0.253 OA
ATOM     16  N   UNL     1       3.064  -4.144  15.139  0.00  0.00    -0.313 N 
ATOM     17  H   UNL     1       2.705  -1.653  14.877  0.00  0.00    +0.156 HD
ATOM     18  H   UNL     1       3.270  -3.652  15.949  0.00  0.00    +0.146 HD
ATOM     19  H   UNL     1       3.191  -5.105  15.109  0.00  0.00    +0.146 HD
ENDBRANCH  10  13
ENDBRANCH   5   7
ENDBRANCH   3   5
BRANCH   1  20
ATOM     20  C   UNL     1      -0.371  -0.930   6.181  0.00  0.00    +0.099 C 
BRANCH  20  21
ATOM     21  C   UNL     1      -0.400  -0.164   4.857  0.00  0.00    +0.050 C 
BRANCH  21  22
ATOM     22  C   UNL     1      -0.595  -1.149   3.703  0.00  0.00    +0.229 C 
BRANCH  22  23
ATOM     23  O   UNL     1      -0.623  -0.434   2.466  0.00  0.00    -0.492 OA
BRANCH  23  30
ATOM     24  C   UNL     1      -0.681   0.961   0.011  0.00  0.00    +0.047 C 
ATOM     25  C   UNL     1      -0.826  -0.537   0.098  0.00  0.00    -0.007 A 
ATOM     26  C   UNL     1      -0.989  -1.284  -1.053  0.00  0.00    +0.027 A 
ATOM     27  C   UNL     1      -1.123  -2.659  -0.973  0.00  0.00    +0.041 A 
ATOM     28  C   UNL     1      -1.093  -3.288   0.259  0.00  0.00    +0.023 A 
ATOM     29  C   UNL     1      -0.929  -2.545   1.411  0.00  0.00    +0.047 A 
ATOM     30  C   UNL     1      -0.790  -1.167   1.333  0.00  0.00    +0.123 A 
ATOM     31 CL   UNL     1      -1.329  -3.595  -2.420  0.00  0.00    -0.084 Cl
ENDBRANCH  23  30
ENDBRANCH  22  23
ENDBRANCH  21  22
ENDBRANCH  20  21
ENDBRANCH   1  20
TORSDOF 8
