REMARK  Name = ZINC06161382
REMARK  4 active torsions:
REMARK  status: ('A' for Active; 'I' for Inactive)
REMARK    1  A    between atoms: C_14  and  C_15
REMARK    2  A    between atoms: N_17  and  N_18
REMARK    3  A    between atoms: C_19  and  C_20
REMARK    4  A    between atoms: C_24  and  O_26
REMARK                            x       y       z     vdW  Elec       q    Type
REMARK                         _______ _______ _______ _____ _____    ______ ____
ROOT
ATOM      1  C   UNL     1      -0.017   1.378   0.010  0.00  0.00    +0.000 A 
ATOM      2  C   UNL     1       1.165   2.099   0.002  0.00  0.00    +0.001 A 
ATOM      3  C   UNL     1       2.376   1.434  -0.032  0.00  0.00    +0.010 A 
ATOM      4  C   UNL     1       2.397   0.047  -0.057  0.00  0.00    +0.003 A 
ATOM      5  C   UNL     1       1.204  -0.685  -0.013  0.00  0.00    -0.038 A 
ATOM      6  C   UNL     1       0.002  -0.004   0.002  0.00  0.00    +0.004 A 
ATOM      7  C   UNL     1       1.218  -2.186   0.069  0.00  0.00    +0.040 C 
ATOM      8  C   UNL     1       2.371  -2.807  -0.719  0.00  0.00    +0.044 C 
ATOM      9  C   UNL     1       3.640  -2.062  -0.428  0.00  0.00    +0.010 A 
ATOM     10  C   UNL     1       3.657  -0.718  -0.128  0.00  0.00    +0.070 A 
ATOM     11  N   UNL     1       4.945  -0.370   0.053  0.00  0.00    -0.276 N 
ATOM     12  H   UNL     1       5.258   0.524   0.265  0.00  0.00    +0.189 HD
ATOM     13  N   UNL     1       5.701  -1.405  -0.097  0.00  0.00    -0.168 NA
ATOM     14  C   UNL     1       4.974  -2.473  -0.391  0.00  0.00    +0.152 A 
ENDROOT
BRANCH  14  15
ATOM     15  C   UNL     1       5.478  -3.840  -0.632  0.00  0.00    +0.284 C 
ATOM     16  O   UNL     1       4.701  -4.737  -0.895  0.00  0.00    -0.267 OA
ATOM     17  N   UNL     1       6.800  -4.092  -0.562  0.00  0.00    -0.202 N 
ATOM     18  H   UNL     1       7.421  -3.377  -0.353  0.00  0.00    +0.178 HD
BRANCH  17  19
ATOM     19  N   UNL     1       7.279  -5.389  -0.792  0.00  0.00    -0.187 NA
ATOM     20  C   UNL     1       8.552  -5.632  -0.725  0.00  0.00    +0.138 C 
BRANCH  20  21
ATOM     21  C   UNL     1       9.056  -6.997  -0.966  0.00  0.00    -0.002 A 
ATOM     22  C   UNL     1       8.165  -8.029  -1.273  0.00  0.00    +0.010 A 
ATOM     23  C   UNL     1       8.640  -9.305  -1.499  0.00  0.00    +0.004 A 
ATOM     24  C   UNL     1       9.996  -9.566  -1.421  0.00  0.00    +0.045 A 
ATOM     25  C   UNL     1      10.889  -8.547  -1.116  0.00  0.00    +0.117 A 
ATOM     26  C   UNL     1      10.424  -7.262  -0.894  0.00  0.00    +0.054 A 
BRANCH  25  27
ATOM     27  O   UNL     1      12.220  -8.811  -1.042  0.00  0.00    -0.507 OA
ATOM     28  H   UNL     1      12.690  -8.704  -1.880  0.00  0.00    +0.292 HD
ENDBRANCH  25  27
ENDBRANCH  20  21
ENDBRANCH  17  19
ENDBRANCH  14  15
TORSDOF 4
