REMARK  Name = ZINC11670731
REMARK  8 active torsions:
REMARK  status: ('A' for Active; 'I' for Inactive)
REMARK    1  A    between atoms: C_3  and  C_6
REMARK    2  A    between atoms: C_9  and  S_12
REMARK    3  A    between atoms: N_10  and  N_11
REMARK    4  A    between atoms: S_12  and  C_13
REMARK    5  A    between atoms: C_13  and  C_14
REMARK    6  A    between atoms: N_16  and  C_17
REMARK    7  A    between atoms: C_20  and  O_23
REMARK    8  A    between atoms: O_23  and  C_24
REMARK                            x       y       z     vdW  Elec       q    Type
REMARK                         _______ _______ _______ _____ _____    ______ ____
ROOT
ATOM      1  C   UNL     1      -0.564   2.501   1.088  0.00  0.00    +0.227 C 
ATOM      2  O   UNL     1      -1.084   3.593   1.176  0.00  0.00    -0.275 OA
ATOM      3  N   UNL     1      -0.575   1.663   2.143  0.00  0.00    -0.285 N 
ATOM      4  H   UNL     1      -0.230   0.761   2.049  0.00  0.00    +0.155 HD
ENDROOT
BRANCH   3   5
ATOM      5  C   UNL     1      -1.083   2.094   3.375  0.00  0.00    +0.034 A 
ATOM      6  C   UNL     1      -0.503   1.653   4.558  0.00  0.00    +0.027 A 
ATOM      7  C   UNL     1      -1.000   2.083   5.772  0.00  0.00    +0.048 A 
ATOM      8  C   UNL     1      -2.087   2.946   5.811  0.00  0.00    +0.129 A 
ATOM      9  C   UNL     1      -2.670   3.381   4.630  0.00  0.00    +0.048 A 
ATOM     10  C   UNL     1      -2.170   2.957   3.415  0.00  0.00    +0.027 A 
BRANCH   8  11
ATOM     11  O   UNL     1      -2.579   3.365   7.007  0.00  0.00    -0.456 OA
BRANCH  11  12
ATOM     12  C   UNL     1      -3.728   2.797   7.458  0.00  0.00    +0.129 A 
ATOM     13  C   UNL     1      -4.340   1.790   6.725  0.00  0.00    +0.047 A 
ATOM     14  C   UNL     1      -5.504   1.210   7.188  0.00  0.00    +0.019 A 
ATOM     15  C   UNL     1      -6.067   1.640   8.377  0.00  0.00    +0.018 A 
ATOM     16  C   UNL     1      -5.462   2.647   9.106  0.00  0.00    +0.019 A 
ATOM     17  C   UNL     1      -4.294   3.226   8.649  0.00  0.00    +0.047 A 
ATOM     18 BR   UNL     1      -7.666   0.848   9.005  0.00  0.00    -0.050 Br
ENDBRANCH  11  12
ENDBRANCH   8  11
ENDBRANCH   3   5
BRANCH   1  19
ATOM     19  C   UNL     1       0.094   2.082  -0.202  0.00  0.00    +0.173 C 
BRANCH  19  20
ATOM     20  S   UNL     1      -0.057   3.414  -1.417  0.00  0.00    -0.075 S 
BRANCH  20  24
ATOM     21  C   UNL     1       1.657   2.300  -4.749  0.00  0.00    +0.217 A 
ATOM     22  N   UNL     1       1.837   1.258  -3.967  0.00  0.00    -0.123 NA
ATOM     23  N   UNL     1       1.317   1.480  -2.813  0.00  0.00    -0.120 NA
ATOM     24  C   UNL     1       0.772   2.676  -2.785  0.00  0.00    +0.209 A 
ATOM     25  N   UNL     1       0.964   3.239  -4.016  0.00  0.00    -0.221 N 
BRANCH  21  28
ATOM     26  C   UNL     1       2.857   2.001  -8.191  0.00  0.00    +0.042 A 
ATOM     27  C   UNL     1       2.530   1.422  -6.950  0.00  0.00    +0.053 A 
ATOM     28  C   UNL     1       2.106   2.435  -6.144  0.00  0.00    +0.173 A 
ATOM     29  O   UNL     1       2.175   3.584  -6.845  0.00  0.00    -0.460 OA
ATOM     30  C   UNL     1       2.628   3.325  -8.082  0.00  0.00    +0.196 A 
ENDBRANCH  21  28
BRANCH  25  31
ATOM     31  N   UNL     1       0.557   4.474  -4.432  0.00  0.00    -0.294 N 
ATOM     32  H   UNL     1       1.264   5.170  -4.247  0.00  0.00    +0.163 HD
ATOM     33  H   UNL     1       0.308   4.463  -5.410  0.00  0.00    +0.163 HD
ENDBRANCH  25  31
ENDBRANCH  20  24
ENDBRANCH  19  20
ENDBRANCH   1  19
TORSDOF 8
