REMARK  Name = ZINC06282079
REMARK  9 active torsions:
REMARK  status: ('A' for Active; 'I' for Inactive)
REMARK    1  A    between atoms: C_1  and  C_2
REMARK    2  A    between atoms: C_7  and  C_14
REMARK    3  A    between atoms: C_14  and  C_16
REMARK    4  A    between atoms: C_14  and  N_73
REMARK    5  A    between atoms: N_20  and  C_21
REMARK    6  A    between atoms: C_27  and  C_28
REMARK    7  A    between atoms: C_27  and  N_73
REMARK    8  A    between atoms: C_34  and  C_35
REMARK    9  A    between atoms: C_34  and  N_73
REMARK                            x       y       z     vdW  Elec       q    Type
REMARK                         _______ _______ _______ _____ _____    ______ ____
ROOT
ATOM      1  C   UNL     1      -2.573   2.988   6.507  0.00  0.00    +0.039 C 
ENDROOT
BRANCH   1   8
ATOM      2  C   UNL     1      -0.852  -0.473  -0.470  0.00  0.00    +0.044 C 
ATOM      3  C   UNL     1      -1.395   0.199   0.765  0.00  0.00    -0.048 A 
ATOM      4  C   UNL     1      -2.734   0.560   0.818  0.00  0.00    +0.004 A 
ATOM      5  C   UNL     1      -3.247   1.165   1.930  0.00  0.00    +0.010 A 
ATOM      6  C   UNL     1      -2.414   1.433   3.021  0.00  0.00    -0.001 A 
ATOM      7  C   UNL     1      -2.929   2.085   4.226  0.00  0.00    +0.017 A 
ATOM      8  C   UNL     1      -2.074   2.319   5.253  0.00  0.00    +0.011 A 
ATOM      9  C   UNL     1      -0.719   1.938   5.149  0.00  0.00    +0.251 A 
ATOM     10  O   UNL     1       0.032   2.158   6.083  0.00  0.00    -0.268 OA
ATOM     11  N   UNL     1      -0.237   1.339   4.047  0.00  0.00    -0.322 N 
ATOM     12  H   UNL     1       0.700   1.090   4.009  0.00  0.00    +0.169 HD
ATOM     13  C   UNL     1      -1.054   1.072   2.969  0.00  0.00    +0.049 A 
ATOM     14  C   UNL     1      -0.555   0.452   1.828  0.00  0.00    +0.029 A 
ENDBRANCH   1   8
BRANCH   1  15
ATOM     15  C   UNL     1      -2.474   2.026   7.663  0.00  0.00    +0.143 A 
ATOM     16  N   UNL     1      -1.436   1.843   8.442  0.00  0.00    -0.115 NA
ATOM     17  N   UNL     1      -1.744   0.941   9.309  0.00  0.00    -0.023 NA
ATOM     18  N   UNL     1      -2.948   0.539   9.099  0.00  0.00    -0.044 NA
ATOM     19  N   UNL     1      -3.432   1.184   8.092  0.00  0.00    -0.227 N 
BRANCH  19  20
ATOM     20  C   UNL     1      -4.774   1.030   7.523  0.00  0.00    +0.111 C 
ATOM     21  C   UNL     1      -5.819   1.213   8.625  0.00  0.00    +0.027 C 
ATOM     22  C   UNL     1      -7.220   1.052   8.031  0.00  0.00    +0.002 C 
ATOM     23  C   UNL     1      -7.358  -0.346   7.423  0.00  0.00    +0.000 C 
ATOM     24  C   UNL     1      -6.313  -0.528   6.321  0.00  0.00    +0.002 C 
ATOM     25  C   UNL     1      -4.912  -0.367   6.915  0.00  0.00    +0.027 C 
ENDBRANCH  19  20
ENDBRANCH   1  15
BRANCH   1  26
ATOM     26  N   UNL     1      -1.727   4.167   6.791  0.00  0.00    +0.394 N 
ATOM     27  H   UNL     1      -0.757   3.857   6.923  0.00  0.00    -0.080 HD
BRANCH  26  28
ATOM     28  C   UNL     1      -2.190   4.835   8.025  0.00  0.00    -0.040 C 
BRANCH  28  29
ATOM     29  C   UNL     1      -3.606   5.325   7.862  0.00  0.00    -0.046 A 
ATOM     30  C   UNL     1      -4.674   4.507   8.198  0.00  0.00    +0.005 A 
ATOM     31  C   UNL     1      -5.960   4.999   8.032  0.00  0.00    +0.020 A 
ATOM     32  C   UNL     1      -6.132   6.280   7.540  0.00  0.00    +0.111 A 
ATOM     33  N   UNL     1      -5.092   7.029   7.231  0.00  0.00    -0.263 NA
ATOM     34  C   UNL     1      -3.856   6.596   7.382  0.00  0.00    +0.112 A 
ENDBRANCH  28  29
ENDBRANCH  26  28
BRANCH  26  35
ATOM     35  C   UNL     1      -1.780   5.111   5.655  0.00  0.00    -0.045 C 
BRANCH  35  36
ATOM     36  C   UNL     1      -0.666   6.146   5.824  0.00  0.00    +0.102 C 
ATOM     37  C   UNL     1      -0.680   7.148   4.647  0.00  0.00    +0.032 C 
ATOM     38  C   UNL     1       0.815   7.431   4.378  0.00  0.00    +0.030 C 
ATOM     39  C   UNL     1       1.555   6.567   5.423  0.00  0.00    +0.160 C 
ATOM     40  O   UNL     1       0.628   5.509   5.751  0.00  0.00    -0.378 OA
ENDBRANCH  35  36
ENDBRANCH  26  35
ENDBRANCH   1  26
TORSDOF 8
