REMARK  Name = ZINC19632603
REMARK  5 active torsions:
REMARK  status: ('A' for Active; 'I' for Inactive)
REMARK    1  A    between atoms: N_11  and  C_12
REMARK    2  A    between atoms: C_12  and  C_13
REMARK    3  A    between atoms: C_13  and  C_14
REMARK    4  A    between atoms: C_14  and  N_15
REMARK    5  A    between atoms: C_18  and  N_21
REMARK                            x       y       z     vdW  Elec       q    Type
REMARK                         _______ _______ _______ _____ _____    ______ ____
ROOT
ATOM      1  N   UNL     1       7.375  -0.072   2.761  0.00  0.00    +0.380 N 
ATOM      2  C   UNL     1       7.255  -1.381   3.413  0.00  0.00    -0.077 C 
ATOM      3  C   UNL     1       7.689  -1.269   4.876  0.00  0.00    +0.006 C 
ATOM      4  C   UNL     1       9.146  -0.800   4.935  0.00  0.00    +0.089 C 
ATOM      5  C   UNL     1       9.274   0.530   4.187  0.00  0.00    +0.006 C 
ATOM      6  C   UNL     1       8.781   0.351   2.750  0.00  0.00    -0.077 C 
ATOM      7  H   UNL     1       6.825   0.606   3.266  0.00  0.00    -0.082 HD
ENDROOT
BRANCH   4   8
ATOM      8  N   UNL     1       9.545  -0.617   6.332  0.00  0.00    -0.289 N 
ATOM      9  C   UNL     1      10.585  -1.283   6.978  0.00  0.00    +0.070 A 
ATOM     10  C   UNL     1      11.498  -2.243   6.569  0.00  0.00    +0.029 A 
ATOM     11  C   UNL     1      12.435  -2.726   7.461  0.00  0.00    +0.022 A 
ATOM     12  C   UNL     1      12.466  -2.255   8.764  0.00  0.00    +0.043 A 
ATOM     13  C   UNL     1      11.559  -1.299   9.180  0.00  0.00    +0.047 A 
ATOM     14  C   UNL     1      10.616  -0.808   8.290  0.00  0.00    +0.068 A 
ATOM     15  N   UNL     1       9.594   0.132   8.402  0.00  0.00    -0.306 N 
ATOM     16  H   UNL     1       9.370   0.634   9.201  0.00  0.00    +0.170 HD
ATOM     17  C   UNL     1       8.974   0.229   7.211  0.00  0.00    +0.328 A 
ATOM     18  O   UNL     1       8.037   0.966   6.966  0.00  0.00    -0.247 OA
ATOM     19 CL   UNL     1      13.647  -2.869   9.877  0.00  0.00    -0.083 Cl
ENDBRANCH   4   8
BRANCH   1  20
ATOM     20  C   UNL     1       6.884  -0.168   1.380  0.00  0.00    -0.077 C 
BRANCH  20  21
ATOM     21  C   UNL     1       5.388  -0.487   1.392  0.00  0.00    +0.003 C 
BRANCH  21  22
ATOM     22  C   UNL     1       4.875  -0.586  -0.046  0.00  0.00    +0.125 C 
BRANCH  22  33
ATOM     23  C   UNL     1      -0.017   1.377   0.010  0.00  0.00    +0.002 A 
ATOM     24  C   UNL     1       1.169   2.091   0.002  0.00  0.00    +0.002 A 
ATOM     25  C   UNL     1       2.381   1.429  -0.013  0.00  0.00    +0.028 A 
ATOM     26  C   UNL     1       2.410   0.043  -0.021  0.00  0.00    +0.070 A 
ATOM     27  C   UNL     1       1.214  -0.678  -0.013  0.00  0.00    +0.067 A 
ATOM     28  C   UNL     1       0.002  -0.004   0.002  0.00  0.00    +0.028 A 
ATOM     29  N   UNL     1       1.557  -2.028  -0.023  0.00  0.00    -0.306 N 
ATOM     30  H   UNL     1       0.934  -2.772  -0.021  0.00  0.00    +0.170 HD
ATOM     31  C   UNL     1       2.900  -2.124  -0.036  0.00  0.00    +0.328 A 
ATOM     32  O   UNL     1       3.528  -3.166  -0.047  0.00  0.00    -0.247 OA
ATOM     33  N   UNL     1       3.443  -0.892  -0.035  0.00  0.00    -0.292 N 
ENDBRANCH  22  33
ENDBRANCH  21  22
ENDBRANCH  20  21
ENDBRANCH   1  20
TORSDOF 5
