REMARK  Name = ZINC12599671
REMARK  8 active torsions:
REMARK  status: ('A' for Active; 'I' for Inactive)
REMARK    1  A    between atoms: C_1  and  O_2
REMARK    2  A    between atoms: O_2  and  C_3
REMARK    3  A    between atoms: C_6  and  C_9
REMARK    4  A    between atoms: C_9  and  C_11
REMARK    5  A    between atoms: C_9  and  C_27
REMARK    6  A    between atoms: C_11  and  N_12
REMARK    7  A    between atoms: C_13  and  C_15
REMARK    8  A    between atoms: C_15  and  N_16
REMARK                            x       y       z     vdW  Elec       q    Type
REMARK                         _______ _______ _______ _____ _____    ______ ____
ROOT
ATOM      1  C   UNL     1       1.649   3.289   0.004  0.00  0.00    +0.068 C 
ENDROOT
BRANCH   1   2
ATOM      2  C   UNL     1       1.239   1.839   0.000  0.00  0.00    -0.013 A 
ATOM      3  C   UNL     1      -0.017   1.364   0.009  0.00  0.00    +0.088 A 
ATOM      4  N   UNL     1       0.002  -0.004   0.002  0.00  0.00    -0.360 N 
ATOM      5  H   UNL     1      -0.784  -0.572   0.006  0.00  0.00    +0.165 HD
ATOM      6  C   UNL     1       1.303  -0.455  -0.013  0.00  0.00    +0.047 A 
ATOM      7  C   UNL     1       2.135   0.680  -0.015  0.00  0.00    +0.003 A 
ATOM      8  C   UNL     1       3.522   0.527  -0.029  0.00  0.00    +0.010 A 
ATOM      9  C   UNL     1       4.066  -0.727  -0.041  0.00  0.00    +0.001 A 
ATOM     10  C   UNL     1       3.250  -1.850  -0.038  0.00  0.00    +0.002 A 
ATOM     11  C   UNL     1       1.878  -1.721  -0.025  0.00  0.00    +0.026 A 
ENDBRANCH   1   2
BRANCH   1  15
ATOM     12  C   UNL     1       0.132   5.190   3.518  0.00  0.00    +0.120 A 
ATOM     13  C   UNL     1       1.499   5.152   3.283  0.00  0.00    +0.046 A 
ATOM     14  C   UNL     1       1.987   4.537   2.147  0.00  0.00    +0.008 A 
ATOM     15  C   UNL     1       1.114   3.959   1.243  0.00  0.00    -0.038 A 
ATOM     16  C   UNL     1      -0.249   4.001   1.471  0.00  0.00    +0.008 A 
ATOM     17  C   UNL     1      -0.741   4.610   2.609  0.00  0.00    +0.046 A 
BRANCH  12  19
ATOM     18  C   UNL     1      -1.768   5.797   4.811  0.00  0.00    +0.277 C 
ATOM     19  O   UNL     1      -0.350   5.795   4.635  0.00  0.00    -0.495 OA
ENDBRANCH  12  19
ENDBRANCH   1  15
BRANCH   1  20
ATOM     20  C   UNL     1       1.081   3.982  -1.237  0.00  0.00    +0.117 C 
BRANCH  20  21
ATOM     21  N   UNL     1       1.692   3.410  -2.439  0.00  0.00    -0.313 N 
ATOM     22  C   UNL     1       1.342   3.869  -3.657  0.00  0.00    +0.231 C 
ATOM     23  O   UNL     1       0.521   4.756  -3.757  0.00  0.00    -0.274 OA
ATOM     24  H   UNL     1       2.349   2.700  -2.358  0.00  0.00    +0.149 HD
BRANCH  22  25
ATOM     25  C   UNL     1       1.970   3.280  -4.893  0.00  0.00    +0.213 C 
BRANCH  25  26
ATOM     26  N   UNL     1       1.427   3.944  -6.081  0.00  0.00    -0.215 N 
ATOM     27  C   UNL     1       1.961   5.049  -6.644  0.00  0.00    +0.247 C 
ATOM     28  O   UNL     1       2.943   5.659  -6.279  0.00  0.00    -0.273 OA
ATOM     29  C   UNL     1       1.075   5.362  -7.823  0.00  0.00    +0.113 C 
ATOM     30  C   UNL     1       1.871   5.329  -9.135  0.00  0.00    +0.035 C 
ATOM     31  C   UNL     1       1.222   6.445  -9.995  0.00  0.00    +0.003 C 
ATOM     32  C   UNL     1       0.900   7.543  -8.949  0.00  0.00    +0.003 C 
ATOM     33  C   UNL     1       0.454   6.755  -7.697  0.00  0.00    +0.035 C 
ATOM     34  N   UNL     1       0.051   4.316  -7.800  0.00  0.00    -0.285 N 
ATOM     35  C   UNL     1       0.342   3.527  -6.746  0.00  0.00    +0.310 C 
ATOM     36  O   UNL     1      -0.309   2.549  -6.433  0.00  0.00    -0.252 OA
ATOM     37  H   UNL     1      -0.687   4.210  -8.420  0.00  0.00    +0.151 HD
ENDBRANCH  25  26
ENDBRANCH  22  25
ENDBRANCH  20  21
ENDBRANCH   1  20
TORSDOF 7
