REMARK  Name = ZINC22603189
REMARK  5 active torsions:
REMARK  status: ('A' for Active; 'I' for Inactive)
REMARK    1  A    between atoms: C_3  and  N_16
REMARK    2  A    between atoms: C_5  and  S_7
REMARK    3  A    between atoms: S_7  and  N_10
REMARK    4  A    between atoms: C_17  and  C_19
REMARK    5  A    between atoms: C_20  and  C_21
REMARK                            x       y       z     vdW  Elec       q    Type
REMARK                         _______ _______ _______ _____ _____    ______ ____
ROOT
ATOM      1  C   UNL     1       2.600   2.433  -3.844  0.00  0.00    +0.004 A 
ATOM      2  C   UNL     1       3.468   1.365  -3.954  0.00  0.00    +0.023 A 
ATOM      3  C   UNL     1       3.709   0.552  -2.853  0.00  0.00    +0.036 A 
ATOM      4  C   UNL     1       3.081   0.821  -1.644  0.00  0.00    +0.052 A 
ATOM      5  C   UNL     1       2.211   1.889  -1.542  0.00  0.00    +0.110 A 
ATOM      6  C   UNL     1       1.972   2.696  -2.640  0.00  0.00    +0.029 A 
ENDROOT
BRANCH   3   7
ATOM      7  N   UNL     1       4.588  -0.530  -2.960  0.00  0.00    -0.282 N 
ATOM      8  C   UNL     1       4.656  -1.231  -4.109  0.00  0.00    +0.241 C 
ATOM      9  O   UNL     1       4.016  -0.872  -5.081  0.00  0.00    -0.270 OA
ATOM     10  H   UNL     1       5.223  -0.810  -2.107  0.00  0.00    +0.155 HD
BRANCH   8  11
ATOM     11  C   UNL     1       5.499  -2.423  -4.189  0.00  0.00    +0.068 C 
ATOM     12  C   UNL     1       5.567  -3.126  -5.340  0.00  0.00    +0.013 C 
BRANCH  12  13
ATOM     13  C   UNL     1       6.415  -4.324  -5.421  0.00  0.00    -0.020 A 
ATOM     14  C   UNL     1       6.483  -5.057  -6.612  0.00  0.00    +0.057 A 
ATOM     15  C   UNL     1       7.284  -6.179  -6.684  0.00  0.00    +0.168 A 
ATOM     16  C   UNL     1       8.016  -6.588  -5.568  0.00  0.00    +0.184 A 
ATOM     17  C   UNL     1       7.944  -5.864  -4.385  0.00  0.00    +0.087 A 
ATOM     18  C   UNL     1       7.151  -4.739  -4.306  0.00  0.00    +0.031 A 
ATOM     19 CL   UNL     1       8.857  -6.377  -3.000  0.00  0.00    -0.080 Cl
ATOM     20  O   UNL     1       8.714  -7.713  -5.895  0.00  0.00    -0.451 OA
ATOM     21  C   UNL     1       8.725  -7.756  -7.334  0.00  0.00    +0.466 C 
ATOM     22  O   UNL     1       7.527  -7.051  -7.707  0.00  0.00    -0.453 OA
ENDBRANCH  12  13
ENDBRANCH   8  11
ENDBRANCH   3   7
BRANCH   5  23
ATOM     23  S   UNL     1       1.408   2.228  -0.011  0.00  0.00    +0.073 S 
ATOM     24  O   UNL     1       1.068   3.607  -0.027  0.00  0.00    -0.150 OA
ATOM     25  O   UNL     1       2.217   1.654   1.007  0.00  0.00    -0.150 OA
BRANCH  23  26
ATOM     26  N   UNL     1      -0.020   1.389  -0.010  0.00  0.00    -0.205 N 
ATOM     27  C   UNL     1      -0.009   0.019  -0.019  0.00  0.00    +0.088 C 
ATOM     28  N   UNL     1       1.058  -0.702  -0.029  0.00  0.00    -0.375 N 
ATOM     29  C   UNL     1       0.759  -2.139  -0.035  0.00  0.00    +0.114 C 
ATOM     30  C   UNL     1      -0.728  -2.241  -0.447  0.00  0.00    +0.028 C 
ATOM     31  C   UNL     1      -1.249  -0.848  -0.013  0.00  0.00    +0.072 C 
ATOM     32  H   UNL     1      -0.976   1.931  -0.002  0.00  0.00    +0.175 HD
ATOM     33  H   UNL     1       2.047  -0.221  -0.032  0.00  0.00    +0.161 HD
ENDBRANCH  23  26
ENDBRANCH   5  23
TORSDOF 5
