REMARK  Name = ZINC36532129
REMARK  11 active torsions:
REMARK  status: ('A' for Active; 'I' for Inactive)
REMARK    1  A    between atoms: C_1  and  N_2
REMARK    2  A    between atoms: N_2  and  C_3
REMARK    3  A    between atoms: C_3  and  C_5
REMARK    4  A    between atoms: C_3  and  C_14
REMARK    5  A    between atoms: C_6  and  O_13
REMARK    6  A    between atoms: C_8  and  O_12
REMARK    7  A    between atoms: C_10  and  O_11
REMARK    8  A    between atoms: N_16  and  C_17
REMARK    9  A    between atoms: C_23  and  C_25
REMARK   10  A    between atoms: C_25  and  C_26
REMARK   11  A    between atoms: C_26  and  S_27
REMARK                            x       y       z     vdW  Elec       q    Type
REMARK                         _______ _______ _______ _____ _____    ______ ____
ROOT
ATOM      1  C   UNL     1       0.267  -0.923   1.215  0.00  0.00    +0.199 C 
ENDROOT
BRANCH   1   2
ATOM      2  C   UNL     1      -1.050  -0.256   1.519  0.00  0.00    +0.065 A 
ATOM      3  C   UNL     1      -1.131   0.688   2.531  0.00  0.00    +0.129 A 
ATOM      4  C   UNL     1      -2.342   1.302   2.811  0.00  0.00    +0.091 A 
ATOM      5  C   UNL     1      -3.472   0.973   2.078  0.00  0.00    +0.124 A 
ATOM      6  C   UNL     1      -3.391   0.029   1.065  0.00  0.00    +0.091 A 
ATOM      7  C   UNL     1      -2.179  -0.582   0.782  0.00  0.00    +0.129 A 
BRANCH   7   8
ATOM      8  O   UNL     1      -2.098  -1.503  -0.214  0.00  0.00    -0.506 OA
ATOM      9  H   UNL     1      -2.266  -2.410   0.075  0.00  0.00    +0.292 HD
ENDBRANCH   7   8
BRANCH   5  10
ATOM     10  O   UNL     1      -4.660   1.574   2.353  0.00  0.00    -0.507 OA
ATOM     11  H   UNL     1      -4.814   2.387   1.852  0.00  0.00    +0.292 HD
ENDBRANCH   5  10
BRANCH   3  12
ATOM     12  O   UNL     1      -0.024   1.011   3.250  0.00  0.00    -0.506 OA
ATOM     13  H   UNL     1       0.442   1.794   2.925  0.00  0.00    +0.292 HD
ENDBRANCH   3  12
ENDBRANCH   1   2
BRANCH   1  15
ATOM     14  C   UNL     1       0.377   0.228  -1.044  0.00  0.00    +0.133 C 
ATOM     15  N   UNL     1       0.456  -0.992  -0.236  0.00  0.00    -0.289 N 
ATOM     16  C   UNL     1       0.703  -2.178  -0.828  0.00  0.00    +0.217 C 
ATOM     17  O   UNL     1       0.768  -3.187  -0.160  0.00  0.00    -0.276 OA
BRANCH  16  18
ATOM     18  C   UNL     1       0.897  -2.248  -2.321  0.00  0.00    +0.106 C 
BRANCH  18  19
ATOM     19  C   UNL     1       1.160  -3.698  -2.733  0.00  0.00    +0.075 C 
BRANCH  19  20
ATOM     20  S   UNL     1       1.395  -3.783  -4.530  0.00  0.00    -0.178 S 
ATOM     21  H   UNL     1       1.615  -5.088  -4.768  0.00  0.00    +0.102 HD
ENDBRANCH  19  20
ENDBRANCH  18  19
ENDBRANCH  16  18
ENDBRANCH   1  15
BRANCH   1  22
ATOM     22  C   UNL     1       1.388  -0.127   1.831  0.00  0.00    +0.239 C 
ATOM     23  O   UNL     1       1.894   0.786   1.212  0.00  0.00    -0.273 OA
ATOM     24  N   UNL     1       1.829  -0.428   3.068  0.00  0.00    -0.311 N 
ATOM     25  H   UNL     1       1.447  -1.179   3.549  0.00  0.00    +0.149 HD
BRANCH  24  26
ATOM     26  C   UNL     1       2.883   0.379   3.687  0.00  0.00    +0.073 C 
ATOM     27  C   UNL     1       4.251  -0.135   3.234  0.00  0.00    +0.022 C 
ATOM     28  C   UNL     1       5.352   0.708   3.881  0.00  0.00    +0.002 C 
ATOM     29  C   UNL     1       5.247   0.603   5.404  0.00  0.00    +0.000 C 
ATOM     30  C   UNL     1       3.879   1.117   5.856  0.00  0.00    +0.002 C 
ATOM     31  C   UNL     1       2.777   0.275   5.210  0.00  0.00    +0.022 C 
ENDBRANCH  24  26
ENDBRANCH   1  22
TORSDOF 10
