REMARK  Name = ZINC16010117
REMARK  1 active torsions:
REMARK  status: ('A' for Active; 'I' for Inactive)
REMARK    1  A    between atoms: C_6  and  N_11
REMARK                            x       y       z     vdW  Elec       q    Type
REMARK                         _______ _______ _______ _____ _____    ______ ____
ROOT
ATOM      1  N   UNL     1       0.945   7.659  -2.232  0.00  0.00    -0.210 N 
ATOM      2  C   UNL     1      -0.003   8.356  -1.595  0.00  0.00    +0.228 C 
ATOM      3  O   UNL     1      -0.155   9.557  -1.664  0.00  0.00    -0.275 OA
ATOM      4  C   UNL     1      -0.855   7.413  -0.777  0.00  0.00    +0.074 C 
ATOM      5  C   UNL     1      -0.609   7.670   0.721  0.00  0.00    -0.054 C 
ATOM      6  C   UNL     1      -1.910   8.191   1.369  0.00  0.00    -0.016 C 
ATOM      7  C   UNL     1      -2.763   6.896   1.526  0.00  0.00    -0.020 C 
ATOM      8  C   UNL     1      -1.754   5.736   1.493  0.00  0.00    -0.076 C 
ATOM      9  N   UNL     1      -0.408   6.317   1.322  0.00  0.00    +0.395 N 
ATOM     10  C   UNL     1       0.338   5.569   0.294  0.00  0.00    +0.053 C 
ATOM     11  C   UNL     1      -0.222   6.022  -1.058  0.00  0.00    +0.089 C 
ATOM     12  C   UNL     1       0.915   6.342  -2.002  0.00  0.00    +0.229 C 
ATOM     13  O   UNL     1       1.681   5.530  -2.476  0.00  0.00    -0.275 OA
ATOM     14  C   UNL     1       0.190   4.085   0.481  0.00  0.00    -0.027 A 
ATOM     15  C   UNL     1      -0.893   3.235   0.497  0.00  0.00    +0.004 A 
ATOM     16  C   UNL     1      -0.705   1.878   0.692  0.00  0.00    +0.000 A 
ATOM     17  C   UNL     1       0.571   1.380   0.883  0.00  0.00    +0.002 A 
ATOM     18  C   UNL     1       1.659   2.227   0.868  0.00  0.00    +0.023 A 
ATOM     19  C   UNL     1       1.480   3.594   0.666  0.00  0.00    +0.036 A 
ATOM     20  N   UNL     1       2.406   4.637   0.608  0.00  0.00    -0.286 N 
ATOM     21  C   UNL     1       1.817   5.829   0.392  0.00  0.00    +0.212 C 
ATOM     22  O   UNL     1       2.370   6.904   0.296  0.00  0.00    -0.277 OA
ATOM     23  H   UNL     1       3.478   4.428   0.735  0.00  0.00    +0.155 HD
ATOM     24  H   UNL     1       0.121   6.301   2.287  0.00  0.00    -0.079 HD
ENDROOT
BRANCH   1  30
ATOM     25  C   UNL     1       4.704   9.818  -6.883  0.00  0.00    +0.001 A 
ATOM     26  C   UNL     1       3.744   8.968  -7.429  0.00  0.00    +0.001 A 
ATOM     27  C   UNL     1       2.810   8.368  -6.643  0.00  0.00    +0.008 A 
ATOM     28  C   UNL     1       2.810   8.607  -5.257  0.00  0.00    -0.016 A 
ATOM     29  C   UNL     1       1.865   8.001  -4.414  0.00  0.00    +0.032 A 
ATOM     30  C   UNL     1       1.892   8.261  -3.072  0.00  0.00    +0.044 A 
ATOM     31  C   UNL     1       2.857   9.115  -2.526  0.00  0.00    +0.024 A 
ATOM     32  C   UNL     1       3.788   9.712  -3.316  0.00  0.00    +0.010 A 
ATOM     33  C   UNL     1       3.786   9.472  -4.701  0.00  0.00    -0.018 A 
ATOM     34  C   UNL     1       4.735  10.073  -5.546  0.00  0.00    +0.008 A 
ENDBRANCH   1  30
TORSDOF 1
