REMARK  Name = ZINC44135722
REMARK  14 active torsions:
REMARK  status: ('A' for Active; 'I' for Inactive)
REMARK    1  A    between atoms: C_3  and  S_8
REMARK    2  A    between atoms: C_6  and  N_7
REMARK    3  A    between atoms: S_8  and  C_9
REMARK    4  A    between atoms: C_11  and  O_40
REMARK    5  A    between atoms: C_13  and  O_39
REMARK    6  A    between atoms: C_15  and  O_22
REMARK    7  A    between atoms: C_17  and  C_20
REMARK    8  A    between atoms: C_20  and  O_21
REMARK    9  A    between atoms: O_22  and  C_23
REMARK   10  A    between atoms: C_25  and  O_38
REMARK   11  A    between atoms: C_27  and  O_37
REMARK   12  A    between atoms: C_29  and  O_36
REMARK   13  A    between atoms: C_31  and  C_34
REMARK   14  A    between atoms: C_34  and  O_35
REMARK                            x       y       z     vdW  Elec       q    Type
REMARK                         _______ _______ _______ _____ _____    ______ ____
ROOT
ATOM      1  C   UNL     1       5.050   0.996   0.007  0.00  0.00    +0.212 C 
ATOM      2  C   UNL     1       6.394   1.707  -0.172  0.00  0.00    +0.185 C 
ATOM      3  C   UNL     1       7.517   0.666  -0.175  0.00  0.00    +0.178 C 
ATOM      4  C   UNL     1       7.455  -0.141   1.126  0.00  0.00    +0.183 C 
ATOM      5  C   UNL     1       6.070  -0.780   1.255  0.00  0.00    +0.176 C 
ATOM      6  O   UNL     1       5.070   0.240   1.220  0.00  0.00    -0.355 OA
ENDROOT
BRANCH   3   7
ATOM      7  O   UNL     1       7.352  -0.211  -1.291  0.00  0.00    -0.386 OA
ATOM      8  H   UNL     1       7.375   0.235  -2.149  0.00  0.00    +0.210 HD
ENDBRANCH   3   7
BRANCH   2   9
ATOM      9  O   UNL     1       6.396   2.418  -1.411  0.00  0.00    -0.386 OA
ATOM     10  H   UNL     1       5.706   3.092  -1.480  0.00  0.00    +0.210 HD
ENDBRANCH   2   9
BRANCH   1  11
ATOM     11  S   UNL     1       3.719   2.227   0.084  0.00  0.00    -0.091 S 
BRANCH  11  14
ATOM     12  C   UNL     1      -0.145   1.128   0.249  0.00  0.00    +0.024 A 
ATOM     13  C   UNL     1       1.008   1.886   0.205  0.00  0.00    +0.016 A 
ATOM     14  C   UNL     1       2.247   1.261   0.141  0.00  0.00    +0.011 A 
ATOM     15  C   UNL     1       2.325  -0.126   0.120  0.00  0.00    +0.016 A 
ATOM     16  C   UNL     1       1.171  -0.883   0.164  0.00  0.00    +0.024 A 
ATOM     17  C   UNL     1      -0.067  -0.258   0.228  0.00  0.00    +0.025 A 
BRANCH  17  18
ATOM     18  N   UNL     1      -1.237  -1.026   0.273  0.00  0.00    -0.358 N 
ATOM     19  H   UNL     1      -2.102  -0.590   0.318  0.00  0.00    +0.142 HD
ATOM     20  H   UNL     1      -1.183  -1.994   0.258  0.00  0.00    +0.142 HD
ENDBRANCH  17  18
ENDBRANCH  11  14
ENDBRANCH   1  11
BRANCH   5  21
ATOM     21  C   UNL     1       5.847  -1.753   0.095  0.00  0.00    +0.190 C 
BRANCH  21  22
ATOM     22  O   UNL     1       4.625  -2.465   0.298  0.00  0.00    -0.392 OA
ATOM     23  H   UNL     1       4.419  -3.101  -0.400  0.00  0.00    +0.210 HD
ENDBRANCH  21  22
ENDBRANCH   5  21
BRANCH   4  24
ATOM     24  O   UNL     1       7.686   0.727   2.237  0.00  0.00    -0.340 OA
BRANCH  24  25
ATOM     25  C   UNL     1       9.062   0.846   2.605  0.00  0.00    +0.282 C 
ATOM     26  C   UNL     1       9.205   1.888   3.718  0.00  0.00    +0.201 C 
ATOM     27  C   UNL     1       8.433   1.414   4.953  0.00  0.00    +0.179 C 
ATOM     28  C   UNL     1       8.959   0.038   5.374  0.00  0.00    +0.177 C 
ATOM     29  C   UNL     1       8.825  -0.932   4.198  0.00  0.00    +0.178 C 
ATOM     30  O   UNL     1       9.541  -0.417   3.073  0.00  0.00    -0.341 OA
BRANCH  28  31
ATOM     31  O   UNL     1       8.197  -0.445   6.482  0.00  0.00    -0.386 OA
ATOM     32  H   UNL     1       8.233   0.125   7.263  0.00  0.00    +0.210 HD
ENDBRANCH  28  31
BRANCH  27  33
ATOM     33  O   UNL     1       8.619   2.346   6.020  0.00  0.00    -0.386 OA
ATOM     34  H   UNL     1       8.313   3.241   5.818  0.00  0.00    +0.210 HD
ENDBRANCH  27  33
BRANCH  26  35
ATOM     35  O   UNL     1      10.586   2.046   4.048  0.00  0.00    -0.384 OA
ATOM     36  H   UNL     1      11.136   2.341   3.310  0.00  0.00    +0.210 HD
ENDBRANCH  26  35
BRANCH  29  37
ATOM     37  C   UNL     1       9.403  -2.293   4.591  0.00  0.00    +0.190 C 
BRANCH  37  38
ATOM     38  O   UNL     1       9.174  -3.230   3.537  0.00  0.00    -0.392 OA
ATOM     39  H   UNL     1       9.515  -4.117   3.718  0.00  0.00    +0.210 HD
ENDBRANCH  37  38
ENDBRANCH  29  37
ENDBRANCH  24  25
ENDBRANCH   4  24
TORSDOF 14
