REMARK  Name = ZINC01111751
REMARK  5 active torsions:
REMARK  status: ('A' for Active; 'I' for Inactive)
REMARK    1  A    between atoms: C_1  and  C_2
REMARK    2  A    between atoms: C_2  and  C_3
REMARK    3  A    between atoms: C_2  and  C_4
REMARK    4  A    between atoms: C_7  and  C_10
REMARK    5  A    between atoms: C_13  and  C_22
REMARK                            x       y       z     vdW  Elec       q    Type
REMARK                         _______ _______ _______ _____ _____    ______ ____
ROOT
ATOM      1  C   UNL     1      -5.419  -2.005   0.043  0.00  0.00    +0.143 C 
ATOM      2  C   UNL     1      -6.160  -1.509  -1.204  0.00  0.00    +0.058 C 
ATOM      3  C   UNL     1      -7.495  -2.250  -1.343  0.00  0.00    +0.106 C 
ATOM      4  N   UNL     1      -7.218  -3.688  -1.526  0.00  0.00    -0.307 N 
ATOM      5  C   UNL     1      -6.241  -4.235  -0.704  0.00  0.00    +0.216 A 
ATOM      6  N   UNL     1      -5.401  -3.467   0.035  0.00  0.00    -0.224 N 
ATOM      7  N   UNL     1      -4.569  -4.342   0.734  0.00  0.00    -0.132 NA
ATOM      8  C   UNL     1      -4.931  -5.560   0.399  0.00  0.00    +0.233 A 
ATOM      9  N   UNL     1      -5.948  -5.488  -0.481  0.00  0.00    -0.180 NA
ATOM     10  N   UNL     1      -4.351  -6.737   0.873  0.00  0.00    -0.326 N 
ATOM     11  H   UNL     1      -7.691  -4.221  -2.183  0.00  0.00    +0.149 HD
ATOM     12  H   UNL     1      -3.616  -6.696   1.505  0.00  0.00    +0.145 HD
ATOM     13  H   UNL     1      -4.683  -7.597   0.571  0.00  0.00    +0.145 HD
ENDROOT
BRANCH   3  14
ATOM     14  C   UNL     1      -8.247  -1.720  -2.536  0.00  0.00    -0.027 A 
ATOM     15  C   UNL     1      -7.921  -2.156  -3.807  0.00  0.00    +0.006 A 
ATOM     16  C   UNL     1      -8.611  -1.670  -4.902  0.00  0.00    +0.015 A 
ATOM     17  C   UNL     1      -9.627  -0.749  -4.726  0.00  0.00    +0.018 A 
ATOM     18  C   UNL     1      -9.953  -0.313  -3.454  0.00  0.00    +0.015 A 
ATOM     19  C   UNL     1      -9.266  -0.803  -2.359  0.00  0.00    +0.006 A 
ATOM     20 BR   UNL     1     -10.571  -0.084  -6.224  0.00  0.00    -0.050 Br
ENDBRANCH   3  14
BRANCH   1  24
ATOM     21  C   UNL     1      -1.412  -0.526   0.013  0.00  0.00    -0.045 A 
ATOM     22  C   UNL     1      -2.259  -0.204   1.056  0.00  0.00    +0.004 A 
ATOM     23  C   UNL     1      -3.556  -0.683   1.066  0.00  0.00    +0.006 A 
ATOM     24  C   UNL     1      -4.006  -1.482   0.032  0.00  0.00    -0.023 A 
ATOM     25  C   UNL     1      -3.159  -1.803  -1.012  0.00  0.00    +0.006 A 
ATOM     26  C   UNL     1      -1.863  -1.321  -1.024  0.00  0.00    +0.004 A 
BRANCH  21  28
ATOM     27  C   UNL     1      -0.019   1.526   0.010  0.00  0.00    +0.012 C 
ATOM     28  C   UNL     1       0.002  -0.004   0.002  0.00  0.00    +0.013 C 
ATOM     29  C   UNL     1       0.742  -0.511   1.242  0.00  0.00    +0.012 C 
ENDBRANCH  21  28
ENDBRANCH   1  24
TORSDOF 3
