REMARK  Name = ZINC14954283
REMARK  10 active torsions:
REMARK  status: ('A' for Active; 'I' for Inactive)
REMARK    1  A    between atoms: C_1  and  C_2
REMARK    2  A    between atoms: C_2  and  C_4
REMARK    3  A    between atoms: C_2  and  C_14
REMARK    4  A    between atoms: C_4  and  C_5
REMARK    5  A    between atoms: C_14  and  N_68
REMARK    6  A    between atoms: C_20  and  C_24
REMARK    7  A    between atoms: C_24  and  C_25
REMARK    8  A    between atoms: C_25  and  N_26
REMARK    9  A    between atoms: C_27  and  C_29
REMARK   10  A    between atoms: C_29  and  C_30
REMARK                            x       y       z     vdW  Elec       q    Type
REMARK                         _______ _______ _______ _____ _____    ______ ____
ROOT
ATOM      1  C   UNL     1      -0.272  -4.213  -3.465  0.00  0.00    -0.071 C 
ATOM      2  C   UNL     1      -1.383  -5.244  -3.240  0.00  0.00    +0.058 C 
ATOM      3  C   UNL     1      -1.358  -6.240  -4.370  0.00  0.00    +0.132 A 
ATOM      4  N   UNL     1      -2.368  -6.699  -5.049  0.00  0.00    -0.134 NA
ATOM      5  N   UNL     1      -1.952  -7.561  -5.910  0.00  0.00    -0.134 NA
ATOM      6  C   UNL     1      -0.653  -7.684  -5.819  0.00  0.00    +0.135 A 
ATOM      7  N   UNL     1      -0.241  -6.841  -4.850  0.00  0.00    -0.317 N 
ATOM      8  C   UNL     1       1.129  -6.598  -4.397  0.00  0.00    +0.106 C 
ATOM      9  C   UNL     1       1.102  -6.149  -2.933  0.00  0.00    -0.057 C 
ATOM     10  N   UNL     1       1.004  -4.673  -2.875  0.00  0.00    +0.381 N 
ATOM     11  H   UNL     1       1.781  -4.269  -3.412  0.00  0.00    -0.082 HD
ENDROOT
BRANCH  10  12
ATOM     12  C   UNL     1       1.102  -4.217  -1.477  0.00  0.00    -0.075 C 
BRANCH  12  14
ATOM     13  C   UNL     1       2.510  -2.269  -2.161  0.00  0.00    +0.006 C 
ATOM     14  C   UNL     1       1.213  -2.691  -1.467  0.00  0.00    -0.026 C 
BRANCH  14  15
ATOM     15  C   UNL     1       1.222  -2.189  -0.022  0.00  0.00    +0.036 C 
BRANCH  15  16
ATOM     16  C   UNL     1       1.207  -0.682  -0.013  0.00  0.00    -0.043 A 
ATOM     17  C   UNL     1       0.002  -0.004   0.002  0.00  0.00    +0.007 A 
ATOM     18  C   UNL     1      -0.017   1.378   0.010  0.00  0.00    +0.050 A 
ATOM     19  C   UNL     1       1.173   2.088   0.002  0.00  0.00    +0.166 A 
ATOM     20  C   UNL     1       2.387   1.405  -0.014  0.00  0.00    +0.166 A 
ATOM     21  C   UNL     1       2.398   0.019  -0.021  0.00  0.00    +0.053 A 
ATOM     22  O   UNL     1       3.401   2.318  -0.019  0.00  0.00    -0.453 OA
ATOM     23  C   UNL     1       2.797   3.562  -0.418  0.00  0.00    +0.466 C 
ATOM     24  O   UNL     1       1.427   3.429   0.007  0.00  0.00    -0.453 OA
ENDBRANCH  15  16
ENDBRANCH  14  15
ENDBRANCH  12  14
ENDBRANCH  10  12
BRANCH   6  25
ATOM     25  C   UNL     1       0.219  -8.596  -6.643  0.00  0.00    +0.095 C 
BRANCH  25  26
ATOM     26  C   UNL     1       0.347  -9.950  -5.942  0.00  0.00    +0.112 C 
BRANCH  26  27
ATOM     27  N   UNL     1       1.195 -10.837  -6.742  0.00  0.00    -0.315 N 
ATOM     28  C   UNL     1       1.450 -12.090  -6.318  0.00  0.00    +0.217 C 
ATOM     29  O   UNL     1       0.977 -12.484  -5.273  0.00  0.00    -0.275 OA
ATOM     30  H   UNL     1       1.573 -10.521  -7.578  0.00  0.00    +0.149 HD
BRANCH  28  31
ATOM     31  C   UNL     1       2.322 -13.002  -7.141  0.00  0.00    +0.130 C 
BRANCH  31  32
ATOM     32  C   UNL     1       2.449 -14.335  -6.451  0.00  0.00    -0.038 A 
ATOM     33  C   UNL     1       3.476 -14.553  -5.552  0.00  0.00    +0.007 A 
ATOM     34  C   UNL     1       3.590 -15.774  -4.914  0.00  0.00    +0.038 A 
ATOM     35  C   UNL     1       2.681 -16.783  -5.184  0.00  0.00    +0.123 A 
ATOM     36  C   UNL     1       1.655 -16.565  -6.088  0.00  0.00    +0.038 A 
ATOM     37  C   UNL     1       1.540 -15.342  -6.721  0.00  0.00    +0.007 A 
ATOM     38  F   UNL     1       2.794 -17.978  -4.565  0.00  0.00    -0.205 F 
ENDBRANCH  31  32
ENDBRANCH  28  31
ENDBRANCH  26  27
ENDBRANCH  25  26
ENDBRANCH   6  25
TORSDOF 9
