REMARK  Name = ZINC27007413
REMARK  14 active torsions:
REMARK  status: ('A' for Active; 'I' for Inactive)
REMARK    1  A    between atoms: C_1  and  C_2
REMARK    2  A    between atoms: C_2  and  C_3
REMARK    3  A    between atoms: C_3  and  C_5
REMARK    4  A    between atoms: C_3  and  C_6
REMARK    5  A    between atoms: C_11  and  N_12
REMARK    6  A    between atoms: C_13  and  C_15
REMARK    7  A    between atoms: C_15  and  C_17
REMARK    8  A    between atoms: C_15  and  N_18
REMARK    9  A    between atoms: N_18  and  C_19
REMARK   10  A    between atoms: C_22  and  C_25
REMARK   11  A    between atoms: C_25  and  C_26
REMARK   12  A    between atoms: N_28  and  C_29
REMARK   13  A    between atoms: C_29  and  C_30
REMARK   14  A    between atoms: C_29  and  C_31
REMARK                            x       y       z     vdW  Elec       q    Type
REMARK                         _______ _______ _______ _____ _____    ______ ____
ROOT
ATOM      1  C   UNL     1      -3.580  -1.480   4.415  0.00  0.00    +0.154 C 
ATOM      2  C   UNL     1      -4.842  -0.862   3.809  0.00  0.00    +0.038 C 
ENDROOT
BRANCH   1   4
ATOM      3  N   UNL     1      -2.470  -1.794   2.228  0.00  0.00    -0.284 N 
ATOM      4  C   UNL     1      -2.897  -2.340   3.384  0.00  0.00    +0.237 C 
ATOM      5  O   UNL     1      -2.731  -3.523   3.594  0.00  0.00    -0.273 OA
ATOM      6  H   UNL     1      -2.561  -0.711   2.064  0.00  0.00    +0.155 HD
BRANCH   3  12
ATOM      7  C   UNL     1      -1.961  -2.215  -0.096  0.00  0.00    -0.023 A 
ATOM      8  C   UNL     1      -1.403  -3.017  -1.072  0.00  0.00    +0.006 A 
ATOM      9  C   UNL     1      -0.798  -4.211  -0.726  0.00  0.00    +0.000 A 
ATOM     10  C   UNL     1      -0.750  -4.607   0.598  0.00  0.00    +0.002 A 
ATOM     11  C   UNL     1      -1.307  -3.810   1.579  0.00  0.00    +0.023 A 
ATOM     12  C   UNL     1      -1.910  -2.607   1.235  0.00  0.00    +0.037 A 
BRANCH   7  13
ATOM     13  C   UNL     1      -2.619  -0.913  -0.474  0.00  0.00    +0.017 C 
ATOM     14  C   UNL     1      -3.696  -1.173  -1.528  0.00  0.00    +0.012 C 
BRANCH  13  16
ATOM     15  C   UNL     1      -2.211   1.405  -1.311  0.00  0.00    +0.004 C 
ATOM     16  C   UNL     1      -1.569   0.043  -1.043  0.00  0.00    +0.004 C 
ENDBRANCH  13  16
ENDBRANCH   7  13
ENDBRANCH   3  12
ENDBRANCH   1   4
BRANCH   1  17
ATOM     17  N   UNL     1      -3.946  -2.302   5.572  0.00  0.00    -0.333 N 
ATOM     18  H   UNL     1      -4.100  -3.384   5.450  0.00  0.00    +0.147 HD
BRANCH  17  19
ATOM     19  C   UNL     1      -4.098  -1.711   6.828  0.00  0.00    +0.028 A 
ATOM     20  C   UNL     1      -3.898  -0.345   6.984  0.00  0.00    +0.023 A 
ATOM     21  C   UNL     1      -4.054   0.237   8.227  0.00  0.00    +0.006 A 
ATOM     22  C   UNL     1      -4.399  -0.541   9.317  0.00  0.00    -0.039 A 
ATOM     23  C   UNL     1      -4.594  -1.901   9.167  0.00  0.00    +0.006 A 
ATOM     24  C   UNL     1      -4.445  -2.489   7.926  0.00  0.00    +0.023 A 
BRANCH  22  25
ATOM     25  C   UNL     1      -4.563   0.097  10.673  0.00  0.00    +0.130 C 
BRANCH  25  26
ATOM     26  C   UNL     1      -3.243   0.082  11.399  0.00  0.00    +0.218 C 
ATOM     27  O   UNL     1      -2.264  -0.399  10.867  0.00  0.00    -0.275 OA
ATOM     28  N   UNL     1      -3.149   0.603  12.638  0.00  0.00    -0.313 N 
ATOM     29  H   UNL     1      -4.036   1.039  13.120  0.00  0.00    +0.149 HD
BRANCH  28  30
ATOM     30  C   UNL     1      -1.865   0.588  13.343  0.00  0.00    +0.067 C 
ATOM     31  C   UNL     1      -1.837   1.718  14.375  0.00  0.00    +0.027 C 
ATOM     32  C   UNL     1      -1.688  -0.755  14.054  0.00  0.00    +0.027 C 
ENDBRANCH  28  30
ENDBRANCH  25  26
ENDBRANCH  22  25
ENDBRANCH  17  19
ENDBRANCH   1  17
TORSDOF 9
