REMARK  Name = ZINC67631163
REMARK  12 active torsions:
REMARK  status: ('A' for Active; 'I' for Inactive)
REMARK    1  A    between atoms: C_1  and  C_2
REMARK    2  A    between atoms: N_5  and  C_8
REMARK    3  A    between atoms: C_8  and  C_9
REMARK    4  A    between atoms: C_9  and  C_11
REMARK    5  A    between atoms: C_9  and  O_27
REMARK    6  A    between atoms: C_11  and  N_12
REMARK    7  A    between atoms: N_15  and  C_16
REMARK    8  A    between atoms: C_16  and  C_17
REMARK    9  A    between atoms: C_22  and  O_23
REMARK   10  A    between atoms: O_23  and  C_24
REMARK   11  A    between atoms: C_24  and  C_25
REMARK   12  A    between atoms: C_24  and  C_26
REMARK                            x       y       z     vdW  Elec       q    Type
REMARK                         _______ _______ _______ _____ _____    ______ ____
ROOT
ATOM      1  N   UNL     1       1.215  -6.133   4.310  0.00  0.00    -0.297 N 
ATOM      2  C   UNL     1       1.155  -7.472   4.453  0.00  0.00    +0.300 C 
ATOM      3  O   UNL     1       0.707  -8.160   3.555  0.00  0.00    -0.253 OA
ATOM      4  N   UNL     1       1.591  -8.049   5.590  0.00  0.00    -0.295 N 
ATOM      5  H   UNL     1       1.572  -5.585   5.025  0.00  0.00    +0.150 HD
ATOM      6  H   UNL     1       1.948  -7.500   6.306  0.00  0.00    +0.151 HD
ENDROOT
BRANCH   1   7
ATOM      7  C   UNL     1       0.741  -5.507   3.073  0.00  0.00    +0.135 C 
BRANCH   7   8
ATOM      8  C   UNL     1       0.920  -3.990   3.169  0.00  0.00    +0.115 C 
BRANCH   8   9
ATOM      9  O   UNL     1       2.312  -3.678   3.241  0.00  0.00    -0.392 OA
ATOM     10  H   UNL     1       2.823  -3.978   2.476  0.00  0.00    +0.210 HD
ENDBRANCH   8   9
BRANCH   8  11
ATOM     11  C   UNL     1       0.312  -3.326   1.932  0.00  0.00    -0.046 C 
BRANCH  11  16
ATOM     12  C   UNL     1      -0.332   2.336   2.172  0.00  0.00    +0.007 C 
ATOM     13  C   UNL     1      -0.599   0.836   2.033  0.00  0.00    -0.018 C 
ATOM     14  C   UNL     1      -0.196   0.121   3.326  0.00  0.00    -0.016 C 
ATOM     15  C   UNL     1      -0.392  -1.386   3.152  0.00  0.00    -0.078 C 
ATOM     16  N   UNL     1       0.443  -1.867   2.045  0.00  0.00    +0.381 N 
ATOM     17  C   UNL     1       0.015  -1.240   0.789  0.00  0.00    -0.078 C 
ATOM     18  C   UNL     1       0.226   0.273   0.872  0.00  0.00    -0.016 C 
ATOM     19  H   UNL     1       1.408  -1.632   2.225  0.00  0.00    -0.082 HD
ENDBRANCH  11  16
ENDBRANCH   8  11
ENDBRANCH   7   8
ENDBRANCH   1   7
BRANCH   4  20
ATOM     20  C   UNL     1       1.526  -9.504   5.746  0.00  0.00    +0.144 C 
BRANCH  20  21
ATOM     21  C   UNL     1       2.071  -9.890   7.097  0.00  0.00    +0.011 A 
ATOM     22  C   UNL     1       3.365 -10.359   7.212  0.00  0.00    +0.009 A 
ATOM     23  C   UNL     1       3.865 -10.714   8.450  0.00  0.00    +0.001 A 
ATOM     24  C   UNL     1       3.073 -10.599   9.578  0.00  0.00    +0.004 A 
ATOM     25  C   UNL     1       1.778 -10.130   9.468  0.00  0.00    +0.046 A 
ATOM     26  C   UNL     1       1.275  -9.768   8.226  0.00  0.00    +0.126 A 
BRANCH  26  27
ATOM     27  O   UNL     1       0.004  -9.301   8.117  0.00  0.00    -0.489 OA
BRANCH  27  28
ATOM     28  C   UNL     1      -0.724  -9.108   9.332  0.00  0.00    +0.167 C 
ATOM     29  C   UNL     1      -1.821  -8.066   9.109  0.00  0.00    +0.051 C 
ATOM     30  C   UNL     1      -1.358 -10.433   9.762  0.00  0.00    +0.051 C 
ENDBRANCH  27  28
ENDBRANCH  26  27
ENDBRANCH  20  21
ENDBRANCH   4  20
TORSDOF 9
