REMARK  Name = ZINC49550267
REMARK  3 active torsions:
REMARK  status: ('A' for Active; 'I' for Inactive)
REMARK    1  A    between atoms: C_6  and  N_7
REMARK    2  A    between atoms: N_7  and  S_8
REMARK    3  A    between atoms: S_8  and  C_11
REMARK                            x       y       z     vdW  Elec       q    Type
REMARK                         _______ _______ _______ _____ _____    ______ ____
ROOT
ATOM      1  C   UNL     1      -2.849  -2.922   0.014  0.00  0.00    +0.112 A 
ATOM      2  C   UNL     1      -3.493  -3.135   1.218  0.00  0.00    +0.030 A 
ATOM      3  C   UNL     1      -4.809  -3.565   1.239  0.00  0.00    +0.018 A 
ATOM      4  C   UNL     1      -5.478  -3.779   0.045  0.00  0.00    +0.029 A 
ATOM      5  C   UNL     1      -4.830  -3.562  -1.169  0.00  0.00    +0.049 A 
ATOM      6  C   UNL     1      -3.515  -3.128  -1.182  0.00  0.00    +0.053 A 
ATOM      7  N   UNL     1      -5.524  -3.778  -2.369  0.00  0.00    -0.284 N 
ATOM      8  C   UNL     1      -6.730  -3.228  -2.562  0.00  0.00    +0.218 C 
ATOM      9  O   UNL     1      -7.398  -3.578  -3.512  0.00  0.00    -0.275 OA
ATOM     10  C   UNL     1      -7.269  -2.188  -1.625  0.00  0.00    +0.107 C 
ATOM     11  C   UNL     1      -8.077  -2.849  -0.495  0.00  0.00    +0.083 C 
ATOM     12  S   UNL     1      -7.154  -4.330   0.041  0.00  0.00    -0.123 S 
ATOM     13  H   UNL     1      -5.129  -4.329  -3.063  0.00  0.00    +0.155 HD
ENDROOT
BRANCH   1  14
ATOM     14  S   UNL     1      -1.174  -2.376   0.001  0.00  0.00    +0.092 S 
ATOM     15  O   UNL     1      -0.629  -2.768  -1.252  0.00  0.00    -0.148 OA
ATOM     16  O   UNL     1      -0.605  -2.781   1.238  0.00  0.00    -0.148 OA
BRANCH  14  17
ATOM     17  N   UNL     1      -1.198  -0.720   0.010  0.00  0.00    -0.098 NA
BRANCH  17  23
ATOM     18  C   UNL     1      -0.017   1.385   0.010  0.00  0.00    +0.028 A 
ATOM     19  C   UNL     1       1.171   2.091   0.002  0.00  0.00    +0.023 A 
ATOM     20  C   UNL     1       2.378   1.416  -0.013  0.00  0.00    +0.059 A 
ATOM     21  C   UNL     1       2.401   0.031  -0.021  0.00  0.00    +0.061 A 
ATOM     22  C   UNL     1       1.216  -0.680  -0.013  0.00  0.00    +0.048 A 
ATOM     23  C   UNL     1       0.002  -0.004   0.002  0.00  0.00    +0.076 A 
ATOM     24 CL   UNL     1       3.918  -0.812  -0.041  0.00  0.00    -0.082 Cl
ATOM     25 CL   UNL     1       3.868   2.307  -0.024  0.00  0.00    -0.082 Cl
ENDBRANCH  17  23
ENDBRANCH  14  17
ENDBRANCH   1  14
TORSDOF 3
