REMARK  Name = ZINC20167935
REMARK  11 active torsions:
REMARK  status: ('A' for Active; 'I' for Inactive)
REMARK    1  A    between atoms: C_1  and  C_2
REMARK    2  A    between atoms: C_2  and  O_3
REMARK    3  A    between atoms: O_3  and  C_4
REMARK    4  A    between atoms: C_4  and  C_6
REMARK    5  A    between atoms: C_7  and  N_37
REMARK    6  A    between atoms: C_9  and  C_10
REMARK    7  A    between atoms: C_18  and  C_32
REMARK    8  A    between atoms: C_20  and  C_25
REMARK    9  A    between atoms: C_32  and  O_34
REMARK   10  A    between atoms: O_34  and  C_35
REMARK   11  A    between atoms: C_35  and  C_36
REMARK                            x       y       z     vdW  Elec       q    Type
REMARK                         _______ _______ _______ _____ _____    ______ ____
ROOT
ATOM      1  C   UNL     1       1.223   3.244  -0.997  0.00  0.00    +0.155 A 
ATOM      2  C   UNL     1       0.181   4.019  -0.539  0.00  0.00    +0.065 A 
ATOM      3  C   UNL     1       0.769   5.234   0.052  0.00  0.00    +0.024 A 
ATOM      4  C   UNL     1       0.102   6.270   0.677  0.00  0.00    +0.022 C 
ATOM      5  C   UNL     1       2.215   5.111  -0.168  0.00  0.00    +0.079 A 
ATOM      6  C   UNL     1       3.178   6.069   0.088  0.00  0.00    +0.118 C 
ATOM      7  S   UNL     1       4.840   5.716  -0.407  0.00  0.00    -0.098 S 
ATOM      8  C   UNL     1       4.909   3.902  -0.344  0.00  0.00    +0.173 C 
ATOM      9  C   UNL     1       3.662   3.327  -0.961  0.00  0.00    +0.250 C 
ATOM     10  O   UNL     1       3.753   2.360  -1.687  0.00  0.00    -0.271 OA
ATOM     11  N   UNL     1       2.448   3.863  -0.725  0.00  0.00    -0.270 N 
ENDROOT
BRANCH   4  12
ATOM     12  C   UNL     1      -1.327   6.148   0.971  0.00  0.00    +0.011 A 
ATOM     13  C   UNL     1      -1.845   4.945   1.469  0.00  0.00    +0.011 A 
ATOM     14  C   UNL     1      -3.191   4.840   1.744  0.00  0.00    +0.001 A 
ATOM     15  C   UNL     1      -4.033   5.918   1.530  0.00  0.00    +0.003 A 
ATOM     16  C   UNL     1      -3.534   7.111   1.038  0.00  0.00    +0.039 A 
ATOM     17  C   UNL     1      -2.187   7.238   0.762  0.00  0.00    +0.131 A 
ATOM     18  F   UNL     1      -1.699   8.405   0.287  0.00  0.00    -0.205 F 
ENDBRANCH   4  12
BRANCH   8  19
ATOM     19  C   UNL     1       6.116   3.419  -1.106  0.00  0.00    +0.010 A 
ATOM     20  C   UNL     1       6.653   4.197  -2.115  0.00  0.00    +0.008 A 
ATOM     21  C   UNL     1       7.760   3.754  -2.814  0.00  0.00    +0.000 A 
ATOM     22  C   UNL     1       8.332   2.533  -2.505  0.00  0.00    +0.003 A 
ATOM     23  C   UNL     1       7.796   1.755  -1.497  0.00  0.00    +0.038 A 
ATOM     24  C   UNL     1       6.690   2.199  -0.793  0.00  0.00    +0.128 A 
ATOM     25  F   UNL     1       6.169   1.441   0.197  0.00  0.00    -0.205 F 
ENDBRANCH   8  19
BRANCH   2  26
ATOM     26  N   UNL     1      -1.165   3.714  -0.617  0.00  0.00    -0.356 N 
ATOM     27  H   UNL     1      -1.912   4.414  -0.214  0.00  0.00    +0.142 HD
ATOM     28  H   UNL     1      -1.489   2.771  -1.081  0.00  0.00    +0.142 HD
ENDBRANCH   2  26
BRANCH   1  29
ATOM     29  C   UNL     1       1.076   2.004  -1.655  0.00  0.00    +0.358 C 
ATOM     30  O   UNL     1       1.828   1.083  -1.393  0.00  0.00    -0.243 OA
BRANCH  29  31
ATOM     31  O   UNL     1       0.101   1.838  -2.574  0.00  0.00    -0.460 OA
BRANCH  31  33
ATOM     32  C   UNL     1      -1.145   0.560  -4.203  0.00  0.00    +0.048 C 
ATOM     33  C   UNL     1       0.010   0.557  -3.200  0.00  0.00    +0.229 C 
ENDBRANCH  31  33
ENDBRANCH  29  31
ENDBRANCH   1  29
BRANCH   6  34
ATOM     34  C   UNL     1       2.847   7.289   0.722  0.00  0.00    +0.348 C 
ATOM     35  O   UNL     1       2.667   8.292   0.057  0.00  0.00    -0.244 OA
BRANCH  34  36
ATOM     36  O   UNL     1       2.732   7.340   2.067  0.00  0.00    -0.461 OA
BRANCH  36  37
ATOM     37  C   UNL     1       2.395   8.605   2.641  0.00  0.00    +0.229 C 
ATOM     38  C   UNL     1       2.309   8.468   4.162  0.00  0.00    +0.048 C 
ENDBRANCH  36  37
ENDBRANCH  34  36
ENDBRANCH   6  34
TORSDOF 9
