REMARK  Name = ZINC65297858
REMARK  5 active torsions:
REMARK  status: ('A' for Active; 'I' for Inactive)
REMARK    1  A    between atoms: C_1  and  C_2
REMARK    2  A    between atoms: C_5  and  C_8
REMARK    3  A    between atoms: N_13  and  C_16
REMARK    4  A    between atoms: C_18  and  C_21
REMARK    5  A    between atoms: C_26  and  O_27
REMARK                            x       y       z     vdW  Elec       q    Type
REMARK                         _______ _______ _______ _____ _____    ______ ____
ROOT
ATOM      1  C   UNL     1       0.059  -4.249  -0.021  0.00  0.00    +0.047 C 
ATOM      2  N   UNL     1       0.067  -4.852  -1.150  0.00  0.00    -0.266 NA
ATOM      3  C   UNL     1       0.076  -6.302  -1.304  0.00  0.00    +0.109 C 
ATOM      4  C   UNL     1       1.041  -6.692  -2.429  0.00  0.00    +0.027 C 
ATOM      5  C   UNL     1       0.546  -6.092  -3.747  0.00  0.00    -0.076 C 
ATOM      6  N   UNL     1      -0.793  -6.608  -4.052  0.00  0.00    +0.378 N 
ATOM      7  C   UNL     1      -1.740  -6.183  -3.013  0.00  0.00    -0.076 C 
ATOM      8  C   UNL     1      -1.332  -6.787  -1.668  0.00  0.00    +0.027 C 
ATOM      9  C   UNL     1      -1.232  -6.089  -5.354  0.00  0.00    -0.096 C 
ATOM     10  N   UNL     1       0.501  -6.949  -0.055  0.00  0.00    -0.286 NA
ATOM     11  C   UNL     1      -0.296  -6.443   1.075  0.00  0.00    +0.095 C 
ATOM     12  C   UNL     1       0.075  -4.972   1.297  0.00  0.00    +0.079 C 
ATOM     13  H   UNL     1       0.431  -7.953  -0.126  0.00  0.00    +0.125 HD
ATOM     14  H   UNL     1      -0.764  -7.616  -4.086  0.00  0.00    -0.082 HD
ENDROOT
BRANCH   1  19
ATOM     15  C   UNL     1      -0.018   1.503   0.010  0.00  0.00    +0.044 C 
ATOM     16  C   UNL     1       0.002  -0.004   0.002  0.00  0.00    -0.050 A 
ATOM     17  C   UNL     1       0.006  -0.686  -1.202  0.00  0.00    +0.004 A 
ATOM     18  C   UNL     1       0.024  -2.065  -1.217  0.00  0.00    +0.010 A 
ATOM     19  C   UNL     1       0.040  -2.773  -0.013  0.00  0.00    -0.004 A 
ATOM     20  C   UNL     1       0.036  -2.079   1.198  0.00  0.00    +0.010 A 
ATOM     21  C   UNL     1       0.023  -0.699   1.198  0.00  0.00    +0.004 A 
ENDBRANCH   1  19
BRANCH  11  22
ATOM     22  C   UNL     1       0.019  -7.239   2.316  0.00  0.00    +0.011 A 
ATOM     23  C   UNL     1       1.240  -7.874   2.438  0.00  0.00    +0.009 A 
ATOM     24  C   UNL     1       1.530  -8.605   3.576  0.00  0.00    +0.001 A 
ATOM     25  C   UNL     1       0.599  -8.700   4.594  0.00  0.00    +0.004 A 
ATOM     26  C   UNL     1      -0.622  -8.066   4.477  0.00  0.00    +0.046 A 
ATOM     27  C   UNL     1      -0.913  -7.329   3.339  0.00  0.00    +0.122 A 
BRANCH  27  28
ATOM     28  O   UNL     1      -2.112  -6.699   3.223  0.00  0.00    -0.506 OA
ATOM     29  H   UNL     1      -2.802  -7.239   2.814  0.00  0.00    +0.292 HD
ENDBRANCH  27  28
ENDBRANCH  11  22
TORSDOF 3
