REMARK  Name = ZINC01511278
REMARK  9 active torsions:
REMARK  status: ('A' for Active; 'I' for Inactive)
REMARK    1  A    between atoms: C_1  and  C_2
REMARK    2  A    between atoms: C_2  and  C_4
REMARK    3  A    between atoms: C_2  and  N_10
REMARK    4  A    between atoms: N_10  and  N_23
REMARK    5  A    between atoms: N_13  and  C_14
REMARK    6  A    between atoms: C_24  and  C_26
REMARK    7  A    between atoms: C_26  and  C_27
REMARK    8  A    between atoms: C_26  and  C_33
REMARK    9  A    between atoms: C_26  and  O_39
REMARK                            x       y       z     vdW  Elec       q    Type
REMARK                         _______ _______ _______ _____ _____    ______ ____
ROOT
ATOM      1  N   UNL     1      -2.621  -3.462  -1.317  0.00  0.00    -0.197 N 
ATOM      2  C   UNL     1      -2.872  -4.626  -0.686  0.00  0.00    +0.323 C 
ATOM      3  O   UNL     1      -2.499  -5.675  -1.174  0.00  0.00    -0.251 OA
ATOM      4  N   UNL     1      -3.537  -4.628   0.486  0.00  0.00    -0.267 N 
ATOM      5  H   UNL     1      -3.962  -3.692   0.879  0.00  0.00    +0.156 HD
ENDROOT
BRANCH   4   6
ATOM      6  C   UNL     1      -3.687  -5.827   1.209  0.00  0.00    +0.045 A 
ATOM      7  C   UNL     1      -3.050  -6.952   0.799  0.00  0.00    +0.069 A 
ATOM      8  S   UNL     1      -3.567  -8.138   2.030  0.00  0.00    -0.099 S 
ATOM      9  C   UNL     1      -4.585  -7.055   2.995  0.00  0.00    -0.005 A 
ATOM     10  C   UNL     1      -4.488  -5.859   2.355  0.00  0.00    -0.016 A 
ATOM     11  C   UNL     1      -5.244  -4.641   2.879  0.00  0.00    +0.038 C 
ATOM     12  C   UNL     1      -6.356  -5.115   3.816  0.00  0.00    +0.005 C 
ATOM     13  C   UNL     1      -5.777  -6.041   4.889  0.00  0.00    +0.005 C 
ATOM     14  C   UNL     1      -5.369  -7.367   4.229  0.00  0.00    +0.043 C 
ENDBRANCH   4   6
BRANCH   1  15
ATOM     15  N   UNL     1      -3.052  -2.253  -0.754  0.00  0.00    -0.227 N 
ATOM     16  C   UNL     1      -4.118  -1.611  -1.271  0.00  0.00    +0.270 C 
ATOM     17  O   UNL     1      -4.705  -2.079  -2.224  0.00  0.00    -0.270 OA
ATOM     18  H   UNL     1      -2.520  -1.829   0.110  0.00  0.00    +0.173 HD
BRANCH  16  19
ATOM     19  C   UNL     1      -4.581  -0.311  -0.666  0.00  0.00    +0.194 C 
BRANCH  19  20
ATOM     20  C   UNL     1      -5.321   0.492  -1.705  0.00  0.00    -0.003 A 
ATOM     21  C   UNL     1      -4.729   0.754  -2.926  0.00  0.00    +0.007 A 
ATOM     22  C   UNL     1      -5.410   1.486  -3.881  0.00  0.00    +0.000 A 
ATOM     23  C   UNL     1      -6.678   1.964  -3.611  0.00  0.00    +0.000 A 
ATOM     24  C   UNL     1      -7.267   1.707  -2.387  0.00  0.00    +0.000 A 
ATOM     25  C   UNL     1      -6.589   0.971  -1.434  0.00  0.00    +0.007 A 
ENDBRANCH  19  20
BRANCH  19  26
ATOM     26  C   UNL     1      -5.498  -0.596   0.496  0.00  0.00    -0.003 A 
ATOM     27  C   UNL     1      -6.387  -1.652   0.431  0.00  0.00    +0.007 A 
ATOM     28  C   UNL     1      -7.225  -1.917   1.498  0.00  0.00    +0.000 A 
ATOM     29  C   UNL     1      -7.180  -1.119   2.626  0.00  0.00    +0.000 A 
ATOM     30  C   UNL     1      -6.295  -0.059   2.689  0.00  0.00    +0.000 A 
ATOM     31  C   UNL     1      -5.453   0.202   1.623  0.00  0.00    +0.007 A 
ENDBRANCH  19  26
BRANCH  19  32
ATOM     32  O   UNL     1      -3.449   0.431  -0.208  0.00  0.00    -0.371 OA
ATOM     33  H   UNL     1      -3.590   1.413   0.266  0.00  0.00    +0.212 HD
ENDBRANCH  19  32
ENDBRANCH  16  19
ENDBRANCH   1  15
BRANCH   1  35
ATOM     34  C   UNL     1      -2.781  -2.841  -3.677  0.00  0.00    +0.035 C 
ATOM     35  C   UNL     1      -1.899  -3.460  -2.591  0.00  0.00    +0.125 C 
BRANCH  35  36
ATOM     36  C   UNL     1      -0.634  -2.654  -2.450  0.00  0.00    -0.026 A 
ATOM     37  C   UNL     1      -0.643  -1.474  -1.729  0.00  0.00    +0.005 A 
ATOM     38  C   UNL     1       0.519  -0.737  -1.596  0.00  0.00    +0.000 A 
ATOM     39  C   UNL     1       1.687  -1.173  -2.192  0.00  0.00    +0.000 A 
ATOM     40  C   UNL     1       1.694  -2.350  -2.918  0.00  0.00    +0.000 A 
ATOM     41  C   UNL     1       0.534  -3.090  -3.048  0.00  0.00    +0.005 A 
ENDBRANCH  35  36
ENDBRANCH   1  35
TORSDOF 8
