REMARK  Name = ZINC00663602
REMARK  10 active torsions:
REMARK  status: ('A' for Active; 'I' for Inactive)
REMARK    1  A    between atoms: C_1  and  O_2
REMARK    2  A    between atoms: O_2  and  C_3
REMARK    3  A    between atoms: C_3  and  C_5
REMARK    4  A    between atoms: C_6  and  C_22
REMARK    5  A    between atoms: C_8  and  N_21
REMARK    6  A    between atoms: C_9  and  C_19
REMARK    7  A    between atoms: C_10  and  C_12
REMARK    8  A    between atoms: C_22  and  S_23
REMARK    9  A    between atoms: S_23  and  C_24
REMARK   10  A    between atoms: C_25  and  C_35
REMARK                            x       y       z     vdW  Elec       q    Type
REMARK                         _______ _______ _______ _____ _____    ______ ____
ROOT
ATOM      1  C   UNL     1       1.749   4.388  -1.149  0.00  0.00    +0.088 C 
ATOM      2  C   UNL     1       3.084   4.346  -1.242  0.00  0.00    +0.128 C 
ATOM      3  O   UNL     1       3.869   4.122  -0.178  0.00  0.00    -0.444 OA
ATOM      4  C   UNL     1       3.375   4.309   1.058  0.00  0.00    +0.198 C 
ATOM      5  C   UNL     1       2.042   4.348   1.295  0.00  0.00    +0.098 C 
ATOM      6  C   UNL     1       1.055   4.184   0.170  0.00  0.00    +0.107 C 
ENDROOT
BRANCH   6   7
ATOM      7  C   UNL     1       0.467   2.797   0.218  0.00  0.00    +0.001 A 
ATOM      8  C   UNL     1       1.291   1.693   0.105  0.00  0.00    +0.007 A 
ATOM      9  C   UNL     1       0.751   0.421   0.148  0.00  0.00    +0.000 A 
ATOM     10  C   UNL     1      -0.612   0.252   0.305  0.00  0.00    +0.003 A 
ATOM     11  C   UNL     1      -1.437   1.354   0.419  0.00  0.00    +0.038 A 
ATOM     12  C   UNL     1      -0.898   2.629   0.375  0.00  0.00    +0.127 A 
ATOM     13  F   UNL     1      -1.704   3.708   0.481  0.00  0.00    -0.205 F 
ENDBRANCH   6   7
BRANCH   4  14
ATOM     14  N   UNL     1       4.245   4.465   2.108  0.00  0.00    -0.328 N 
ATOM     15  H   UNL     1       3.902   4.601   3.005  0.00  0.00    +0.145 HD
ATOM     16  H   UNL     1       5.202   4.439   1.953  0.00  0.00    +0.145 HD
ENDBRANCH   4  14
BRANCH   1  17
ATOM     17  C   UNL     1       0.977   4.627  -2.312  0.00  0.00    +0.339 C 
ATOM     18  O   UNL     1       1.525   4.945  -3.351  0.00  0.00    -0.245 OA
BRANCH  17  20
ATOM     19  C   UNL     1      -1.081   4.760  -3.479  0.00  0.00    +0.280 C 
ATOM     20  O   UNL     1      -0.366   4.503  -2.268  0.00  0.00    -0.465 OA
ENDBRANCH  17  20
ENDBRANCH   1  17
BRANCH   5  21
ATOM     21  C   UNL     1       1.565   4.548   2.630  0.00  0.00    +0.101 C 
ATOM     22  N   UNL     1       1.188   4.707   3.690  0.00  0.00    -0.191 NA
ENDBRANCH   5  21
BRANCH   2  23
ATOM     23  C   UNL     1       3.727   4.559  -2.589  0.00  0.00    +0.150 C 
BRANCH  23  24
ATOM     24  S   UNL     1       3.926   6.332  -2.889  0.00  0.00    -0.097 S 
BRANCH  24  25
ATOM     25  C   UNL     1       4.677   6.290  -4.483  0.00  0.00    +0.115 A 
ATOM     26  C   UNL     1       5.019   7.494  -5.125  0.00  0.00    +0.084 A 
ATOM     27  C   UNL     1       5.613   7.434  -6.392  0.00  0.00    +0.027 A 
ATOM     28  C   UNL     1       5.832   6.186  -6.948  0.00  0.00    -0.025 A 
ATOM     29  C   UNL     1       5.476   5.053  -6.262  0.00  0.00    +0.046 A 
ATOM     30  N   UNL     1       4.920   5.126  -5.064  0.00  0.00    -0.244 NA
ATOM     31  C   UNL     1       5.727   3.689  -6.875  0.00  0.00    +0.056 C 
ATOM     32  C   UNL     1       7.235   3.430  -6.881  0.00  0.00    +0.006 C 
ATOM     33  C   UNL     1       7.883   4.022  -8.117  0.00  0.00    +0.001 C 
ATOM     34  C   UNL     1       7.887   5.537  -8.158  0.00  0.00    +0.005 C 
ATOM     35  C   UNL     1       6.465   6.082  -8.320  0.00  0.00    +0.037 C 
BRANCH  26  36
ATOM     36  C   UNL     1       4.766   8.755  -4.496  0.00  0.00    +0.102 C 
ATOM     37  N   UNL     1       4.565   9.756  -3.997  0.00  0.00    -0.191 NA
ENDBRANCH  26  36
ENDBRANCH  24  25
ENDBRANCH  23  24
ENDBRANCH   2  23
TORSDOF 9
