REMARK  Name = ZINC02789493
REMARK  5 active torsions:
REMARK  status: ('A' for Active; 'I' for Inactive)
REMARK    1  A    between atoms: C_4  and  N_7
REMARK    2  A    between atoms: C_10  and  C_12
REMARK    3  A    between atoms: C_17  and  C_25
REMARK    4  A    between atoms: C_19  and  C_23
REMARK    5  A    between atoms: C_20  and  N_22
REMARK                            x       y       z     vdW  Elec       q    Type
REMARK                         _______ _______ _______ _____ _____    ______ ____
ROOT
ATOM      1  N   UNL     1      -1.974   7.550   2.503  0.00  0.00    -0.199 N 
ATOM      2  C   UNL     1      -1.944   7.074   1.237  0.00  0.00    +0.230 A 
ATOM      3  C   UNL     1      -2.292   5.756   1.281  0.00  0.00    +0.058 A 
ATOM      4  C   UNL     1      -2.544   5.417   2.617  0.00  0.00    +0.136 A 
ATOM      5  N   UNL     1      -2.352   6.498   3.353  0.00  0.00    -0.160 NA
ATOM      6  C   UNL     1      -2.366   4.891   0.049  0.00  0.00    +0.108 C 
ATOM      7  C   UNL     1      -2.297   5.789  -1.161  0.00  0.00    +0.099 C 
ATOM      8  C   UNL     1      -1.949   7.093  -1.076  0.00  0.00    +0.200 C 
ATOM      9  O   UNL     1      -1.639   7.713   0.080  0.00  0.00    -0.423 OA
ENDROOT
BRANCH   1  13
ATOM     10  C   UNL     1      -1.097  11.452   3.675  0.00  0.00    +0.000 A 
ATOM     11  C   UNL     1      -2.079  10.738   4.335  0.00  0.00    +0.002 A 
ATOM     12  C   UNL     1      -2.372   9.444   3.950  0.00  0.00    +0.028 A 
ATOM     13  C   UNL     1      -1.679   8.861   2.897  0.00  0.00    +0.069 A 
ATOM     14  C   UNL     1      -0.689   9.579   2.239  0.00  0.00    +0.028 A 
ATOM     15  C   UNL     1      -0.404  10.874   2.627  0.00  0.00    +0.002 A 
ENDBRANCH   1  13
BRANCH   6  16
ATOM     16  C   UNL     1      -1.207   3.928   0.034  0.00  0.00    +0.004 A 
ATOM     17  C   UNL     1      -1.224   2.572   0.022  0.00  0.00    +0.027 A 
ATOM     18  C   UNL     1      -0.024   1.887   0.012  0.00  0.00    +0.025 A 
ATOM     19  C   UNL     1       1.135   2.591   0.005  0.00  0.00    +0.060 A 
ATOM     20  S   UNL     1       0.544   4.275   0.019  0.00  0.00    -0.100 S 
ATOM     21 BR   UNL     1       0.002  -0.004   0.002  0.00  0.00    -0.050 Br
ENDBRANCH   6  16
BRANCH   4  22
ATOM     22  C   UNL     1      -2.951   4.087   3.115  0.00  0.00    +0.155 A 
ATOM     23  C   UNL     1      -2.584   3.532   4.301  0.00  0.00    +0.051 A 
ATOM     24  C   UNL     1      -3.199   2.265   4.364  0.00  0.00    +0.042 A 
ATOM     25  C   UNL     1      -3.904   2.112   3.226  0.00  0.00    +0.196 A 
ATOM     26  O   UNL     1      -3.756   3.216   2.476  0.00  0.00    -0.461 OA
ENDBRANCH   4  22
BRANCH   8  27
ATOM     27  N   UNL     1      -1.911   7.829  -2.235  0.00  0.00    -0.328 N 
ATOM     28  H   UNL     1      -1.632   8.892  -2.202  0.00  0.00    +0.145 HD
ATOM     29  H   UNL     1      -2.158   7.354  -3.196  0.00  0.00    +0.145 HD
ENDBRANCH   8  27
BRANCH   7  30
ATOM     30  C   UNL     1      -2.610   5.241  -2.446  0.00  0.00    +0.101 C 
ATOM     31  N   UNL     1      -2.858   4.806  -3.466  0.00  0.00    -0.191 NA
ENDBRANCH   7  30
TORSDOF 5
