REMARK  Name = ZINC48546330
REMARK  10 active torsions:
REMARK  status: ('A' for Active; 'I' for Inactive)
REMARK    1  A    between atoms: C_1  and  N_2
REMARK    2  A    between atoms: N_7  and  C_10
REMARK    3  A    between atoms: N_11  and  C_21
REMARK    4  A    between atoms: C_12  and  C_14
REMARK    5  A    between atoms: C_14  and  C_15
REMARK    6  A    between atoms: C_21  and  C_22
REMARK    7  A    between atoms: C_22  and  C_24
REMARK    8  A    between atoms: C_22  and  O_32
REMARK    9  A    between atoms: C_24  and  N_25
REMARK   10  A    between atoms: N_25  and  C_26
REMARK                            x       y       z     vdW  Elec       q    Type
REMARK                         _______ _______ _______ _____ _____    ______ ____
ROOT
ATOM      1  C   UNL     1      -0.042   1.460  -0.935  0.00  0.00    +0.155 C 
ATOM      2  N   UNL     1       0.089   0.020  -0.702  0.00  0.00    -0.280 N 
ATOM      3  C   UNL     1      -1.024  -0.728  -0.353  0.00  0.00    +0.168 A 
ATOM      4  C   UNL     1      -0.875  -2.092  -0.138  0.00  0.00    +0.152 A 
ATOM      5  C   UNL     1       0.403  -2.675  -0.279  0.00  0.00    +0.282 A 
ATOM      6  O   UNL     1       0.559  -3.869  -0.096  0.00  0.00    -0.265 OA
ATOM      7  N   UNL     1       1.449  -1.894  -0.621  0.00  0.00    -0.262 N 
ATOM      8  C   UNL     1       1.289  -0.577  -0.832  0.00  0.00    +0.333 A 
ATOM      9  O   UNL     1       2.254   0.095  -1.144  0.00  0.00    -0.246 OA
ATOM     10  C   UNL     1       2.778  -2.493  -0.770  0.00  0.00    +0.157 C 
ATOM     11  N   UNL     1      -2.128  -2.571   0.190  0.00  0.00    -0.319 N 
ATOM     12  C   UNL     1      -2.970  -1.520   0.164  0.00  0.00    +0.117 A 
ATOM     13  N   UNL     1      -2.312  -0.435  -0.158  0.00  0.00    -0.214 NA
ENDROOT
BRANCH  12  14
ATOM     14  C   UNL     1      -4.446  -1.584   0.459  0.00  0.00    +0.109 C 
BRANCH  14  15
ATOM     15  C   UNL     1      -5.212  -1.709  -0.833  0.00  0.00    -0.040 A 
ATOM     16  C   UNL     1      -5.530  -0.577  -1.560  0.00  0.00    +0.004 A 
ATOM     17  C   UNL     1      -6.232  -0.691  -2.745  0.00  0.00    +0.000 A 
ATOM     18  C   UNL     1      -6.617  -1.937  -3.203  0.00  0.00    +0.000 A 
ATOM     19  C   UNL     1      -6.298  -3.069  -2.477  0.00  0.00    +0.000 A 
ATOM     20  C   UNL     1      -5.591  -2.955  -1.294  0.00  0.00    +0.004 A 
ENDBRANCH  14  15
ENDBRANCH  12  14
BRANCH  11  21
ATOM     21  C   UNL     1      -2.475  -3.959   0.505  0.00  0.00    +0.153 C 
BRANCH  21  22
ATOM     22  C   UNL     1      -2.437  -4.163   2.021  0.00  0.00    +0.117 C 
BRANCH  22  23
ATOM     23  O   UNL     1      -1.097  -3.997   2.490  0.00  0.00    -0.392 OA
ATOM     24  H   UNL     1      -0.465  -4.618   2.103  0.00  0.00    +0.210 HD
ENDBRANCH  22  23
BRANCH  22  25
ATOM     25  C   UNL     1      -2.925  -5.573   2.358  0.00  0.00    -0.049 C 
BRANCH  25  26
ATOM     26  N   UNL     1      -3.002  -5.729   3.817  0.00  0.00    +0.383 N 
ATOM     27  H   UNL     1      -2.088  -5.583   4.220  0.00  0.00    -0.085 HD
ATOM     28  H   UNL     1      -3.647  -5.050   4.194  0.00  0.00    -0.085 HD
BRANCH  26  29
ATOM     29  C   UNL     1      -3.470  -7.083   4.141  0.00  0.00    -0.072 C 
ATOM     30  C   UNL     1      -4.904  -7.260   3.639  0.00  0.00    -0.016 C 
ATOM     31  C   UNL     1      -5.392  -8.670   3.976  0.00  0.00    -0.002 C 
ATOM     32  C   UNL     1      -5.354  -8.874   5.492  0.00  0.00    -0.000 C 
ATOM     33  C   UNL     1      -3.920  -8.697   5.995  0.00  0.00    -0.002 C 
ATOM     34  C   UNL     1      -3.432  -7.286   5.657  0.00  0.00    -0.016 C 
ENDBRANCH  26  29
ENDBRANCH  25  26
ENDBRANCH  22  25
ENDBRANCH  21  22
ENDBRANCH  11  21
TORSDOF 8
