REMARK  Name = ZINC09724589
REMARK  7 active torsions:
REMARK  status: ('A' for Active; 'I' for Inactive)
REMARK    1  A    between atoms: C_1  and  C_2
REMARK    2  A    between atoms: C_2  and  N_60
REMARK    3  A    between atoms: C_3  and  C_4
REMARK    4  A    between atoms: C_3  and  N_60
REMARK    5  A    between atoms: C_16  and  C_17
REMARK    6  A    between atoms: C_16  and  N_60
REMARK    7  A    between atoms: C_28  and  C_30
REMARK                            x       y       z     vdW  Elec       q    Type
REMARK                         _______ _______ _______ _____ _____    ______ ____
ROOT
ATOM      1  C   UNL     1      -0.172   1.254   0.112  0.00  0.00    +0.020 C 
ENDROOT
BRANCH   1   2
ATOM      2  C   UNL     1      -0.695   1.903   1.368  0.00  0.00    +0.204 C 
ATOM      3  O   UNL     1      -1.439   2.858   1.293  0.00  0.00    -0.277 OA
ATOM      4  N   UNL     1      -0.337   1.421   2.575  0.00  0.00    -0.259 N 
ATOM      5  C   UNL     1      -0.870   1.957   3.760  0.00  0.00    +0.079 A 
ATOM      6  C   UNL     1      -1.549   3.164   3.732  0.00  0.00    +0.027 A 
ATOM      7  C   UNL     1      -2.075   3.686   4.899  0.00  0.00    +0.002 A 
ATOM      8  C   UNL     1      -1.922   3.004   6.093  0.00  0.00    +0.004 A 
ATOM      9  C   UNL     1      -1.252   1.792   6.125  0.00  0.00    +0.047 A 
ATOM     10  C   UNL     1      -0.716   1.265   4.959  0.00  0.00    +0.142 A 
ATOM     11  O   UNL     1      -0.043   0.085   5.002  0.00  0.00    -0.488 OA
ATOM     12  C   UNL     1       0.110  -0.639   3.779  0.00  0.00    +0.256 C 
ATOM     13  C   UNL     1       0.632   0.318   2.698  0.00  0.00    +0.149 C 
BRANCH  13  14
ATOM     14  C   UNL     1       1.978   0.862   3.104  0.00  0.00    -0.023 A 
ATOM     15  C   UNL     1       2.059   1.881   4.034  0.00  0.00    +0.005 A 
ATOM     16  C   UNL     1       3.293   2.377   4.410  0.00  0.00    +0.000 A 
ATOM     17  C   UNL     1       4.446   1.861   3.848  0.00  0.00    +0.000 A 
ATOM     18  C   UNL     1       4.364   0.845   2.913  0.00  0.00    +0.000 A 
ATOM     19  C   UNL     1       3.130   0.346   2.542  0.00  0.00    +0.005 A 
ENDBRANCH  13  14
ENDBRANCH   1   2
BRANCH   1  20
ATOM     20  N   UNL     1      -0.614   2.048  -1.053  0.00  0.00    +0.390 N 
ATOM     21  H   UNL     1      -1.629   2.191  -0.995  0.00  0.00    -0.081 HD
BRANCH  20  23
ATOM     22  C   UNL     1       1.577   3.194  -1.029  0.00  0.00    -0.017 C 
ATOM     23  C   UNL     1       0.057   3.365  -1.050  0.00  0.00    -0.081 C 
ENDBRANCH  20  23
BRANCH  20  24
ATOM     24  C   UNL     1      -0.302   1.325  -2.304  0.00  0.00    -0.003 C 
BRANCH  24  25
ATOM     25  C   UNL     1      -1.077   1.955  -3.433  0.00  0.00    +0.094 A 
ATOM     26  N   UNL     1      -0.860   1.501  -4.695  0.00  0.00    -0.312 N 
ATOM     27  H   UNL     1      -0.219   0.789  -4.847  0.00  0.00    +0.170 HD
ATOM     28  C   UNL     1      -1.531   2.033  -5.744  0.00  0.00    +0.259 A 
ATOM     29  O   UNL     1      -1.347   1.636  -6.879  0.00  0.00    -0.267 OA
ATOM     30  C   UNL     1      -2.491   3.110  -5.457  0.00  0.00    +0.065 A 
ATOM     31  C   UNL     1      -3.232   3.724  -6.464  0.00  0.00    +0.015 A 
ATOM     32  C   UNL     1      -4.118   4.728  -6.139  0.00  0.00    +0.001 A 
ATOM     33  C   UNL     1      -4.276   5.130  -4.819  0.00  0.00    +0.002 A 
ATOM     34  C   UNL     1      -3.553   4.536  -3.809  0.00  0.00    +0.028 A 
ATOM     35  C   UNL     1      -2.649   3.517  -4.113  0.00  0.00    +0.078 A 
ATOM     36  N   UNL     1      -1.920   2.900  -3.149  0.00  0.00    -0.236 NA
ENDBRANCH  24  25
ENDBRANCH  20  24
ENDBRANCH   1  20
TORSDOF 6
