REMARK  Name = ZINC35853269
REMARK  7 active torsions:
REMARK  status: ('A' for Active; 'I' for Inactive)
REMARK    1  A    between atoms: C_4  and  N_7
REMARK    2  A    between atoms: N_7  and  C_8
REMARK    3  A    between atoms: N_7  and  S_22
REMARK    4  A    between atoms: N_11  and  C_14
REMARK    5  A    between atoms: C_14  and  C_15
REMARK    6  A    between atoms: C_20  and  O_21
REMARK    7  A    between atoms: S_22  and  C_25
REMARK                            x       y       z     vdW  Elec       q    Type
REMARK                         _______ _______ _______ _____ _____    ______ ____
ROOT
ATOM      1  N   UNL     1       3.612  -0.638  -0.040  0.00  0.00    -0.200 N 
ENDROOT
BRANCH   1   2
ATOM      2  C   UNL     1       3.711  -1.945   0.615  0.00  0.00    +0.095 C 
ATOM      3  C   UNL     1       3.219  -1.832   2.060  0.00  0.00    +0.006 C 
ATOM      4  C   UNL     1       3.250  -3.216   2.713  0.00  0.00    -0.077 C 
ATOM      5  N   UNL     1       2.379  -4.132   1.968  0.00  0.00    +0.383 N 
ATOM      6  C   UNL     1       2.886  -4.301   0.601  0.00  0.00    -0.077 C 
ATOM      7  C   UNL     1       2.841  -2.959  -0.133  0.00  0.00    +0.006 C 
ATOM      8  H   UNL     1       1.444  -3.753   1.934  0.00  0.00    -0.081 HD
BRANCH   5   9
ATOM      9  C   UNL     1       2.351  -5.437   2.643  0.00  0.00    -0.039 C 
BRANCH   9  10
ATOM     10  C   UNL     1       1.363  -6.340   1.950  0.00  0.00    -0.022 A 
ATOM     11  C   UNL     1       0.098  -6.515   2.478  0.00  0.00    +0.005 A 
ATOM     12  C   UNL     1      -0.808  -7.343   1.843  0.00  0.00    +0.000 A 
ATOM     13  C   UNL     1      -0.451  -7.999   0.679  0.00  0.00    +0.004 A 
ATOM     14  C   UNL     1       0.812  -7.828   0.148  0.00  0.00    +0.045 A 
ATOM     15  C   UNL     1       1.722  -6.992   0.780  0.00  0.00    +0.118 A 
BRANCH  15  16
ATOM     16  O   UNL     1       2.964  -6.818   0.256  0.00  0.00    -0.507 OA
ATOM     17  H   UNL     1       3.619  -7.452   0.577  0.00  0.00    +0.292 HD
ENDBRANCH  15  16
ENDBRANCH   9  10
ENDBRANCH   5   9
ENDBRANCH   1   2
BRANCH   1  21
ATOM     18  C   UNL     1      -0.120   1.099  -0.669  0.00  0.00    +0.000 A 
ATOM     19  C   UNL     1       0.402   1.030   0.610  0.00  0.00    +0.002 A 
ATOM     20  C   UNL     1       1.640   0.455   0.822  0.00  0.00    +0.025 A 
ATOM     21  C   UNL     1       2.360  -0.056  -0.251  0.00  0.00    +0.052 A 
ATOM     22  C   UNL     1       1.832   0.015  -1.534  0.00  0.00    +0.025 A 
ATOM     23  C   UNL     1       0.594   0.592  -1.739  0.00  0.00    +0.002 A 
ENDBRANCH   1  21
BRANCH   1  24
ATOM     24  S   UNL     1       4.984   0.149  -0.530  0.00  0.00    +0.075 S 
ATOM     25  O   UNL     1       5.936  -0.856  -0.851  0.00  0.00    -0.150 OA
ATOM     26  O   UNL     1       4.574   1.137  -1.466  0.00  0.00    -0.150 OA
BRANCH  24  27
ATOM     27  C   UNL     1       5.616   1.014   0.870  0.00  0.00    +0.109 A 
ATOM     28  C   UNL     1       5.278   2.338   1.075  0.00  0.00    +0.030 A 
ATOM     29  C   UNL     1       5.773   3.017   2.172  0.00  0.00    +0.022 A 
ATOM     30  C   UNL     1       6.609   2.370   3.065  0.00  0.00    +0.041 A 
ATOM     31  C   UNL     1       6.947   1.044   2.860  0.00  0.00    +0.022 A 
ATOM     32  C   UNL     1       6.446   0.365   1.765  0.00  0.00    +0.030 A 
ATOM     33 CL   UNL     1       7.232   3.222   4.444  0.00  0.00    -0.084 Cl
ENDBRANCH  24  27
ENDBRANCH   1  24
TORSDOF 7
