REMARK  Name = ZINC64097852
REMARK  8 active torsions:
REMARK  status: ('A' for Active; 'I' for Inactive)
REMARK    1  A    between atoms: C_1  and  O_2
REMARK    2  A    between atoms: O_2  and  C_3
REMARK    3  A    between atoms: C_6  and  O_35
REMARK    4  A    between atoms: C_7  and  N_9
REMARK    5  A    between atoms: C_10  and  O_34
REMARK    6  A    between atoms: C_13  and  O_33
REMARK    7  A    between atoms: C_14  and  C_18
REMARK    8  A    between atoms: O_35  and  C_36
REMARK                            x       y       z     vdW  Elec       q    Type
REMARK                         _______ _______ _______ _____ _____    ______ ____
ROOT
ATOM      1  N   UNL     1       1.323  -4.003  -2.285  0.00  0.00    -0.222 N 
ATOM      2  C   UNL     1       2.457  -4.695  -1.688  0.00  0.00    +0.339 C 
ATOM      3  N   UNL     1       2.165  -6.094  -1.421  0.00  0.00    -0.204 NA
ATOM      4  C   UNL     1       1.230  -6.753  -1.987  0.00  0.00    +0.200 C 
ATOM      5  C   UNL     1       0.309  -6.149  -3.006  0.00  0.00    +0.179 C 
ATOM      6  C   UNL     1       0.325  -4.651  -2.901  0.00  0.00    +0.237 C 
ATOM      7  O   UNL     1      -0.584  -4.012  -3.388  0.00  0.00    -0.274 OA
ENDROOT
BRANCH   5   8
ATOM      8  C   UNL     1       0.762  -6.565  -4.407  0.00  0.00    +0.101 C 
ATOM      9  C   UNL     1       0.622  -8.080  -4.566  0.00  0.00    +0.124 C 
ATOM     10  C   UNL     1       1.248  -8.427  -5.912  0.00  0.00    -0.036 C 
ATOM     11  C   UNL     1       0.331  -9.101  -6.590  0.00  0.00    -0.001 A 
ATOM     12  C   UNL     1       0.372  -9.768  -7.902  0.00  0.00    +0.010 A 
ATOM     13  C   UNL     1      -0.780 -10.365  -8.308  0.00  0.00    +0.001 A 
ATOM     14  C   UNL     1      -1.955 -10.365  -7.550  0.00  0.00    +0.002 A 
ATOM     15  C   UNL     1      -2.081  -9.782  -6.331  0.00  0.00    +0.026 A 
ATOM     16  C   UNL     1      -0.935  -9.127  -5.795  0.00  0.00    +0.043 A 
ATOM     17  N   UNL     1      -0.773  -8.512  -4.639  0.00  0.00    -0.376 N 
ATOM     18  C   UNL     1       2.624  -7.938  -6.294  0.00  0.00    +0.048 C 
ATOM     19  C   UNL     1       2.652  -6.434  -5.965  0.00  0.00    +0.085 C 
ATOM     20  N   UNL     1       2.176  -6.207  -4.597  0.00  0.00    -0.310 NA
ATOM     21  H   UNL     1       2.352  -5.258  -4.305  0.00  0.00    +0.122 HD
ATOM     22  H   UNL     1      -1.450  -8.364  -3.959  0.00  0.00    +0.160 HD
ENDBRANCH   5   8
BRANCH   1  27
ATOM     23  C   UNL     1       0.606  -0.607  -1.056  0.00  0.00    +0.122 A 
ATOM     24  C   UNL     1       1.173   0.162  -2.062  0.00  0.00    +0.049 A 
ATOM     25  C   UNL     1       1.788  -0.448  -3.139  0.00  0.00    +0.051 A 
ATOM     26  C   UNL     1       1.840  -1.830  -3.217  0.00  0.00    +0.142 A 
ATOM     27  C   UNL     1       1.272  -2.605  -2.209  0.00  0.00    +0.086 A 
ATOM     28  C   UNL     1       0.660  -1.991  -1.127  0.00  0.00    +0.073 A 
BRANCH  23  30
ATOM     29  C   UNL     1      -0.017   1.425   0.010  0.00  0.00    +0.277 C 
ATOM     30  O   UNL     1       0.002  -0.004   0.002  0.00  0.00    -0.495 OA
ENDBRANCH  23  30
BRANCH  26  31
ATOM     31  O   UNL     1       2.446  -2.430  -4.278  0.00  0.00    -0.493 OA
ATOM     32  C   UNL     1       3.006  -1.573  -5.274  0.00  0.00    +0.277 C 
ENDBRANCH  26  31
ENDBRANCH   1  27
BRANCH   4  33
ATOM     33  O   UNL     1       1.063  -8.050  -1.655  0.00  0.00    -0.495 OA
ATOM     34  H   UNL     1       1.692  -8.371  -0.994  0.00  0.00    +0.293 HD
ENDBRANCH   4  33
BRANCH   2  35
ATOM     35  O   UNL     1       3.571  -4.617  -2.580  0.00  0.00    -0.356 OA
ATOM     36  H   UNL     1       4.368  -5.056  -2.253  0.00  0.00    +0.214 HD
ENDBRANCH   2  35
TORSDOF 6
