REMARK  Name = ZINC36371660
REMARK  12 active torsions:
REMARK  status: ('A' for Active; 'I' for Inactive)
REMARK    1  A    between atoms: C_1  and  C_2
REMARK    2  A    between atoms: C_2  and  C_4
REMARK    3  A    between atoms: C_2  and  C_10
REMARK    4  A    between atoms: C_4  and  C_5
REMARK    5  A    between atoms: C_5  and  C_6
REMARK    6  A    between atoms: C_6  and  C_7
REMARK    7  A    between atoms: C_7  and  C_8
REMARK    8  A    between atoms: C_7  and  C_9
REMARK    9  A    between atoms: C_16  and  C_37
REMARK   10  A    between atoms: N_25  and  O_26
REMARK   11  A    between atoms: C_29  and  C_36
REMARK   12  A    between atoms: N_33  and  O_34
REMARK                            x       y       z     vdW  Elec       q    Type
REMARK                         _______ _______ _______ _____ _____    ______ ____
ROOT
ATOM      1  C   UNL     1      -1.390  -0.582  -0.049  0.00  0.00    -0.002 C 
ATOM      2  C   UNL     1      -2.134  -0.327   1.278  0.00  0.00    +0.004 C 
ATOM      3  C   UNL     1      -2.702  -1.690   1.730  0.00  0.00    +0.004 C 
ATOM      4  C   UNL     1      -1.774  -2.730   1.037  0.00  0.00    -0.001 C 
ATOM      5  C   UNL     1      -1.551  -2.079  -0.342  0.00  0.00    -0.026 C 
ATOM      6  C   UNL     1      -0.369  -2.656  -1.086  0.00  0.00    +0.007 C 
ATOM      7  C   UNL     1       0.897  -2.613  -0.231  0.00  0.00    +0.005 C 
ATOM      8  C   UNL     1       0.646  -3.423   1.046  0.00  0.00    -0.001 C 
ATOM      9  C   UNL     1      -0.477  -2.770   1.851  0.00  0.00    +0.002 C 
ATOM     10  C   UNL     1      -0.736  -3.538   3.154  0.00  0.00    +0.058 C 
ATOM     11  C   UNL     1       0.566  -3.568   3.931  0.00  0.00    +0.062 C 
ATOM     12  N   UNL     1       0.646  -4.104   5.090  0.00  0.00    -0.096 NA
ATOM     13  C   UNL     1       1.767  -2.933   3.264  0.00  0.00    +0.048 C 
ATOM     14  C   UNL     1       1.934  -3.508   1.853  0.00  0.00    -0.020 C 
ATOM     15  C   UNL     1       3.073  -2.806   1.112  0.00  0.00    +0.013 C 
ATOM     16  C   UNL     1       4.389  -3.062   1.855  0.00  0.00    +0.055 C 
ATOM     17  C   UNL     1       4.222  -2.643   3.298  0.00  0.00    +0.058 C 
ATOM     18  N   UNL     1       5.071  -1.863   3.855  0.00  0.00    -0.097 NA
ATOM     19  C   UNL     1       3.020  -3.212   4.101  0.00  0.00    +0.064 C 
ATOM     20  C   UNL     1       2.316  -4.981   2.013  0.00  0.00    +0.012 C 
ATOM     21  C   UNL     1      -2.803  -2.286  -1.197  0.00  0.00    +0.012 C 
ENDROOT
BRANCH   1  23
ATOM     22  C   UNL     1       0.226   1.220   0.571  0.00  0.00    +0.008 C 
ATOM     23  C   UNL     1       0.091  -0.229   0.101  0.00  0.00    -0.010 C 
BRANCH  23  24
ATOM     24  C   UNL     1       0.794  -0.396  -1.248  0.00  0.00    +0.003 C 
BRANCH  24  25
ATOM     25  C   UNL     1       2.202   0.197  -1.166  0.00  0.00    +0.001 C 
BRANCH  25  26
ATOM     26  C   UNL     1       2.952  -0.088  -2.469  0.00  0.00    +0.003 C 
BRANCH  26  27
ATOM     27  C   UNL     1       4.360   0.504  -2.387  0.00  0.00    -0.017 C 
ATOM     28  C   UNL     1       5.154  -0.217  -1.296  0.00  0.00    +0.007 C 
ATOM     29  C   UNL     1       5.066   0.329  -3.732  0.00  0.00    +0.007 C 
ENDBRANCH  26  27
ENDBRANCH  25  26
ENDBRANCH  24  25
ENDBRANCH  23  24
ENDBRANCH   1  23
BRANCH  12  30
ATOM     30  O   UNL     1      -0.501  -4.688   5.681  0.00  0.00    -0.409 OA
ATOM     31  H   UNL     1      -0.343  -5.067   6.556  0.00  0.00    +0.328 HD
ENDBRANCH  12  30
BRANCH  18  32
ATOM     32  O   UNL     1       6.182  -1.384   3.119  0.00  0.00    -0.409 OA
ATOM     33  H   UNL     1       6.766  -0.803   3.624  0.00  0.00    +0.328 HD
ENDBRANCH  18  32
TORSDOF 7
