REMARK  Name = ZINC64943809
REMARK  10 active torsions:
REMARK  status: ('A' for Active; 'I' for Inactive)
REMARK    1  A    between atoms: C_1  and  C_2
REMARK    2  A    between atoms: C_2  and  C_3
REMARK    3  A    between atoms: C_8  and  N_9
REMARK    4  A    between atoms: C_10  and  C_12
REMARK    5  A    between atoms: C_12  and  N_13
REMARK    6  A    between atoms: C_18  and  S_20
REMARK    7  A    between atoms: S_20  and  C_23
REMARK    8  A    between atoms: C_26  and  C_29
REMARK    9  A    between atoms: C_29  and  C_30
REMARK   10  A    between atoms: C_29  and  C_31
REMARK                            x       y       z     vdW  Elec       q    Type
REMARK                         _______ _______ _______ _____ _____    ______ ____
ROOT
ATOM      1  N   UNL     1      -2.353  -0.595  -5.972  0.00  0.00    -0.219 N 
ATOM      2  C   UNL     1      -3.160   0.365  -6.462  0.00  0.00    +0.268 A 
ATOM      3  O   UNL     1      -3.139   1.490  -5.989  0.00  0.00    -0.266 OA
ATOM      4  C   UNL     1      -4.031   0.057  -7.530  0.00  0.00    +0.075 A 
ATOM      5  C   UNL     1      -4.012  -1.218  -8.021  0.00  0.00    +0.055 A 
ATOM      6  C   UNL     1      -3.131  -2.143  -7.436  0.00  0.00    +0.202 A 
ATOM      7  N   UNL     1      -2.351  -1.785  -6.455  0.00  0.00    -0.149 NA
ENDROOT
BRANCH   6   8
ATOM      8  S   UNL     1      -3.074  -3.798  -8.039  0.00  0.00    +0.044 S 
ATOM      9  O   UNL     1      -3.434  -3.742  -9.413  0.00  0.00    -0.163 OA
ATOM     10  O   UNL     1      -1.841  -4.349  -7.597  0.00  0.00    -0.163 OA
BRANCH   8  11
ATOM     11  C   UNL     1      -4.350  -4.695  -7.220  0.00  0.00    +0.095 A 
ATOM     12  C   UNL     1      -4.086  -5.334  -6.023  0.00  0.00    +0.028 A 
ATOM     13  C   UNL     1      -5.088  -6.037  -5.380  0.00  0.00    +0.006 A 
ATOM     14  C   UNL     1      -6.352  -6.102  -5.933  0.00  0.00    -0.045 A 
ATOM     15  C   UNL     1      -6.616  -5.462  -7.130  0.00  0.00    +0.006 A 
ATOM     16  C   UNL     1      -5.616  -4.755  -7.771  0.00  0.00    +0.028 A 
BRANCH  14  17
ATOM     17  C   UNL     1      -7.444  -6.870  -5.233  0.00  0.00    +0.013 C 
ATOM     18  C   UNL     1      -8.599  -5.924  -4.899  0.00  0.00    +0.012 C 
ATOM     19  C   UNL     1      -7.948  -7.988  -6.147  0.00  0.00    +0.012 C 
ENDBRANCH  14  17
ENDBRANCH   8  11
ENDBRANCH   6   8
BRANCH   1  20
ATOM     20  C   UNL     1      -1.451  -0.272  -4.864  0.00  0.00    +0.243 C 
BRANCH  20  22
ATOM     21  N   UNL     1      -1.505  -0.315  -2.391  0.00  0.00    -0.284 N 
ATOM     22  C   UNL     1      -2.147  -0.541  -3.555  0.00  0.00    +0.239 C 
ATOM     23  O   UNL     1      -3.285  -0.961  -3.548  0.00  0.00    -0.273 OA
ATOM     24  H   UNL     1      -0.620   0.082  -2.395  0.00  0.00    +0.155 HD
BRANCH  21  30
ATOM     25  C   UNL     1      -1.349  -1.119  -0.119  0.00  0.00    -0.026 A 
ATOM     26  C   UNL     1      -1.954  -1.445   1.079  0.00  0.00    +0.005 A 
ATOM     27  C   UNL     1      -3.322  -1.313   1.222  0.00  0.00    +0.000 A 
ATOM     28  C   UNL     1      -4.090  -0.854   0.168  0.00  0.00    +0.002 A 
ATOM     29  C   UNL     1      -3.491  -0.525  -1.033  0.00  0.00    +0.023 A 
ATOM     30  C   UNL     1      -2.116  -0.652  -1.178  0.00  0.00    +0.037 A 
BRANCH  25  32
ATOM     31  C   UNL     1       0.819   0.078   0.019  0.00  0.00    +0.009 C 
ATOM     32  C   UNL     1       0.143  -1.263  -0.275  0.00  0.00    +0.033 C 
ENDBRANCH  25  32
ENDBRANCH  21  30
ENDBRANCH  20  22
ENDBRANCH   1  20
TORSDOF 7
