REMARK  Name = ZINC36486119
REMARK  13 active torsions:
REMARK  status: ('A' for Active; 'I' for Inactive)
REMARK    1  A    between atoms: C_1  and  C_2
REMARK    2  A    between atoms: C_2  and  C_4
REMARK    3  A    between atoms: C_2  and  C_31
REMARK    4  A    between atoms: C_4  and  C_5
REMARK    5  A    between atoms: N_7  and  C_8
REMARK    6  A    between atoms: N_7  and  C_15
REMARK    7  A    between atoms: C_15  and  C_17
REMARK    8  A    between atoms: C_15  and  C_24
REMARK    9  A    between atoms: C_22  and  O_23
REMARK   10  A    between atoms: N_26  and  C_27
REMARK   11  A    between atoms: C_27  and  C_28
REMARK   12  A    between atoms: C_27  and  C_29
REMARK   13  A    between atoms: C_27  and  C_30
REMARK                            x       y       z     vdW  Elec       q    Type
REMARK                         _______ _______ _______ _____ _____    ______ ____
ROOT
ATOM      1  C   UNL     1      -0.829  -0.313  -2.535  0.00  0.00    +0.221 C 
ATOM      2  O   UNL     1      -1.854   0.297  -2.755  0.00  0.00    -0.275 OA
ATOM      3  N   UNL     1       0.131  -0.383  -3.479  0.00  0.00    -0.255 N 
ENDROOT
BRANCH   3   4
ATOM      4  C   UNL     1       1.266  -1.172  -3.265  0.00  0.00    +0.039 A 
ATOM      5  C   UNL     1       2.234  -0.767  -2.356  0.00  0.00    +0.023 A 
ATOM      6  C   UNL     1       3.354  -1.549  -2.147  0.00  0.00    +0.003 A 
ATOM      7  C   UNL     1       3.512  -2.733  -2.842  0.00  0.00    +0.020 A 
ATOM      8  C   UNL     1       2.550  -3.140  -3.749  0.00  0.00    +0.043 A 
ATOM      9  C   UNL     1       1.424  -2.365  -3.958  0.00  0.00    +0.043 A 
ATOM     10 CL   UNL     1       2.753  -4.628  -4.621  0.00  0.00    -0.083 Cl
ENDBRANCH   3   4
BRANCH   1  11
ATOM     11  C   UNL     1      -0.628  -0.993  -1.205  0.00  0.00    +0.104 C 
BRANCH  11  13
ATOM     12  C   UNL     1      -1.736   0.871   0.035  0.00  0.00    +0.013 C 
ATOM     13  C   UNL     1      -1.780  -0.628  -0.266  0.00  0.00    +0.025 C 
BRANCH  13  14
ATOM     14  C   UNL     1      -1.646  -1.403   1.019  0.00  0.00    -0.044 A 
ATOM     15  C   UNL     1      -0.519  -1.248   1.805  0.00  0.00    +0.004 A 
ATOM     16  C   UNL     1      -0.396  -1.959   2.984  0.00  0.00    +0.000 A 
ATOM     17  C   UNL     1      -1.399  -2.824   3.377  0.00  0.00    +0.000 A 
ATOM     18  C   UNL     1      -2.527  -2.978   2.592  0.00  0.00    +0.000 A 
ATOM     19  C   UNL     1      -2.652  -2.264   1.415  0.00  0.00    +0.004 A 
ENDBRANCH  13  14
ENDBRANCH  11  13
ENDBRANCH   1  11
BRANCH   3  20
ATOM     20  C   UNL     1      -0.015   0.368  -4.728  0.00  0.00    +0.201 C 
BRANCH  20  21
ATOM     21  C   UNL     1       0.136  -0.569  -5.898  0.00  0.00    +0.024 A 
ATOM     22  C   UNL     1       1.322  -0.605  -6.606  0.00  0.00    +0.009 A 
ATOM     23  C   UNL     1       1.461  -1.465  -7.680  0.00  0.00    +0.001 A 
ATOM     24  C   UNL     1       0.414  -2.291  -8.048  0.00  0.00    +0.004 A 
ATOM     25  C   UNL     1      -0.773  -2.258  -7.343  0.00  0.00    +0.046 A 
ATOM     26  C   UNL     1      -0.913  -1.401  -6.262  0.00  0.00    +0.122 A 
BRANCH  26  27
ATOM     27  O   UNL     1      -2.079  -1.371  -5.563  0.00  0.00    -0.506 OA
ATOM     28  H   UNL     1      -2.752  -0.793  -5.946  0.00  0.00    +0.292 HD
ENDBRANCH  26  27
ENDBRANCH  20  21
BRANCH  20  29
ATOM     29  C   UNL     1       1.046   1.436  -4.799  0.00  0.00    +0.239 C 
ATOM     30  O   UNL     1       1.983   1.412  -4.029  0.00  0.00    -0.273 OA
ATOM     31  N   UNL     1       0.954   2.417  -5.719  0.00  0.00    -0.309 N 
ATOM     32  H   UNL     1       0.171   2.477  -6.288  0.00  0.00    +0.149 HD
BRANCH  31  33
ATOM     33  C   UNL     1       2.038   3.393  -5.858  0.00  0.00    +0.026 C 
ATOM     34  C   UNL     1       3.335   2.667  -6.221  0.00  0.00    +0.031 C 
ATOM     35  C   UNL     1       1.685   4.391  -6.964  0.00  0.00    +0.031 C 
ATOM     36  C   UNL     1       2.224   4.141  -4.537  0.00  0.00    +0.031 C 
ENDBRANCH  31  33
ENDBRANCH  20  29
ENDBRANCH   3  20
TORSDOF 9
