REMARK  Name = ZINC20754808
REMARK  5 active torsions:
REMARK  status: ('A' for Active; 'I' for Inactive)
REMARK    1  A    between atoms: C_1  and  C_2
REMARK    2  A    between atoms: C_2  and  C_3
REMARK    3  A    between atoms: C_3  and  C_4
REMARK    4  A    between atoms: N_6  and  C_7
REMARK    5  A    between atoms: C_20  and  C_23
REMARK                            x       y       z     vdW  Elec       q    Type
REMARK                         _______ _______ _______ _____ _____    ______ ____
ROOT
ATOM      1  C   UNL     1       2.890  -1.244   1.475  0.00  0.00    +0.039 A 
ATOM      2  C   UNL     1       3.733  -2.333   1.310  0.00  0.00    +0.025 A 
ATOM      3  C   UNL     1       3.484  -3.251   0.308  0.00  0.00    +0.023 A 
ATOM      4  C   UNL     1       2.396  -3.082  -0.525  0.00  0.00    +0.062 A 
ATOM      5  C   UNL     1       1.543  -1.990  -0.363  0.00  0.00    +0.052 A 
ATOM      6  C   UNL     1       1.789  -1.067   0.637  0.00  0.00    +0.003 A 
ATOM      7  C   UNL     1       0.917   0.132   0.866  0.00  0.00    +0.050 C 
ATOM      8  C   UNL     1       1.618   1.395   0.422  0.00  0.00    -0.023 C 
ATOM      9  C   UNL     1       0.773   2.207  -0.161  0.00  0.00    -0.030 C 
ATOM     10  C   UNL     1      -0.618   1.604  -0.180  0.00  0.00    +0.033 C 
ATOM     11  C   UNL     1      -0.355   0.081  -0.007  0.00  0.00    +0.029 C 
ATOM     12  C   UNL     1      -0.011  -0.494  -1.383  0.00  0.00    +0.105 C 
ATOM     13  N   UNL     1       0.455  -1.875  -1.229  0.00  0.00    -0.335 N 
ATOM     14 CL   UNL     1       2.087  -4.238  -1.783  0.00  0.00    -0.082 Cl
ATOM     15  H   UNL     1      -0.048  -2.689  -1.770  0.00  0.00    +0.147 HD
ENDROOT
BRANCH  12  16
ATOM     16  C   UNL     1       1.090   0.324  -2.007  0.00  0.00    -0.027 A 
ATOM     17  C   UNL     1       0.784   1.486  -2.691  0.00  0.00    +0.008 A 
ATOM     18  C   UNL     1       1.793   2.240  -3.259  0.00  0.00    +0.038 A 
ATOM     19  C   UNL     1       3.110   1.826  -3.154  0.00  0.00    +0.123 A 
ATOM     20  C   UNL     1       3.414   0.658  -2.474  0.00  0.00    +0.038 A 
ATOM     21  C   UNL     1       2.404  -0.091  -1.902  0.00  0.00    +0.008 A 
ATOM     22  F   UNL     1       4.096   2.559  -3.714  0.00  0.00    -0.205 F 
ENDBRANCH  12  16
BRANCH   1  25
ATOM     23  C   UNL     1       4.385  -0.210   3.010  0.00  0.00    +0.217 C 
ATOM     24  O   UNL     1       5.296  -0.861   2.543  0.00  0.00    -0.275 OA
ATOM     25  N   UNL     1       3.146  -0.317   2.491  0.00  0.00    -0.285 N 
ATOM     26  H   UNL     1       2.336   0.326   2.866  0.00  0.00    +0.155 HD
BRANCH  23  27
ATOM     27  C   UNL     1       4.639   0.718   4.170  0.00  0.00    +0.096 C 
BRANCH  27  29
ATOM     28  C   UNL     1       6.375   1.593   5.740  0.00  0.00    +0.004 C 
ATOM     29  C   UNL     1       6.117   0.651   4.562  0.00  0.00    +0.006 C 
ENDBRANCH  27  29
ENDBRANCH  23  27
ENDBRANCH   1  25
TORSDOF 4
