REMARK  Name = ZINC13322328
REMARK  8 active torsions:
REMARK  status: ('A' for Active; 'I' for Inactive)
REMARK    1  A    between atoms: C_4  and  C_7
REMARK    2  A    between atoms: C_10  and  C_13
REMARK    3  A    between atoms: C_13  and  C_14
REMARK    4  A    between atoms: N_16  and  N_17
REMARK    5  A    between atoms: C_18  and  C_19
REMARK    6  A    between atoms: C_18  and  C_26
REMARK    7  A    between atoms: C_22  and  O_25
REMARK    8  A    between atoms: C_29  and  O_32
REMARK                            x       y       z     vdW  Elec       q    Type
REMARK                         _______ _______ _______ _____ _____    ______ ____
ROOT
ATOM      1  N   UNL     1      -0.905   8.296  -2.747  0.00  0.00    -0.179 NA
ATOM      2  C   UNL     1      -0.253   9.344  -3.176  0.00  0.00    +0.096 C 
ENDROOT
BRANCH   2   3
ATOM      3  C   UNL     1       0.060   9.482  -4.617  0.00  0.00    +0.003 A 
ATOM      4  C   UNL     1       0.551  10.690  -5.113  0.00  0.00    +0.013 A 
ATOM      5  C   UNL     1       0.847  10.813  -6.454  0.00  0.00    +0.046 A 
ATOM      6  C   UNL     1       0.645   9.740  -7.312  0.00  0.00    +0.117 A 
ATOM      7  C   UNL     1       0.151   8.538  -6.822  0.00  0.00    +0.046 A 
ATOM      8  C   UNL     1      -0.141   8.406  -5.482  0.00  0.00    +0.013 A 
BRANCH   6   9
ATOM      9  O   UNL     1       0.932   9.867  -8.634  0.00  0.00    -0.507 OA
ATOM     10  H   UNL     1       0.190  10.180  -9.169  0.00  0.00    +0.292 HD
ENDBRANCH   6   9
ENDBRANCH   2   3
BRANCH   2  11
ATOM     11  C   UNL     1       0.172  10.393  -2.223  0.00  0.00    +0.003 A 
ATOM     12  C   UNL     1      -0.687  10.798  -1.200  0.00  0.00    +0.013 A 
ATOM     13  C   UNL     1      -0.285  11.772  -0.310  0.00  0.00    +0.046 A 
ATOM     14  C   UNL     1       0.967  12.358  -0.439  0.00  0.00    +0.117 A 
ATOM     15  C   UNL     1       1.822  11.961  -1.459  0.00  0.00    +0.046 A 
ATOM     16  C   UNL     1       1.430  10.985  -2.349  0.00  0.00    +0.013 A 
BRANCH  14  17
ATOM     17  O   UNL     1       1.357  13.321   0.436  0.00  0.00    -0.507 OA
ATOM     18  H   UNL     1       1.127  14.219   0.161  0.00  0.00    +0.292 HD
ENDBRANCH  14  17
ENDBRANCH   2  11
BRANCH   1  21
ATOM     19  C   UNL     1      -1.857   7.085  -0.932  0.00  0.00    +0.237 C 
ATOM     20  O   UNL     1      -2.391   6.340  -1.727  0.00  0.00    -0.274 OA
ATOM     21  N   UNL     1      -1.088   8.100  -1.372  0.00  0.00    -0.206 N 
ATOM     22  H   UNL     1      -0.660   8.695  -0.736  0.00  0.00    +0.177 HD
BRANCH  19  23
ATOM     23  C   UNL     1      -2.054   6.874   0.547  0.00  0.00    +0.132 C 
BRANCH  23  27
ATOM     24  C   UNL     1      -4.593   3.493   1.180  0.00  0.00    -0.018 A 
ATOM     25  C   UNL     1      -5.144   4.766   1.045  0.00  0.00    +0.009 A 
ATOM     26  C   UNL     1      -4.319   5.854   0.846  0.00  0.00    +0.005 A 
ATOM     27  C   UNL     1      -2.949   5.682   0.770  0.00  0.00    -0.039 A 
ATOM     28  C   UNL     1      -2.397   4.420   0.897  0.00  0.00    +0.005 A 
ATOM     29  C   UNL     1      -3.212   3.325   1.102  0.00  0.00    +0.009 A 
BRANCH  24  33
ATOM     30  C   UNL     1      -7.119   0.130   1.806  0.00  0.00    +0.000 A 
ATOM     31  C   UNL     1      -7.671   1.392   1.680  0.00  0.00    +0.001 A 
ATOM     32  C   UNL     1      -6.856   2.487   1.476  0.00  0.00    +0.008 A 
ATOM     33  C   UNL     1      -5.475   2.320   1.399  0.00  0.00    -0.018 A 
ATOM     34  C   UNL     1      -4.925   1.045   1.522  0.00  0.00    +0.008 A 
ATOM     35  C   UNL     1      -5.749  -0.042   1.730  0.00  0.00    +0.001 A 
ENDBRANCH  24  33
ENDBRANCH  23  27
ENDBRANCH  19  23
ENDBRANCH   1  21
TORSDOF 8
