REMARK  Name = ZINC17397699
REMARK  10 active torsions:
REMARK  status: ('A' for Active; 'I' for Inactive)
REMARK    1  A    between atoms: C_1  and  C_2
REMARK    2  A    between atoms: C_2  and  C_3
REMARK    3  A    between atoms: C_3  and  C_4
REMARK    4  A    between atoms: C_4  and  C_5
REMARK    5  A    between atoms: C_5  and  N_6
REMARK    6  A    between atoms: C_15  and  C_17
REMARK    7  A    between atoms: N_19  and  N_20
REMARK    8  A    between atoms: C_21  and  C_23
REMARK    9  A    between atoms: C_23  and  N_24
REMARK   10  A    between atoms: C_30  and  C_33
REMARK                            x       y       z     vdW  Elec       q    Type
REMARK                         _______ _______ _______ _____ _____    ______ ____
ROOT
ATOM      1  C   UNL     1      -0.280  -1.891   4.497  0.00  0.00    +0.281 C 
ATOM      2  O   UNL     1       0.238  -2.390   5.477  0.00  0.00    -0.267 OA
ATOM      3  N   UNL     1      -1.280  -2.534   3.862  0.00  0.00    -0.229 N 
ATOM      4  H   UNL     1      -1.693  -2.135   3.080  0.00  0.00    +0.173 HD
ENDROOT
BRANCH   1  14
ATOM      5  N   UNL     1      -0.020   1.094   2.454  0.00  0.00    -0.228 N 
ATOM      6  C   UNL     1       0.965   1.859   2.966  0.00  0.00    +0.275 A 
ATOM      7  O   UNL     1       1.256   2.925   2.455  0.00  0.00    -0.266 OA
ATOM      8  C   UNL     1       1.675   1.380   4.160  0.00  0.00    +0.050 A 
ATOM      9  C   UNL     1       2.701   2.096   4.768  0.00  0.00    +0.014 A 
ATOM     10  C   UNL     1       3.321   1.573   5.883  0.00  0.00    +0.001 A 
ATOM     11  C   UNL     1       2.932   0.345   6.402  0.00  0.00    +0.001 A 
ATOM     12  C   UNL     1       1.917  -0.380   5.814  0.00  0.00    +0.011 A 
ATOM     13  C   UNL     1       1.278   0.129   4.688  0.00  0.00    +0.020 A 
ATOM     14  C   UNL     1       0.187  -0.581   4.002  0.00  0.00    +0.155 A 
ATOM     15  N   UNL     1      -0.366  -0.036   2.945  0.00  0.00    -0.163 NA
BRANCH   5  16
ATOM     16  C   UNL     1      -0.729   1.579   1.267  0.00  0.00    +0.147 C 
BRANCH  16  17
ATOM     17  C   UNL     1      -0.013   1.086   0.008  0.00  0.00    +0.023 C 
BRANCH  17  18
ATOM     18  C   UNL     1      -0.753   1.593  -1.232  0.00  0.00    +0.002 C 
BRANCH  18  20
ATOM     19  C   UNL     1      -0.777   1.606  -3.730  0.00  0.00    +0.004 C 
ATOM     20  C   UNL     1      -0.037   1.099  -2.490  0.00  0.00    -0.003 C 
ENDBRANCH  18  20
ENDBRANCH  17  18
ENDBRANCH  16  17
ENDBRANCH   5  16
ENDBRANCH   1  14
BRANCH   3  21
ATOM     21  N   UNL     1      -1.723  -3.777   4.332  0.00  0.00    -0.233 N 
ATOM     22  C   UNL     1      -2.724  -4.420   3.698  0.00  0.00    +0.247 C 
ATOM     23  O   UNL     1      -3.240  -3.922   2.720  0.00  0.00    -0.273 OA
ATOM     24  H   UNL     1      -1.310  -4.175   5.114  0.00  0.00    +0.173 HD
BRANCH  22  25
ATOM     25  C   UNL     1      -3.200  -5.757   4.203  0.00  0.00    +0.215 C 
BRANCH  25  26
ATOM     26  N   UNL     1      -4.286  -6.243   3.349  0.00  0.00    -0.215 N 
ATOM     27  C   UNL     1      -4.104  -7.008   2.252  0.00  0.00    +0.247 C 
ATOM     28  O   UNL     1      -3.051  -7.408   1.803  0.00  0.00    -0.273 OA
ATOM     29  C   UNL     1      -5.488  -7.261   1.701  0.00  0.00    +0.113 C 
ATOM     30  C   UNL     1      -5.797  -8.754   1.705  0.00  0.00    +0.035 C 
ATOM     31  C   UNL     1      -7.212  -8.987   1.171  0.00  0.00    +0.006 C 
ATOM     32  C   UNL     1      -7.317  -8.431  -0.251  0.00  0.00    -0.014 C 
ATOM     33  C   UNL     1      -7.030  -6.928  -0.234  0.00  0.00    +0.006 C 
ATOM     34  C   UNL     1      -5.614  -6.687   0.294  0.00  0.00    +0.035 C 
ATOM     35  C   UNL     1      -8.728  -8.674  -0.790  0.00  0.00    +0.007 C 
ATOM     36  N   UNL     1      -6.377  -6.549   2.629  0.00  0.00    -0.285 N 
ATOM     37  C   UNL     1      -5.583  -5.989   3.562  0.00  0.00    +0.310 C 
ATOM     38  O   UNL     1      -5.997  -5.325   4.492  0.00  0.00    -0.252 OA
ATOM     39  H   UNL     1      -7.344  -6.496   2.582  0.00  0.00    +0.151 HD
ENDBRANCH  25  26
ENDBRANCH  22  25
ENDBRANCH   3  21
TORSDOF 8
