REMARK  Name = ZINC22295732
REMARK  9 active torsions:
REMARK  status: ('A' for Active; 'I' for Inactive)
REMARK    1  A    between atoms: C_1  and  C_2
REMARK    2  A    between atoms: C_5  and  C_8
REMARK    3  A    between atoms: C_10  and  C_13
REMARK    4  A    between atoms: C_13  and  C_14
REMARK    5  A    between atoms: C_14  and  C_15
REMARK    6  A    between atoms: C_20  and  C_23
REMARK    7  A    between atoms: C_23  and  N_24
REMARK    8  A    between atoms: C_26  and  C_33
REMARK    9  A    between atoms: C_29  and  C_32
REMARK                            x       y       z     vdW  Elec       q    Type
REMARK                         _______ _______ _______ _____ _____    ______ ____
ROOT
ATOM      1  C   UNL     1      -6.827   4.272  -2.010  0.00  0.00    +0.219 C 
ATOM      2  O   UNL     1      -6.812   3.309  -2.747  0.00  0.00    -0.275 OA
ATOM      3  N   UNL     1      -6.340   4.170  -0.758  0.00  0.00    -0.265 N 
ATOM      4  C   UNL     1      -5.821   2.961  -0.310  0.00  0.00    +0.164 A 
ATOM      5  N   UNL     1      -5.310   2.664   0.869  0.00  0.00    -0.231 NA
ATOM      6  C   UNL     1      -4.853   1.455   1.130  0.00  0.00    +0.034 A 
ATOM      7  C   UNL     1      -4.929   0.512   0.160  0.00  0.00    +0.070 A 
ATOM      8  S   UNL     1      -5.686   1.451  -1.158  0.00  0.00    -0.060 S 
ATOM      9  H   UNL     1      -6.353   5.044  -0.089  0.00  0.00    +0.157 HD
ENDROOT
BRANCH   1  10
ATOM     10  C   UNL     1      -7.389   5.584  -2.495  0.00  0.00    +0.105 C 
BRANCH  10  11
ATOM     11  C   UNL     1      -7.870   5.429  -3.940  0.00  0.00    +0.108 C 
BRANCH  11  14
ATOM     12  C   UNL     1      -8.676   8.669  -5.271  0.00  0.00    +0.202 A 
ATOM     13  N   UNL     1      -7.769   7.698  -5.023  0.00  0.00    -0.191 NA
ATOM     14  C   UNL     1      -8.432   6.740  -4.425  0.00  0.00    +0.228 A 
ATOM     15  O   UNL     1      -9.704   7.142  -4.331  0.00  0.00    -0.338 OA
ATOM     16  N   UNL     1      -9.826   8.248  -4.813  0.00  0.00    -0.056 NA
BRANCH  12  21
ATOM     17  C   UNL     1      -7.663  13.716  -7.854  0.00  0.00    +0.044 C 
ATOM     18  C   UNL     1      -7.928  12.396  -7.178  0.00  0.00    -0.050 A 
ATOM     19  C   UNL     1      -9.206  12.087  -6.746  0.00  0.00    +0.004 A 
ATOM     20  C   UNL     1      -9.454  10.879  -6.127  0.00  0.00    +0.012 A 
ATOM     21  C   UNL     1      -8.415   9.970  -5.937  0.00  0.00    +0.022 A 
ATOM     22  C   UNL     1      -7.130  10.288  -6.370  0.00  0.00    +0.012 A 
ATOM     23  C   UNL     1      -6.894  11.497  -6.993  0.00  0.00    +0.004 A 
ENDBRANCH  12  21
ENDBRANCH  11  14
ENDBRANCH  10  11
ENDBRANCH   1  10
BRANCH   6  24
ATOM     24  C   UNL     1      -4.265   1.128   2.479  0.00  0.00    -0.022 C 
BRANCH  24  25
ATOM     25  N   UNL     1      -2.845   1.503   2.498  0.00  0.00    +0.384 N 
ATOM     26  C   UNL     1      -2.181   0.988   3.702  0.00  0.00    -0.075 C 
ATOM     27  C   UNL     1      -0.746   1.518   3.762  0.00  0.00    -0.031 C 
ATOM     28  C   UNL     1       0.010   1.071   2.508  0.00  0.00    +0.003 C 
ATOM     29  C   UNL     1      -0.729   1.579   1.267  0.00  0.00    -0.031 C 
ATOM     30  C   UNL     1      -2.164   1.048   1.279  0.00  0.00    -0.075 C 
ATOM     31  C   UNL     1      -0.013   1.086   0.008  0.00  0.00    +0.005 C 
ATOM     32  C   UNL     1      -0.047   0.965   5.005  0.00  0.00    +0.005 C 
ATOM     33  H   UNL     1      -2.784   2.601   2.526  0.00  0.00    -0.081 HD
ENDBRANCH  24  25
ENDBRANCH   6  24
TORSDOF 6
