REMARK  Name = ZINC11694888
REMARK  6 active torsions:
REMARK  status: ('A' for Active; 'I' for Inactive)
REMARK    1  A    between atoms: C_1  and  C_2
REMARK    2  A    between atoms: C_4  and  C_22
REMARK    3  A    between atoms: C_6  and  C_14
REMARK    4  A    between atoms: C_17  and  S_20
REMARK    5  A    between atoms: S_20  and  C_21
REMARK    6  A    between atoms: N_24  and  C_25
REMARK                            x       y       z     vdW  Elec       q    Type
REMARK                         _______ _______ _______ _____ _____    ______ ____
ROOT
ATOM      1  C   UNL     1      -0.844   3.274  -1.217  0.00  0.00    +0.028 C 
ATOM      2  C   UNL     1       0.227   2.764  -0.251  0.00  0.00    +0.084 C 
ATOM      3  C   UNL     1      -0.406   2.468   1.118  0.00  0.00    +0.124 C 
ATOM      4  C   UNL     1      -1.093   3.732   1.651  0.00  0.00    +0.154 C 
ATOM      5  N   UNL     1      -0.162   4.855   1.546  0.00  0.00    -0.225 N 
ATOM      6  C   UNL     1       0.929   4.870   0.744  0.00  0.00    +0.214 A 
ATOM      7  N   UNL     1       1.532   6.017   0.901  0.00  0.00    -0.202 NA
ATOM      8  C   UNL     1       0.857   6.757   1.788  0.00  0.00    +0.247 A 
ATOM      9  N   UNL     1      -0.185   6.084   2.207  0.00  0.00    -0.156 NA
ATOM     10  N   UNL     1       1.266   3.797  -0.071  0.00  0.00    -0.310 N 
ATOM     11  H   UNL     1       2.132   3.732  -0.501  0.00  0.00    +0.149 HD
ENDROOT
BRANCH   4  12
ATOM     12  C   UNL     1      -1.477   3.527   3.094  0.00  0.00    -0.022 A 
ATOM     13  C   UNL     1      -2.772   3.167   3.419  0.00  0.00    +0.007 A 
ATOM     14  C   UNL     1      -3.127   2.974   4.739  0.00  0.00    +0.015 A 
ATOM     15  C   UNL     1      -2.182   3.151   5.743  0.00  0.00    +0.008 A 
ATOM     16  C   UNL     1      -0.883   3.518   5.413  0.00  0.00    +0.015 A 
ATOM     17  C   UNL     1      -0.534   3.704   4.090  0.00  0.00    +0.007 A 
BRANCH  15  18
ATOM     18  S   UNL     1      -2.631   2.913   7.430  0.00  0.00    -0.129 S 
ATOM     19  C   UNL     1      -4.385   2.455   7.357  0.00  0.00    +0.090 C 
ENDBRANCH  15  18
ENDBRANCH   4  12
BRANCH   3  20
ATOM     20  C   UNL     1       0.665   2.034   2.085  0.00  0.00    +0.224 C 
ATOM     21  O   UNL     1       1.594   2.774   2.334  0.00  0.00    -0.275 OA
ATOM     22  N   UNL     1       0.592   0.824   2.673  0.00  0.00    -0.285 N 
ATOM     23  H   UNL     1      -0.096   0.195   2.404  0.00  0.00    +0.155 HD
BRANCH  22  24
ATOM     24  C   UNL     1       1.509   0.474   3.671  0.00  0.00    +0.033 A 
ATOM     25  C   UNL     1       2.815   0.942   3.611  0.00  0.00    +0.025 A 
ATOM     26  C   UNL     1       3.717   0.599   4.599  0.00  0.00    +0.022 A 
ATOM     27  C   UNL     1       3.322  -0.218   5.644  0.00  0.00    +0.041 A 
ATOM     28  C   UNL     1       2.022  -0.690   5.703  0.00  0.00    +0.022 A 
ATOM     29  C   UNL     1       1.116  -0.346   4.720  0.00  0.00    +0.025 A 
ATOM     30 CL   UNL     1       4.459  -0.653   6.881  0.00  0.00    -0.084 Cl
ENDBRANCH  22  24
ENDBRANCH   3  20
TORSDOF 4
