REMARK  Name = ZINC08767939
REMARK  7 active torsions:
REMARK  status: ('A' for Active; 'I' for Inactive)
REMARK    1  A    between atoms: C_1  and  O_2
REMARK    2  A    between atoms: O_2  and  C_3
REMARK    3  A    between atoms: C_5  and  N_31
REMARK    4  A    between atoms: C_8  and  C_9
REMARK    5  A    between atoms: C_9  and  O_11
REMARK    6  A    between atoms: O_11  and  C_12
REMARK    7  A    between atoms: C_12  and  C_13
REMARK                            x       y       z     vdW  Elec       q    Type
REMARK                         _______ _______ _______ _____ _____    ______ ____
ROOT
ATOM      1  C   UNL     1       1.127  -2.142  -0.020  0.00  0.00    +0.258 C 
ATOM      2  O   UNL     1       0.011  -2.595  -0.163  0.00  0.00    -0.271 OA
ATOM      3  N   UNL     1       2.202  -2.947  -0.137  0.00  0.00    -0.252 N 
ATOM      4  C   UNL     1       3.507  -2.426  -0.155  0.00  0.00    +0.059 A 
ATOM      5  C   UNL     1       3.768  -1.163  -0.646  0.00  0.00    +0.025 A 
ATOM      6  C   UNL     1       5.066  -0.684  -0.654  0.00  0.00    +0.002 A 
ATOM      7  C   UNL     1       6.099  -1.465  -0.169  0.00  0.00    +0.002 A 
ATOM      8  C   UNL     1       5.844  -2.728   0.333  0.00  0.00    +0.025 A 
ATOM      9  C   UNL     1       4.546  -3.214   0.349  0.00  0.00    +0.055 A 
ATOM     10  N   UNL     1       4.264  -4.485   0.864  0.00  0.00    -0.282 N 
ATOM     11  C   UNL     1       3.091  -5.091   0.591  0.00  0.00    +0.241 C 
ATOM     12  O   UNL     1       2.870  -6.199   1.030  0.00  0.00    -0.273 OA
ATOM     13  C   UNL     1       2.055  -4.403  -0.255  0.00  0.00    +0.118 C 
ATOM     14  C   UNL     1       2.210  -4.824  -1.726  0.00  0.00    +0.036 C 
ATOM     15  C   UNL     1       1.180  -5.969  -1.903  0.00  0.00    +0.003 C 
ATOM     16  C   UNL     1      -0.014  -5.491  -1.039  0.00  0.00    +0.003 C 
ATOM     17  C   UNL     1       0.646  -4.824   0.186  0.00  0.00    +0.036 C 
ATOM     18  H   UNL     1       4.918  -4.934   1.423  0.00  0.00    +0.155 HD
ENDROOT
BRANCH   1  19
ATOM     19  C   UNL     1       1.312  -0.678   0.287  0.00  0.00    +0.328 C 
BRANCH  19  20
ATOM     20  O   UNL     1       0.062  -0.124   0.774  0.00  0.00    -0.452 OA
BRANCH  20  21
ATOM     21  C   UNL     1       0.057   1.185   1.097  0.00  0.00    +0.343 C 
ATOM     22  O   UNL     1       1.070   1.844   0.975  0.00  0.00    -0.245 OA
BRANCH  21  28
ATOM     23  C   UNL     1      -1.185   3.179   1.927  0.00  0.00    +0.136 A 
ATOM     24  C   UNL     1      -2.350   3.763   2.391  0.00  0.00    +0.070 A 
ATOM     25  C   UNL     1      -3.504   2.999   2.520  0.00  0.00    +0.047 A 
ATOM     26  C   UNL     1      -3.491   1.645   2.184  0.00  0.00    +0.063 A 
ATOM     27  C   UNL     1      -2.348   1.061   1.720  0.00  0.00    +0.040 A 
ATOM     28  C   UNL     1      -1.177   1.815   1.590  0.00  0.00    +0.102 A 
ATOM     29 CL   UNL     1      -4.939   0.702   2.350  0.00  0.00    -0.082 Cl
BRANCH  25  30
ATOM     30  N   UNL     1      -4.675   3.587   2.986  0.00  0.00    -0.357 N 
ATOM     31  H   UNL     1      -4.685   4.528   3.220  0.00  0.00    +0.142 HD
ATOM     32  H   UNL     1      -5.481   3.056   3.077  0.00  0.00    +0.142 HD
ENDBRANCH  25  30
BRANCH  23  34
ATOM     33  C   UNL     1      -0.139   5.299   2.162  0.00  0.00    +0.277 C 
ATOM     34  O   UNL     1      -0.055   3.919   1.800  0.00  0.00    -0.494 OA
ENDBRANCH  23  34
ENDBRANCH  21  28
ENDBRANCH  20  21
ENDBRANCH  19  20
ENDBRANCH   1  19
TORSDOF 6
