REMARK  Name = ZINC64794254
REMARK  7 active torsions:
REMARK  status: ('A' for Active; 'I' for Inactive)
REMARK    1  A    between atoms: C_1  and  C_2
REMARK    2  A    between atoms: C_2  and  N_3
REMARK    3  A    between atoms: C_4  and  C_17
REMARK    4  A    between atoms: C_7  and  S_8
REMARK    5  A    between atoms: S_8  and  C_9
REMARK    6  A    between atoms: C_9  and  C_10
REMARK    7  A    between atoms: C_18  and  N_26
REMARK                            x       y       z     vdW  Elec       q    Type
REMARK                         _______ _______ _______ _____ _____    ______ ____
ROOT
ATOM      1  N   UNL     1       0.688  -0.476  -1.203  0.00  0.00    -0.302 N 
ATOM      2  C   UNL     1       0.123  -0.750  -2.430  0.00  0.00    +0.173 A 
ATOM      3  N   UNL     1       1.097  -1.146  -3.221  0.00  0.00    -0.128 NA
ATOM      4  N   UNL     1       2.212  -1.139  -2.583  0.00  0.00    -0.122 NA
ATOM      5  C   UNL     1       2.024  -0.733  -1.348  0.00  0.00    +0.192 A 
ENDROOT
BRANCH   2   6
ATOM      6  C   UNL     1      -1.297  -0.623  -2.787  0.00  0.00    +0.080 A 
ATOM      7  C   UNL     1      -1.893  -0.888  -3.982  0.00  0.00    +0.052 A 
ATOM      8  C   UNL     1      -3.328  -0.689  -4.107  0.00  0.00    +0.029 A 
ATOM      9  C   UNL     1      -4.158  -0.895  -5.237  0.00  0.00    +0.014 A 
ATOM     10  C   UNL     1      -5.505  -0.639  -5.129  0.00  0.00    +0.020 A 
ATOM     11  C   UNL     1      -6.040  -0.187  -3.932  0.00  0.00    +0.112 A 
ATOM     12  N   UNL     1      -5.264   0.003  -2.882  0.00  0.00    -0.248 NA
ATOM     13  C   UNL     1      -3.971  -0.227  -2.935  0.00  0.00    +0.111 A 
ATOM     14  S   UNL     1      -2.651  -0.094  -1.756  0.00  0.00    -0.064 S 
BRANCH   7  15
ATOM     15  N   UNL     1      -1.138  -1.343  -5.071  0.00  0.00    -0.356 N 
ATOM     16  H   UNL     1      -0.181  -1.472  -4.977  0.00  0.00    +0.142 HD
ATOM     17  H   UNL     1      -1.572  -1.529  -5.918  0.00  0.00    +0.142 HD
ENDBRANCH   7  15
ENDBRANCH   2   6
BRANCH   1  19
ATOM     18  C   UNL     1      -0.019   1.526   0.010  0.00  0.00    +0.027 C 
ATOM     19  C   UNL     1       0.002  -0.004   0.002  0.00  0.00    +0.122 C 
ENDBRANCH   1  19
BRANCH   5  20
ATOM     20  S   UNL     1       3.262  -0.556  -0.107  0.00  0.00    -0.081 S 
BRANCH  20  21
ATOM     21  C   UNL     1       4.794  -1.052  -0.942  0.00  0.00    +0.112 C 
BRANCH  21  22
ATOM     22  C   UNL     1       5.948  -0.945   0.021  0.00  0.00    -0.037 A 
ATOM     23  C   UNL     1       6.654   0.239   0.125  0.00  0.00    +0.007 A 
ATOM     24  C   UNL     1       7.712   0.338   1.009  0.00  0.00    +0.038 A 
ATOM     25  C   UNL     1       8.066  -0.749   1.790  0.00  0.00    +0.123 A 
ATOM     26  C   UNL     1       7.358  -1.935   1.685  0.00  0.00    +0.038 A 
ATOM     27  C   UNL     1       6.297  -2.030   0.804  0.00  0.00    +0.007 A 
ATOM     28  F   UNL     1       9.100  -0.654   2.653  0.00  0.00    -0.205 F 
ENDBRANCH  21  22
ENDBRANCH  20  21
ENDBRANCH   5  20
TORSDOF 6
