REMARK  Name = ZINC40814951
REMARK  7 active torsions:
REMARK  status: ('A' for Active; 'I' for Inactive)
REMARK    1  A    between atoms: C_1  and  C_2
REMARK    2  A    between atoms: C_6  and  C_7
REMARK    3  A    between atoms: N_9  and  C_10
REMARK    4  A    between atoms: N_24  and  N_25
REMARK    5  A    between atoms: N_25  and  C_26
REMARK    6  A    between atoms: C_29  and  N_35
REMARK    7  A    between atoms: C_31  and  N_32
REMARK                            x       y       z     vdW  Elec       q    Type
REMARK                         _______ _______ _______ _____ _____    ______ ____
ROOT
ATOM      1  C   UNL     1      -0.681   1.212  -0.535  0.00  0.00    +0.048 C 
ATOM      2  C   UNL     1      -0.497  -0.283  -0.571  0.00  0.00    +0.009 A 
ATOM      3  C   UNL     1      -0.415  -1.092  -1.710  0.00  0.00    +0.042 A 
ATOM      4  C   UNL     1      -0.248  -2.398  -1.277  0.00  0.00    +0.115 A 
ATOM      5  O   UNL     1      -0.224  -2.386   0.053  0.00  0.00    -0.454 OA
ATOM      6  C   UNL     1      -0.369  -1.119   0.503  0.00  0.00    +0.193 A 
ATOM      7  C   UNL     1      -0.126  -3.565  -2.224  0.00  0.00    +0.075 C 
ATOM      8  C   UNL     1      -0.712  -3.177  -3.584  0.00  0.00    +0.014 C 
ATOM      9  C   UNL     1      -0.085  -1.876  -4.095  0.00  0.00    +0.058 C 
ATOM     10  C   UNL     1      -0.478  -0.751  -3.148  0.00  0.00    +0.070 C 
ATOM     11  N   UNL     1      -0.843   0.421  -3.572  0.00  0.00    -0.186 NA
ENDROOT
BRANCH   6  12
ATOM     12  C   UNL     1      -0.390  -0.710   1.912  0.00  0.00    +0.284 C 
ATOM     13  O   UNL     1      -0.529   0.464   2.203  0.00  0.00    -0.266 OA
ATOM     14  N   UNL     1      -0.254  -1.633   2.884  0.00  0.00    -0.279 N 
ATOM     15  H   UNL     1      -0.217  -2.576   2.656  0.00  0.00    +0.155 HD
BRANCH  14  16
ATOM     16  C   UNL     1      -0.164  -1.233   4.223  0.00  0.00    +0.037 A 
ATOM     17  C   UNL     1      -0.693  -2.036   5.225  0.00  0.00    +0.027 A 
ATOM     18  C   UNL     1      -0.607  -1.640   6.545  0.00  0.00    +0.051 A 
ATOM     19  C   UNL     1       0.008  -0.441   6.875  0.00  0.00    +0.162 A 
ATOM     20  C   UNL     1       0.541   0.364   5.874  0.00  0.00    +0.164 A 
ATOM     21  C   UNL     1       0.458  -0.036   4.549  0.00  0.00    +0.072 A 
ATOM     22  O   UNL     1       1.155   1.540   6.179  0.00  0.00    -0.485 OA
ATOM     23  C   UNL     1       0.896   2.084   7.478  0.00  0.00    +0.270 C 
ATOM     24  C   UNL     1       1.031   0.954   8.508  0.00  0.00    +0.270 C 
ATOM     25  O   UNL     1       0.080  -0.065   8.182  0.00  0.00    -0.485 OA
ENDBRANCH  14  16
ENDBRANCH   6  12
BRANCH  11  26
ATOM     26  N   UNL     1      -0.884   0.688  -4.946  0.00  0.00    -0.235 N 
ATOM     27  H   UNL     1      -0.640  -0.003  -5.582  0.00  0.00    +0.174 HD
BRANCH  26  28
ATOM     28  C   UNL     1      -1.276   1.946  -5.401  0.00  0.00    +0.079 A 
ATOM     29  C   UNL     1      -1.549   2.962  -4.491  0.00  0.00    +0.029 A 
ATOM     30  C   UNL     1      -1.937   4.207  -4.945  0.00  0.00    +0.035 A 
ATOM     31  C   UNL     1      -2.053   4.444  -6.303  0.00  0.00    +0.128 A 
ATOM     32  C   UNL     1      -1.782   3.436  -7.211  0.00  0.00    +0.067 A 
ATOM     33  C   UNL     1      -1.389   2.190  -6.765  0.00  0.00    +0.151 A 
BRANCH  33  34
ATOM     34  N   UNL     1      -1.091   1.108  -7.743  0.00  0.00    +0.058 N 
ATOM     35  O   UNL     1      -0.182   0.339  -7.536  0.00  0.00    -0.126 OA
ATOM     36  O   UNL     1      -1.759   0.998  -8.745  0.00  0.00    -0.126 OA
ENDBRANCH  33  34
BRANCH  31  37
ATOM     37  N   UNL     1      -2.473   5.789  -6.789  0.00  0.00    +0.056 N 
ATOM     38  O   UNL     1      -2.710   6.671  -5.997  0.00  0.00    -0.126 OA
ATOM     39  O   UNL     1      -2.575   5.999  -7.976  0.00  0.00    -0.126 OA
ENDBRANCH  31  37
ENDBRANCH  26  28
ENDBRANCH  11  26
TORSDOF 6
