REMARK  Name = ZINC38984551
REMARK  10 active torsions:
REMARK  status: ('A' for Active; 'I' for Inactive)
REMARK    1  A    between atoms: C_1  and  C_2
REMARK    2  A    between atoms: C_5  and  S_9
REMARK    3  A    between atoms: C_6  and  C_8
REMARK    4  A    between atoms: S_9  and  N_12
REMARK    5  A    between atoms: C_14  and  N_24
REMARK    6  A    between atoms: N_24  and  C_25
REMARK    7  A    between atoms: C_27  and  O_33
REMARK    8  A    between atoms: C_29  and  O_31
REMARK    9  A    between atoms: O_31  and  C_32
REMARK   10  A    between atoms: O_33  and  C_34
REMARK                            x       y       z     vdW  Elec       q    Type
REMARK                         _______ _______ _______ _____ _____    ______ ____
ROOT
ATOM      1  N   UNL     1       1.377  -4.676   0.982  0.00  0.00    -0.110 NA
ATOM      2  C   UNL     1       1.670  -5.936   0.844  0.00  0.00    +0.192 C 
ATOM      3  C   UNL     1       3.020  -6.460   1.280  0.00  0.00    +0.237 C 
ATOM      4  N   UNL     1       3.290  -7.895   1.098  0.00  0.00    -0.359 N 
ATOM      5  C   UNL     1       2.359  -8.642   0.573  0.00  0.00    +0.063 A 
ATOM      6  C   UNL     1       2.580 -10.082   0.369  0.00  0.00    +0.027 A 
ATOM      7  C   UNL     1       1.591 -10.823  -0.177  0.00  0.00    +0.002 A 
ATOM      8  C   UNL     1       0.363 -10.254  -0.555  0.00  0.00    +0.002 A 
ATOM      9  C   UNL     1       0.088  -8.941  -0.399  0.00  0.00    +0.030 A 
ATOM     10  C   UNL     1       1.053  -8.068   0.165  0.00  0.00    +0.089 A 
ATOM     11  N   UNL     1       0.778  -6.790   0.318  0.00  0.00    -0.226 NA
ATOM     12  H   UNL     1       4.142  -8.277   1.362  0.00  0.00    +0.162 HD
ENDROOT
BRANCH   1  13
ATOM     13  S   UNL     1      -0.107  -4.116   0.507  0.00  0.00    +0.101 S 
ATOM     14  O   UNL     1      -1.064  -4.716   1.370  0.00  0.00    -0.146 OA
ATOM     15  O   UNL     1      -0.162  -4.257  -0.906  0.00  0.00    -0.146 OA
BRANCH  13  20
ATOM     16  C   UNL     1      -0.231   1.807   1.655  0.00  0.00    +0.044 C 
ATOM     17  C   UNL     1      -0.200   0.328   1.368  0.00  0.00    -0.050 A 
ATOM     18  C   UNL     1      -0.264  -0.125   0.063  0.00  0.00    +0.005 A 
ATOM     19  C   UNL     1      -0.235  -1.482  -0.200  0.00  0.00    +0.029 A 
ATOM     20  C   UNL     1      -0.143  -2.386   0.842  0.00  0.00    +0.115 A 
ATOM     21  C   UNL     1      -0.078  -1.933   2.147  0.00  0.00    -0.023 A 
ATOM     22  C   UNL     1      -0.102  -0.576   2.409  0.00  0.00    +0.008 A 
ATOM     23  C   UNL     1       0.022  -2.919   3.282  0.00  0.00    +0.046 C 
ENDBRANCH  13  20
ENDBRANCH   1  13
BRANCH   3  24
ATOM     24  N   UNL     1       3.181  -6.153   2.703  0.00  0.00    -0.318 N 
ATOM     25  H   UNL     1       2.444  -6.298   3.317  0.00  0.00    +0.148 HD
BRANCH  24  26
ATOM     26  C   UNL     1       4.395  -5.652   3.176  0.00  0.00    +0.036 A 
ATOM     27  C   UNL     1       5.496  -5.586   2.332  0.00  0.00    +0.068 A 
ATOM     28  C   UNL     1       6.701  -5.088   2.802  0.00  0.00    +0.125 A 
ATOM     29  C   UNL     1       6.808  -4.656   4.116  0.00  0.00    +0.091 A 
ATOM     30  C   UNL     1       5.710  -4.722   4.960  0.00  0.00    +0.125 A 
ATOM     31  C   UNL     1       4.502  -5.214   4.490  0.00  0.00    +0.068 A 
BRANCH  30  32
ATOM     32  O   UNL     1       5.816  -4.300   6.247  0.00  0.00    -0.495 OA
ATOM     33  C   UNL     1       7.088  -3.800   6.663  0.00  0.00    +0.277 C 
ENDBRANCH  30  32
BRANCH  28  34
ATOM     34  O   UNL     1       7.778  -5.023   1.976  0.00  0.00    -0.495 OA
ATOM     35  C   UNL     1       8.988  -4.499   2.527  0.00  0.00    +0.277 C 
ENDBRANCH  28  34
ENDBRANCH  24  26
ENDBRANCH   3  24
TORSDOF 6
