REMARK  Name = ZINC37129816
REMARK  4 active torsions:
REMARK  status: ('A' for Active; 'I' for Inactive)
REMARK    1  A    between atoms: C_1  and  C_2
REMARK    2  A    between atoms: C_2  and  C_4
REMARK    3  A    between atoms: C_2  and  N_9
REMARK    4  A    between atoms: N_9  and  C_10
REMARK                            x       y       z     vdW  Elec       q    Type
REMARK                         _______ _______ _______ _____ _____    ______ ____
ROOT
ATOM      1  C   UNL     1      -2.077  -0.648  -1.189  0.00  0.00    +0.044 A 
ATOM      2  C   UNL     1      -1.471  -0.308  -2.390  0.00  0.00    +0.051 A 
ATOM      3  C   UNL     1      -2.171  -0.445  -3.578  0.00  0.00    +0.069 A 
ATOM      4  C   UNL     1      -3.483  -0.924  -3.563  0.00  0.00    +0.068 A 
ATOM      5  C   UNL     1      -4.083  -1.262  -2.360  0.00  0.00    +0.045 A 
ATOM      6  C   UNL     1      -3.382  -1.129  -1.178  0.00  0.00    +0.041 A 
ATOM      7 BR   UNL     1      -4.200  -1.597   0.462  0.00  0.00    -0.048 Br
ATOM      8  N   UNL     1      -3.916  -0.950  -4.889  0.00  0.00    -0.306 N 
ATOM      9  H   UNL     1      -4.791  -1.238  -5.195  0.00  0.00    +0.170 HD
ATOM     10  C   UNL     1      -2.914  -0.508  -5.671  0.00  0.00    +0.325 A 
ATOM     11  O   UNL     1      -2.963  -0.406  -6.883  0.00  0.00    -0.247 OA
ATOM     12  N   UNL     1      -1.848  -0.195  -4.910  0.00  0.00    -0.306 N 
ATOM     13  H   UNL     1      -1.000   0.146  -5.234  0.00  0.00    +0.170 HD
ENDROOT
BRANCH   1  14
ATOM     14  N   UNL     1      -1.372  -0.511   0.012  0.00  0.00    -0.336 N 
ATOM     15  H   UNL     1      -1.794  -0.752   0.852  0.00  0.00    +0.147 HD
BRANCH  14  17
ATOM     16  C   UNL     1      -0.019   1.526   0.010  0.00  0.00    +0.033 C 
ATOM     17  C   UNL     1       0.002  -0.004   0.002  0.00  0.00    +0.104 C 
BRANCH  17  18
ATOM     18  C   UNL     1       0.731  -0.503   1.223  0.00  0.00    +0.010 A 
ATOM     19  C   UNL     1       2.010  -0.938   1.335  0.00  0.00    +0.013 A 
ATOM     20  C   UNL     1       2.470  -1.354   2.570  0.00  0.00    +0.008 A 
ATOM     21  C   UNL     1       1.630  -1.314   3.633  0.00  0.00    +0.045 A 
ATOM     22  S   UNL     1       0.137  -0.668   2.898  0.00  0.00    -0.100 S 
ENDBRANCH  17  18
ENDBRANCH  14  17
ENDBRANCH   1  14
TORSDOF 3
