REMARK  Name = ZINC43735690
REMARK  13 active torsions:
REMARK  status: ('A' for Active; 'I' for Inactive)
REMARK    1  A    between atoms: C_1  and  C_2
REMARK    2  A    between atoms: C_5  and  O_40
REMARK    3  A    between atoms: C_7  and  C_38
REMARK    4  A    between atoms: C_7  and  C_39
REMARK    5  A    between atoms: C_12  and  C_37
REMARK    6  A    between atoms: C_20  and  C_30
REMARK    7  A    between atoms: C_20  and  C_31
REMARK    8  A    between atoms: C_24  and  C_29
REMARK    9  A    between atoms: C_27  and  C_28
REMARK   10  A    between atoms: C_31  and  O_33
REMARK   11  A    between atoms: O_33  and  C_34
REMARK   12  A    between atoms: C_34  and  C_35
REMARK   13  A    between atoms: C_35  and  N_36
REMARK                            x       y       z     vdW  Elec       q    Type
REMARK                         _______ _______ _______ _____ _____    ______ ____
ROOT
ATOM      1  C   UNL     1      -0.787   1.400   0.090  0.00  0.00    +0.012 C 
ATOM      2  C   UNL     1      -0.588  -0.108   0.047  0.00  0.00    -0.022 C 
ATOM      3  C   UNL     1      -0.533  -0.534  -1.433  0.00  0.00    +0.010 C 
ATOM      4  C   UNL     1       0.666   0.130  -2.104  0.00  0.00    +0.032 C 
ATOM      5  C   UNL     1       1.967  -0.323  -1.459  0.00  0.00    +0.120 C 
ATOM      6  C   UNL     1       1.982  -0.120   0.055  0.00  0.00    -0.006 C 
ATOM      7  C   UNL     1       0.701  -0.579   0.712  0.00  0.00    +0.004 C 
ATOM      8  C   UNL     1       0.665  -0.312   2.214  0.00  0.00    +0.005 C 
ATOM      9  C   UNL     1      -0.458  -1.165   2.831  0.00  0.00    +0.008 C 
ATOM     10  C   UNL     1      -1.792  -0.756   2.221  0.00  0.00    -0.016 C 
ATOM     11  C   UNL     1      -1.752  -0.845   0.706  0.00  0.00    +0.025 C 
ATOM     12  C   UNL     1      -3.081  -0.534   0.099  0.00  0.00    -0.022 C 
ATOM     13  C   UNL     1      -4.219  -0.630   0.781  0.00  0.00    +0.000 C 
ATOM     14  C   UNL     1      -4.210  -1.018   2.211  0.00  0.00    -0.041 C 
ATOM     15  C   UNL     1      -5.281  -0.796   2.960  0.00  0.00    -0.052 C 
ATOM     16  C   UNL     1      -6.496  -0.150   2.337  0.00  0.00    +0.050 C 
ATOM     17  C   UNL     1      -7.760  -0.933   2.689  0.00  0.00    +0.075 C 
ATOM     18  C   UNL     1      -7.918  -0.998   4.210  0.00  0.00    +0.093 C 
ATOM     19  C   UNL     1      -6.694  -1.652   4.800  0.00  0.00    +0.144 C 
ATOM     20  O   UNL     1      -6.810  -2.567   5.581  0.00  0.00    -0.296 OA
ATOM     21  C   UNL     1      -5.323  -1.158   4.418  0.00  0.00    +0.048 C 
ATOM     22  C   UNL     1      -4.279  -2.210   4.765  0.00  0.00    +0.019 C 
ATOM     23  C   UNL     1      -2.910  -1.784   4.239  0.00  0.00    +0.013 C 
ATOM     24  C   UNL     1      -2.940  -1.642   2.732  0.00  0.00    -0.001 C 
ATOM     25  C   UNL     1      -2.824  -3.046   2.141  0.00  0.00    +0.016 C 
ATOM     26  C   UNL     1      -5.040   0.105   5.236  0.00  0.00    +0.024 C 
ATOM     27  C   UNL     1      -7.662  -2.349   2.120  0.00  0.00    +0.023 C 
ATOM     28  C   UNL     1      -2.129   0.671   2.691  0.00  0.00    +0.012 C 
ATOM     29  C   UNL     1       2.332   1.330   0.386  0.00  0.00    +0.014 C 
ATOM     30  C   UNL     1       3.140  -0.997   0.596  0.00  0.00    +0.014 C 
ENDROOT
BRANCH  17  31
ATOM     31  C   UNL     1      -8.957  -0.238   2.093  0.00  0.00    +0.314 C 
ATOM     32  O   UNL     1      -8.810   0.777   1.453  0.00  0.00    -0.250 OA
BRANCH  31  33
ATOM     33  O   UNL     1     -10.187  -0.746   2.272  0.00  0.00    -0.466 OA
BRANCH  33  34
ATOM     34  C   UNL     1     -11.275  -0.035   1.679  0.00  0.00    +0.213 C 
BRANCH  34  35
ATOM     35  C   UNL     1     -12.587  -0.760   1.988  0.00  0.00    -0.045 C 
BRANCH  35  36
ATOM     36  N   UNL     1     -12.839  -0.720   3.435  0.00  0.00    +0.380 N 
ATOM     37  H   UNL     1     -12.080  -1.174   3.921  0.00  0.00    -0.090 HD
ATOM     38  H   UNL     1     -12.905   0.240   3.738  0.00  0.00    -0.090 HD
ATOM     39  H   UNL     1     -13.704  -1.198   3.639  0.00  0.00    -0.090 HD
ENDBRANCH  35  36
ENDBRANCH  34  35
ENDBRANCH  33  34
ENDBRANCH  31  33
ENDBRANCH  17  31
BRANCH   5  40
ATOM     40  O   UNL     1       2.191  -1.707  -1.752  0.00  0.00    -0.391 OA
ATOM     41  H   UNL     1       2.258  -1.904  -2.696  0.00  0.00    +0.210 HD
ENDBRANCH   5  40
TORSDOF 6
