REMARK  Name = ZINC37629324
REMARK  9 active torsions:
REMARK  status: ('A' for Active; 'I' for Inactive)
REMARK    1  A    between atoms: C_1  and  C_2
REMARK    2  A    between atoms: C_2  and  C_4
REMARK    3  A    between atoms: C_2  and  C_8
REMARK    4  A    between atoms: C_4  and  C_5
REMARK    5  A    between atoms: C_5  and  C_6
REMARK    6  A    between atoms: C_14  and  C_35
REMARK    7  A    between atoms: C_21  and  O_34
REMARK    8  A    between atoms: C_26  and  C_33
REMARK    9  A    between atoms: C_29  and  O_32
REMARK                            x       y       z     vdW  Elec       q    Type
REMARK                         _______ _______ _______ _____ _____    ______ ____
ROOT
ATOM      1  C   UNL     1       0.778  -0.552   1.201  0.00  0.00    -0.002 C 
ATOM      2  C   UNL     1       2.238  -0.034   1.178  0.00  0.00    +0.004 C 
ATOM      3  C   UNL     1       3.143  -1.282   0.983  0.00  0.00    +0.005 C 
ATOM      4  C   UNL     1       2.202  -2.286   0.310  0.00  0.00    +0.001 C 
ATOM      5  C   UNL     1       0.886  -2.071   1.111  0.00  0.00    -0.026 C 
ATOM      6  C   UNL     1      -0.224  -2.786   0.366  0.00  0.00    +0.007 C 
ATOM      7  C   UNL     1       0.100  -4.290   0.396  0.00  0.00    +0.005 C 
ATOM      8  C   UNL     1       1.466  -4.575  -0.216  0.00  0.00    +0.001 C 
ATOM      9  C   UNL     1       2.588  -3.747   0.442  0.00  0.00    +0.025 C 
ATOM     10  C   UNL     1       3.916  -4.012  -0.269  0.00  0.00    +0.118 C 
ATOM     11  C   UNL     1       4.260  -5.500  -0.169  0.00  0.00    +0.035 C 
ATOM     12  C   UNL     1       3.155  -6.325  -0.832  0.00  0.00    +0.000 C 
ATOM     13  C   UNL     1       1.797  -6.063  -0.088  0.00  0.00    -0.026 C 
ATOM     14  C   UNL     1       0.693  -6.889  -0.753  0.00  0.00    +0.010 C 
ATOM     15  C   UNL     1       0.587  -6.501  -2.229  0.00  0.00    +0.032 C 
ATOM     16  C   UNL     1       1.921  -6.778  -2.927  0.00  0.00    +0.115 C 
ATOM     17  C   UNL     1       3.034  -5.924  -2.303  0.00  0.00    +0.035 C 
ATOM     18  C   UNL     1       1.902  -6.438   1.391  0.00  0.00    +0.012 C 
ATOM     19  C   UNL     1       1.032  -2.663   2.514  0.00  0.00    +0.012 C 
ENDROOT
BRANCH   1  21
ATOM     20  C   UNL     1       0.796  -0.261  -1.280  0.00  0.00    +0.008 C 
ATOM     21  C   UNL     1       0.002  -0.004   0.002  0.00  0.00    -0.010 C 
BRANCH  21  22
ATOM     22  C   UNL     1      -0.211   1.501   0.177  0.00  0.00    +0.018 C 
BRANCH  22  23
ATOM     23  C   UNL     1      -1.107   2.024  -0.947  0.00  0.00    +0.119 C 
BRANCH  23  24
ATOM     24  C   UNL     1      -1.312   3.471  -0.778  0.00  0.00    +0.063 C 
ATOM     25  N   UNL     1      -1.470   4.589  -0.648  0.00  0.00    -0.197 NA
ENDBRANCH  23  24
ENDBRANCH  22  23
ENDBRANCH  21  22
ENDBRANCH   1  21
BRANCH  16  26
ATOM     26  O   UNL     1       1.822  -6.413  -4.305  0.00  0.00    -0.392 OA
ATOM     27  H   UNL     1       1.140  -6.896  -4.792  0.00  0.00    +0.210 HD
ENDBRANCH  16  26
BRANCH  10  28
ATOM     28  O   UNL     1       3.804  -3.641  -1.644  0.00  0.00    -0.391 OA
ATOM     29  H   UNL     1       4.611  -3.782  -2.157  0.00  0.00    +0.210 HD
ENDBRANCH  10  28
TORSDOF 6
