REMARK  Name = ZINC04533827
REMARK  18 active torsions:
REMARK  status: ('A' for Active; 'I' for Inactive)
REMARK    1  A    between atoms: C_1  and  C_2
REMARK    2  A    between atoms: N_4  and  C_5
REMARK    3  A    between atoms: C_7  and  O_38
REMARK    4  A    between atoms: C_9  and  O_37
REMARK    5  A    between atoms: C_11  and  C_35
REMARK    6  A    between atoms: C_14  and  O_16
REMARK    7  A    between atoms: O_16  and  C_17
REMARK    8  A    between atoms: C_17  and  C_18
REMARK    9  A    between atoms: C_18  and  C_20
REMARK   10  A    between atoms: C_18  and  O_34
REMARK   11  A    between atoms: C_20  and  C_22
REMARK   12  A    between atoms: C_20  and  O_33
REMARK   13  A    between atoms: C_22  and  C_24
REMARK   14  A    between atoms: C_22  and  O_32
REMARK   15  A    between atoms: C_24  and  C_26
REMARK   16  A    between atoms: C_24  and  N_28
REMARK   17  A    between atoms: C_29  and  C_31
REMARK   18  A    between atoms: C_35  and  O_36
REMARK                            x       y       z     vdW  Elec       q    Type
REMARK                         _______ _______ _______ _____ _____    ______ ____
ROOT
ATOM      1  O   UNK A   1       3.530   1.787   1.185  0.00  0.00    -0.347 OA
ENDROOT
BRANCH   1   7
ATOM      2  C   UNK A   1       5.684   2.101   2.237  0.00  0.00    +0.160 C 
ATOM      3  C   UNK A   1       6.556   1.625   3.403  0.00  0.00    +0.171 C 
ATOM      4  C   UNK A   1       6.695   0.101   3.334  0.00  0.00    +0.176 C 
ATOM      5  C   UNK A   1       5.301  -0.531   3.356  0.00  0.00    +0.178 C 
ATOM      6  O   UNK A   1       4.531  -0.023   2.265  0.00  0.00    -0.341 OA
ATOM      7  C   UNK A   1       4.329   1.391   2.301  0.00  0.00    +0.273 C 
BRANCH   2  11
ATOM      8  C   UNK A   1       7.882   2.331  -0.888  0.00  0.00    +0.109 C 
ATOM      9  C   UNK A   1       7.203   2.660   0.416  0.00  0.00    +0.210 C 
ATOM     10  O   UNK A   1       7.429   3.716   0.968  0.00  0.00    -0.276 OA
ATOM     11  N   UNK A   1       6.344   1.781   0.969  0.00  0.00    -0.305 N 
ATOM     12  H   UNK A   1       6.163   0.936   0.527  0.00  0.00    +0.149 HD
ENDBRANCH   2  11
BRANCH   3  13
ATOM     13  O   UNK A   1       7.849   2.227   3.308  0.00  0.00    -0.387 OA
ATOM     14  H   UNK A   1       8.455   1.970   4.017  0.00  0.00    +0.210 HD
ENDBRANCH   3  13
BRANCH   4  15
ATOM     15  O   UNK A   1       7.365  -0.264   2.127  0.00  0.00    -0.387 OA
ATOM     16  H   UNK A   1       7.488  -1.216   2.017  0.00  0.00    +0.210 HD
ENDBRANCH   4  15
BRANCH   5  17
ATOM     17  C   UNK A   1       5.428  -2.050   3.228  0.00  0.00    +0.190 C 
BRANCH  17  18
ATOM     18  O   UNK A   1       4.138  -2.650   3.365  0.00  0.00    -0.392 OA
ATOM     19  H   UNK A   1       4.142  -3.614   3.295  0.00  0.00    +0.210 HD
ENDBRANCH  17  18
ENDBRANCH   5  17
ENDBRANCH   1   7
BRANCH   1  20
ATOM     20  C   UNK A   1       2.168   1.362   1.265  0.00  0.00    +0.197 C 
BRANCH  20  21
ATOM     21  C   UNK A   1       1.411   1.839   0.024  0.00  0.00    +0.171 C 
BRANCH  21  22
ATOM     22  O   UNK A   1       1.361   3.267   0.016  0.00  0.00    -0.387 OA
ATOM     23  H   UNK A   1       0.917   3.649   0.786  0.00  0.00    +0.210 HD
ENDBRANCH  21  22
BRANCH  21  24
ATOM     24  C   UNK A   1      -0.013   1.279   0.049  0.00  0.00    +0.176 C 
BRANCH  24  25
ATOM     25  O   UNK A   1       0.036  -0.149   0.057  0.00  0.00    -0.387 OA
ATOM     26  H   UNK A   1       0.480  -0.531  -0.713  0.00  0.00    +0.210 HD
ENDBRANCH  24  25
BRANCH  24  27
ATOM     27  C   UNK A   1      -0.770   1.756  -1.192  0.00  0.00    +0.173 C 
BRANCH  27  28
ATOM     28  O   UNK A   1      -0.820   3.184  -1.200  0.00  0.00    -0.387 OA
ATOM     29  H   UNK A   1      -1.264   3.567  -0.430  0.00  0.00    +0.210 HD
ENDBRANCH  27  28
BRANCH  27  30
ATOM     30  C   UNK A   1      -2.194   1.196  -1.168  0.00  0.00    +0.167 C 
BRANCH  30  31
ATOM     31  N   UNK A   1      -2.881   1.554  -2.412  0.00  0.00    -0.304 N 
ATOM     32  C   UNK A   0      -3.905   0.799  -2.857  0.00  0.00    +0.211 C 
ATOM     33  O   UNK A   0      -4.258  -0.176  -2.227  0.00  0.00    -0.276 OA
ATOM     34  C   UNK A   0      -4.611   1.166  -4.136  0.00  0.00    +0.109 C 
ATOM     35  H   UNK A   1      -2.598   2.333  -2.915  0.00  0.00    +0.149 HD
ENDBRANCH  30  31
BRANCH  30  36
ATOM     36  C   UNK A   1      -2.942   1.778   0.004  0.00  0.00    +0.248 C 
ATOM     37  O   UNK A   1      -3.946   2.424  -0.181  0.00  0.00    -0.299 OA
ENDBRANCH  30  36
ENDBRANCH  27  30
ENDBRANCH  24  27
ENDBRANCH  21  24
ENDBRANCH  20  21
ENDBRANCH   1  20
TORSDOF 16
