REMARK  Name = ZINC44117228
REMARK  4 active torsions:
REMARK  status: ('A' for Active; 'I' for Inactive)
REMARK    1  A    between atoms: C_1  and  C_2
REMARK    2  A    between atoms: N_5  and  C_11
REMARK    3  A    between atoms: C_7  and  C_10
REMARK    4  A    between atoms: C_17  and  O_19
REMARK                            x       y       z     vdW  Elec       q    Type
REMARK                         _______ _______ _______ _____ _____    ______ ____
ROOT
ATOM      1  C   UNL     1       2.832  -0.456  -2.443  0.00  0.00    +0.090 C 
ATOM      2  C   UNL     1       4.282   0.028  -2.373  0.00  0.00    +0.086 C 
ATOM      3  C   UNL     1       5.020  -0.390  -3.645  0.00  0.00    +0.172 C 
ATOM      4  C   UNL     1       4.335   0.221  -4.868  0.00  0.00    +0.067 C 
ATOM      5  C   UNL     1       2.885  -0.264  -4.934  0.00  0.00    +0.038 C 
ATOM      6  C   UNL     1       2.146   0.162  -3.663  0.00  0.00    +0.132 C 
ATOM      7  O   UNL     1       5.006  -1.823  -3.756  0.00  0.00    -0.346 OA
ATOM      8  C   UNL     1       6.290  -2.162  -4.334  0.00  0.00    +0.191 C 
ATOM      9  C   UNL     1       7.219  -1.114  -3.672  0.00  0.00    +0.191 C 
ATOM     10  O   UNL     1       6.380   0.056  -3.582  0.00  0.00    -0.346 OA
ENDROOT
BRANCH   1  14
ATOM     11  C   UNL     1      -0.019   1.526   0.010  0.00  0.00    +0.039 C 
ATOM     12  C   UNL     1       0.002  -0.004   0.002  0.00  0.00    +0.130 C 
ATOM     13  C   UNL     1       0.720  -0.499  -1.256  0.00  0.00    +0.116 C 
ATOM     14  N   UNL     1       2.120  -0.050  -1.224  0.00  0.00    -0.292 NA
ATOM     15  C   UNL     1       2.801  -0.554  -0.023  0.00  0.00    +0.116 C 
ATOM     16  C   UNL     1       2.062  -0.059   1.223  0.00  0.00    +0.130 C 
ATOM     17  O   UNL     1       0.695  -0.479   1.159  0.00  0.00    -0.371 OA
ATOM     18  C   UNL     1       2.719  -0.646   2.474  0.00  0.00    +0.039 C 
ENDBRANCH   1  14
BRANCH   6  19
ATOM     19  O   UNL     1       2.171   1.587  -3.553  0.00  0.00    -0.390 OA
ATOM     20  H   UNL     1       1.752   2.046  -4.294  0.00  0.00    +0.210 HD
ENDBRANCH   6  19
TORSDOF 2
