REMARK  Name = ZINC01751536
REMARK  10 active torsions:
REMARK  status: ('A' for Active; 'I' for Inactive)
REMARK    1  A    between atoms: C_1  and  C_2
REMARK    2  A    between atoms: C_2  and  C_3
REMARK    3  A    between atoms: C_3  and  C_4
REMARK    4  A    between atoms: C_4  and  C_5
REMARK    5  A    between atoms: C_8  and  N_11
REMARK    6  A    between atoms: C_25  and  C_34
REMARK    7  A    between atoms: N_27  and  C_28
REMARK    8  A    between atoms: C_35  and  C_37
REMARK    9  A    between atoms: C_40  and  O_44
REMARK   10  A    between atoms: C_41  and  O_43
REMARK                            x       y       z     vdW  Elec       q    Type
REMARK                         _______ _______ _______ _____ _____    ______ ____
ROOT
ATOM      1  N   UNL     1       3.506  -3.919   5.828  0.00  0.00    -0.297 N 
ATOM      2  C   UNL     1       2.828  -4.071   7.024  0.00  0.00    +0.164 C 
ATOM      3  N   UNL     1       1.533  -3.882   7.070  0.00  0.00    -0.227 NA
ATOM      4  C   UNL     1       0.833  -4.023   8.225  0.00  0.00    +0.087 A 
ATOM      5  C   UNL     1      -0.551  -3.812   8.235  0.00  0.00    +0.030 A 
ATOM      6  C   UNL     1      -1.259  -3.956   9.406  0.00  0.00    +0.002 A 
ATOM      7  C   UNL     1      -0.611  -4.309  10.580  0.00  0.00    +0.002 A 
ATOM      8  C   UNL     1       0.752  -4.521  10.589  0.00  0.00    +0.025 A 
ATOM      9  C   UNL     1       1.485  -4.381   9.418  0.00  0.00    +0.062 A 
ATOM     10  N   UNL     1       2.852  -4.591   9.415  0.00  0.00    -0.269 N 
ATOM     11  C   UNL     1       3.563  -4.454   8.244  0.00  0.00    +0.169 C 
ATOM     12  N   UNL     1       4.858  -4.648   8.193  0.00  0.00    -0.209 NA
ATOM     13  C   UNL     1       5.621  -4.999   9.250  0.00  0.00    +0.164 A 
ATOM     14  C   UNL     1       5.058  -5.182  10.502  0.00  0.00    +0.044 A 
ATOM     15  C   UNL     1       6.067  -5.535  11.385  0.00  0.00    +0.068 A 
ATOM     16  N   UNL     1       7.202  -5.572  10.729  0.00  0.00    -0.169 NA
ATOM     17  N   UNL     1       6.962  -5.242   9.389  0.00  0.00    -0.214 N 
ATOM     18  C   UNL     1       5.889  -5.825  12.853  0.00  0.00    +0.068 C 
ATOM     19  C   UNL     1       3.567  -4.967  10.643  0.00  0.00    +0.146 C 
ATOM     20  H   UNL     1       4.450  -4.134   5.775  0.00  0.00    +0.154 HD
ENDROOT
BRANCH   1  24
ATOM     21  C   UNL     1       1.494  -2.532   2.456  0.00  0.00    -0.047 A 
ATOM     22  C   UNL     1       1.125  -2.085   3.712  0.00  0.00    +0.005 A 
ATOM     23  C   UNL     1       1.790  -2.543   4.832  0.00  0.00    +0.023 A 
ATOM     24  C   UNL     1       2.831  -3.454   4.697  0.00  0.00    +0.032 A 
ATOM     25  C   UNL     1       3.198  -3.901   3.434  0.00  0.00    +0.023 A 
ATOM     26  C   UNL     1       2.526  -3.443   2.318  0.00  0.00    +0.005 A 
BRANCH  21  27
ATOM     27  C   UNL     1       0.766  -2.031   1.236  0.00  0.00    +0.035 C 
BRANCH  27  28
ATOM     28  C   UNL     1      -0.424  -2.947   0.939  0.00  0.00    +0.004 C 
BRANCH  28  30
ATOM     29  C   UNL     1      -2.352  -3.353  -0.596  0.00  0.00    +0.004 C 
ATOM     30  C   UNL     1      -1.163  -2.437  -0.300  0.00  0.00    -0.003 C 
ENDBRANCH  28  30
ENDBRANCH  27  28
ENDBRANCH  21  27
ENDBRANCH   1  24
BRANCH  17  31
ATOM     31  C   UNL     1       7.922  -5.173   8.371  0.00  0.00    +0.068 A 
ATOM     32  C   UNL     1       7.591  -5.548   7.076  0.00  0.00    +0.028 A 
ATOM     33  C   UNL     1       8.540  -5.479   6.075  0.00  0.00    +0.002 A 
ATOM     34  C   UNL     1       9.819  -5.038   6.362  0.00  0.00    +0.000 A 
ATOM     35  C   UNL     1      10.152  -4.664   7.651  0.00  0.00    +0.002 A 
ATOM     36  C   UNL     1       9.205  -4.724   8.655  0.00  0.00    +0.028 A 
ENDBRANCH  17  31
BRANCH  19  37
ATOM     37  C   UNL     1       3.330  -3.893  11.673  0.00  0.00    -0.018 A 
ATOM     38  C   UNL     1       3.323  -2.563  11.293  0.00  0.00    +0.009 A 
ATOM     39  C   UNL     1       3.107  -1.574  12.234  0.00  0.00    +0.049 A 
ATOM     40  C   UNL     1       2.895  -1.913  13.561  0.00  0.00    +0.158 A 
ATOM     41  C   UNL     1       2.902  -3.252  13.943  0.00  0.00    +0.159 A 
ATOM     42  C   UNL     1       3.115  -4.239  12.994  0.00  0.00    +0.055 A 
BRANCH  41  43
ATOM     43  O   UNL     1       2.695  -3.590  15.243  0.00  0.00    -0.503 OA
ATOM     44  H   UNL     1       1.766  -3.735  15.469  0.00  0.00    +0.292 HD
ENDBRANCH  41  43
BRANCH  40  45
ATOM     45  O   UNL     1       2.682  -0.941  14.488  0.00  0.00    -0.503 OA
ATOM     46  H   UNL     1       1.752  -0.707  14.605  0.00  0.00    +0.292 HD
ENDBRANCH  40  45
ENDBRANCH  19  37
TORSDOF 8
