REMARK  Name = ZINC20558721
REMARK  7 active torsions:
REMARK  status: ('A' for Active; 'I' for Inactive)
REMARK    1  A    between atoms: C_1  and  O_2
REMARK    2  A    between atoms: O_2  and  C_3
REMARK    3  A    between atoms: C_7  and  C_9
REMARK    4  A    between atoms: C_9  and  N_10
REMARK    5  A    between atoms: C_22  and  C_30
REMARK    6  A    between atoms: C_24  and  C_28
REMARK    7  A    between atoms: C_25  and  N_27
REMARK                            x       y       z     vdW  Elec       q    Type
REMARK                         _______ _______ _______ _____ _____    ______ ____
ROOT
ATOM      1  N   UNL     1       3.654  -0.608  -0.012  0.00  0.00    -0.198 N 
ATOM      2  C   UNL     1       2.411   0.035  -0.013  0.00  0.00    +0.062 A 
ATOM      3  C   UNL     1       2.378   1.424  -0.010  0.00  0.00    +0.025 A 
ATOM      4  C   UNL     1       1.168   2.089   0.002  0.00  0.00    +0.002 A 
ATOM      5  C   UNL     1      -0.017   1.373   0.010  0.00  0.00    +0.001 A 
ATOM      6  C   UNL     1       0.002  -0.004   0.002  0.00  0.00    +0.013 A 
ATOM      7  C   UNL     1       1.221  -0.694  -0.010  0.00  0.00    +0.042 A 
ATOM      8  C   UNL     1       1.177  -2.176  -0.026  0.00  0.00    +0.162 C 
ATOM      9  C   UNL     1       2.239  -2.909   0.293  0.00  0.00    +0.141 C 
ATOM     10  S   UNL     1       3.740  -2.088   0.746  0.00  0.00    +0.076 S 
ATOM     11  O   UNL     1       3.674  -1.843   2.144  0.00  0.00    -0.150 OA
ATOM     12  O   UNL     1       4.806  -2.806   0.140  0.00  0.00    -0.150 OA
ATOM     13  C   UNL     1       2.197  -4.412   0.279  0.00  0.00    +0.118 C 
ATOM     14  C   UNL     1       1.019  -4.890  -0.525  0.00  0.00    +0.099 C 
ATOM     15  C   UNL     1      -0.003  -4.044  -0.808  0.00  0.00    +0.199 C 
ATOM     16  O   UNL     1       0.007  -2.772  -0.379  0.00  0.00    -0.439 OA
ENDROOT
BRANCH  13  17
ATOM     17  C   UNL     1       2.077  -4.922   1.692  0.00  0.00    -0.033 A 
ATOM     18  C   UNL     1       0.992  -4.558   2.468  0.00  0.00    +0.006 A 
ATOM     19  C   UNL     1       0.878  -5.030   3.762  0.00  0.00    +0.020 A 
ATOM     20  C   UNL     1       1.857  -5.857   4.285  0.00  0.00    +0.041 A 
ATOM     21  C   UNL     1       2.945  -6.217   3.510  0.00  0.00    +0.020 A 
ATOM     22  C   UNL     1       3.054  -5.749   2.214  0.00  0.00    +0.006 A 
ATOM     23 CL   UNL     1       1.718  -6.444   5.913  0.00  0.00    -0.084 Cl
ENDBRANCH  13  17
BRANCH  15  24
ATOM     24  N   UNL     1      -1.068  -4.497  -1.547  0.00  0.00    -0.328 N 
ATOM     25  H   UNL     1      -1.902  -3.820  -1.782  0.00  0.00    +0.145 HD
ATOM     26  H   UNL     1      -1.087  -5.537  -1.904  0.00  0.00    +0.145 HD
ENDBRANCH  15  24
BRANCH  14  27
ATOM     27  C   UNL     1       0.977  -6.243  -0.995  0.00  0.00    +0.101 C 
ATOM     28  N   UNL     1       0.944  -7.315  -1.367  0.00  0.00    -0.191 NA
ENDBRANCH  14  27
BRANCH   1  29
ATOM     29  C   UNL     1       4.828  -0.005  -0.650  0.00  0.00    +0.166 C 
BRANCH  29  34
ATOM     30  C   UNL     1       5.466  -1.798  -3.915  0.00  0.00    +0.120 A 
ATOM     31  C   UNL     1       4.832  -0.957  -4.818  0.00  0.00    +0.045 A 
ATOM     32  C   UNL     1       4.199   0.185  -4.369  0.00  0.00    +0.004 A 
ATOM     33  C   UNL     1       4.198   0.492  -3.021  0.00  0.00    +0.005 A 
ATOM     34  C   UNL     1       4.830  -0.343  -2.119  0.00  0.00    -0.025 A 
ATOM     35  C   UNL     1       5.468  -1.485  -2.563  0.00  0.00    +0.051 A 
BRANCH  30  37
ATOM     36  C   UNL     1       6.052  -3.178  -5.760  0.00  0.00    +0.277 C 
ATOM     37  O   UNL     1       6.090  -2.923  -4.354  0.00  0.00    -0.495 OA
ENDBRANCH  30  37
ENDBRANCH  29  34
ENDBRANCH   1  29
TORSDOF 6
