REMARK  Name = ZINC52104755
REMARK  8 active torsions:
REMARK  status: ('A' for Active; 'I' for Inactive)
REMARK    1  A    between atoms: C_1  and  C_2
REMARK    2  A    between atoms: C_2  and  C_3
REMARK    3  A    between atoms: C_2  and  N_4
REMARK    4  A    between atoms: N_7  and  C_8
REMARK    5  A    between atoms: C_11  and  C_14
REMARK    6  A    between atoms: C_14  and  N_15
REMARK    7  A    between atoms: N_15  and  C_16
REMARK    8  A    between atoms: C_17  and  C_22
REMARK                            x       y       z     vdW  Elec       q    Type
REMARK                         _______ _______ _______ _____ _____    ______ ____
ROOT
ATOM      1  C   UNL     1      -0.047  -1.296   4.609  0.00  0.00    +0.035 A 
ATOM      2  C   UNL     1      -1.416  -1.067   4.606  0.00  0.00    +0.023 A 
ATOM      3  C   UNL     1      -2.154  -1.282   5.754  0.00  0.00    +0.007 A 
ATOM      4  C   UNL     1      -1.529  -1.726   6.905  0.00  0.00    -0.030 A 
ATOM      5  C   UNL     1      -0.165  -1.954   6.912  0.00  0.00    +0.007 A 
ATOM      6  C   UNL     1       0.577  -1.747   5.766  0.00  0.00    +0.023 A 
ENDROOT
BRANCH   1  10
ATOM      7  N   UNL     1       2.411  -1.733   1.996  0.00  0.00    -0.297 N 
ATOM      8  C   UNL     1       1.747  -1.883   3.159  0.00  0.00    +0.304 C 
ATOM      9  O   UNL     1       2.089  -2.741   3.949  0.00  0.00    -0.253 OA
ATOM     10  N   UNL     1       0.703  -1.080   3.447  0.00  0.00    -0.269 N 
ATOM     11  H   UNL     1       2.138  -1.048   1.366  0.00  0.00    +0.151 HD
ATOM     12  H   UNL     1       0.471  -0.352   2.849  0.00  0.00    +0.156 HD
BRANCH   7  14
ATOM     13  C   UNL     1       3.033  -3.903   1.055  0.00  0.00    +0.027 C 
ATOM     14  C   UNL     1       3.546  -2.606   1.683  0.00  0.00    +0.068 C 
ATOM     15  C   UNL     1       4.478  -1.896   0.700  0.00  0.00    +0.027 C 
ENDBRANCH   7  14
ENDBRANCH   1  10
BRANCH   4  16
ATOM     16  C   UNL     1      -2.337  -1.960   8.156  0.00  0.00    +0.137 C 
BRANCH  16  17
ATOM     17  N   UNL     1      -2.816  -3.344   8.176  0.00  0.00    -0.332 N 
ATOM     18  H   UNL     1      -2.595  -3.944   7.447  0.00  0.00    +0.147 HD
BRANCH  17  19
ATOM     19  C   UNL     1      -3.584  -3.793   9.233  0.00  0.00    +0.105 A 
ATOM     20  C   UNL     1      -4.126  -5.064   9.437  0.00  0.00    +0.118 A 
ATOM     21  C   UNL     1      -4.859  -5.194  10.618  0.00  0.00    +0.157 A 
ATOM     22  N   UNL     1      -4.956  -4.142  11.382  0.00  0.00    -0.196 NA
ATOM     23  S   UNL     1      -4.090  -2.950  10.593  0.00  0.00    +0.029 S 
ATOM     24 CL   UNL     1      -5.613  -6.696  11.052  0.00  0.00    -0.060 Cl
BRANCH  20  25
ATOM     25  C   UNL     1      -3.945  -6.143   8.513  0.00  0.00    +0.105 C 
ATOM     26  N   UNL     1      -3.801  -6.999   7.780  0.00  0.00    -0.191 NA
ENDBRANCH  20  25
ENDBRANCH  17  19
ENDBRANCH  16  17
ENDBRANCH   4  16
TORSDOF 6
