REMARK  Name = ZINC39710718
REMARK  12 active torsions:
REMARK  status: ('A' for Active; 'I' for Inactive)
REMARK    1  A    between atoms: C_1  and  C_2
REMARK    2  A    between atoms: C_7  and  C_14
REMARK    3  A    between atoms: C_14  and  C_16
REMARK    4  A    between atoms: C_14  and  N_25
REMARK    5  A    between atoms: N_20  and  C_21
REMARK    6  A    between atoms: C_21  and  C_22
REMARK    7  A    between atoms: C_22  and  O_23
REMARK    8  A    between atoms: O_23  and  C_24
REMARK    9  A    between atoms: N_25  and  C_26
REMARK   10  A    between atoms: N_25  and  C_34
REMARK   11  A    between atoms: C_26  and  C_27
REMARK   12  A    between atoms: C_34  and  C_35
REMARK                            x       y       z     vdW  Elec       q    Type
REMARK                         _______ _______ _______ _____ _____    ______ ____
ROOT
ATOM      1  C   UNL     1      -1.541  -6.103   1.059  0.00  0.00    +0.019 C 
ENDROOT
BRANCH   1   8
ATOM      2  C   UNL     1       4.613  -4.051  -2.700  0.00  0.00    +0.044 C 
ATOM      3  C   UNL     1       3.619  -4.537  -1.677  0.00  0.00    -0.049 A 
ATOM      4  C   UNL     1       3.929  -5.674  -0.929  0.00  0.00    +0.004 A 
ATOM      5  C   UNL     1       3.074  -6.160   0.006  0.00  0.00    +0.010 A 
ATOM      6  C   UNL     1       1.802  -5.469   0.227  0.00  0.00    -0.007 A 
ATOM      7  C   UNL     1       0.913  -5.921   1.156  0.00  0.00    -0.006 C 
ATOM      8  C   UNL     1      -0.378  -5.143   1.318  0.00  0.00    +0.092 C 
ATOM      9  C   UNL     1      -0.575  -3.930   0.436  0.00  0.00    +0.223 C 
ATOM     10  O   UNL     1      -1.592  -3.269   0.524  0.00  0.00    -0.275 OA
ATOM     11  N   UNL     1       0.365  -3.591  -0.431  0.00  0.00    -0.285 N 
ATOM     12  C   UNL     1       1.501  -4.272  -0.577  0.00  0.00    +0.041 A 
ATOM     13  C   UNL     1       2.459  -3.849  -1.517  0.00  0.00    +0.027 A 
ATOM     14  H   UNL     1       0.220  -2.809  -0.988  0.00  0.00    +0.155 HD
ENDBRANCH   1   8
BRANCH   1  15
ATOM     15  C   UNL     1      -1.367  -6.749  -0.292  0.00  0.00    +0.139 A 
ATOM     16  N   UNL     1      -0.557  -7.735  -0.589  0.00  0.00    -0.115 NA
ATOM     17  N   UNL     1      -0.699  -8.003  -1.841  0.00  0.00    -0.023 NA
ATOM     18  N   UNL     1      -1.580  -7.214  -2.350  0.00  0.00    -0.044 NA
ATOM     19  N   UNL     1      -2.019  -6.429  -1.425  0.00  0.00    -0.229 N 
BRANCH  19  20
ATOM     20  C   UNL     1      -3.034  -5.384  -1.580  0.00  0.00    +0.175 C 
BRANCH  20  21
ATOM     21  C   UNL     1      -2.384  -4.123  -2.153  0.00  0.00    +0.183 C 
BRANCH  21  22
ATOM     22  O   UNL     1      -3.365  -3.091  -2.268  0.00  0.00    -0.381 OA
ATOM     23  C   UNL     1      -2.859  -1.863  -2.795  0.00  0.00    +0.194 C 
ENDBRANCH  21  22
ENDBRANCH  20  21
ENDBRANCH  19  20
ENDBRANCH   1  15
BRANCH   1  24
ATOM     24  N   UNL     1      -1.560  -7.141   2.099  0.00  0.00    +0.394 N 
ATOM     25  H   UNL     1      -0.668  -7.612   2.120  0.00  0.00    -0.080 HD
BRANCH  24  26
ATOM     26  C   UNL     1      -2.620  -8.113   1.801  0.00  0.00    -0.041 C 
BRANCH  26  27
ATOM     27  C   UNL     1      -3.945  -7.400   1.714  0.00  0.00    -0.064 A 
ATOM     28  C   UNL     1      -4.663  -7.133   2.865  0.00  0.00    +0.004 A 
ATOM     29  C   UNL     1      -5.878  -6.479   2.786  0.00  0.00    +0.038 A 
ATOM     30  C   UNL     1      -6.376  -6.091   1.553  0.00  0.00    +0.123 A 
ATOM     31  C   UNL     1      -5.656  -6.358   0.402  0.00  0.00    +0.038 A 
ATOM     32  C   UNL     1      -4.439  -7.008   0.483  0.00  0.00    +0.004 A 
ATOM     33  F   UNL     1      -7.564  -5.452   1.475  0.00  0.00    -0.205 F 
ENDBRANCH  26  27
ENDBRANCH  24  26
BRANCH  24  34
ATOM     34  C   UNL     1      -1.817  -6.520   3.405  0.00  0.00    -0.002 C 
BRANCH  34  35
ATOM     35  C   UNL     1      -1.694  -7.560   4.489  0.00  0.00    +0.089 A 
ATOM     36  C   UNL     1      -0.592  -7.808   5.219  0.00  0.00    +0.042 A 
ATOM     37  C   UNL     1      -0.919  -8.855   6.111  0.00  0.00    +0.041 A 
ATOM     38  C   UNL     1      -2.201  -9.184   5.872  0.00  0.00    +0.195 A 
ATOM     39  O   UNL     1      -2.667  -8.392   4.892  0.00  0.00    -0.470 OA
ENDBRANCH  34  35
ENDBRANCH  24  34
ENDBRANCH   1  24
TORSDOF 10
