REMARK  Name = ZINC01097617
REMARK  6 active torsions:
REMARK  status: ('A' for Active; 'I' for Inactive)
REMARK    1  A    between atoms: C_10  and  C_20
REMARK    2  A    between atoms: C_13  and  C_15
REMARK    3  A    between atoms: C_15  and  C_16
REMARK    4  A    between atoms: C_16  and  C_17
REMARK    5  A    between atoms: C_24  and  N_26
REMARK    6  A    between atoms: C_32  and  C_35
REMARK                            x       y       z     vdW  Elec       q    Type
REMARK                         _______ _______ _______ _____ _____    ______ ____
ROOT
ATOM      1  C   UNL     1      -5.694   2.466   4.218  0.00  0.00    +0.002 A 
ATOM      2  C   UNL     1      -6.731   3.283   3.804  0.00  0.00    +0.002 A 
ATOM      3  C   UNL     1      -6.518   4.251   2.838  0.00  0.00    +0.025 A 
ATOM      4  C   UNL     1      -5.254   4.399   2.290  0.00  0.00    +0.058 A 
ATOM      5  C   UNL     1      -4.207   3.606   2.735  0.00  0.00    +0.053 A 
ATOM      6  C   UNL     1      -4.426   2.623   3.684  0.00  0.00    +0.025 A 
ATOM      7  N   UNL     1      -2.940   3.895   2.244  0.00  0.00    -0.316 N 
ATOM      8  C   UNL     1      -2.558   3.764   0.949  0.00  0.00    +0.017 C 
ATOM      9  C   UNL     1      -3.269   4.199  -0.105  0.00  0.00    +0.037 C 
ATOM     10  C   UNL     1      -4.605   4.898  -0.045  0.00  0.00    +0.147 C 
ATOM     11  N   UNL     1      -5.001   5.328   1.280  0.00  0.00    -0.258 N 
ATOM     12  C   UNL     1      -5.125   6.644   1.542  0.00  0.00    +0.221 C 
ATOM     13  O   UNL     1      -4.907   7.459   0.670  0.00  0.00    -0.275 OA
ATOM     14  C   UNL     1      -2.778   4.014  -1.420  0.00  0.00    +0.163 C 
ATOM     15  O   UNL     1      -3.433   4.432  -2.354  0.00  0.00    -0.292 OA
ATOM     16  C   UNL     1      -1.480   3.319  -1.700  0.00  0.00    +0.088 C 
ATOM     17  C   UNL     1      -1.211   2.314  -0.573  0.00  0.00    +0.032 C 
ATOM     18  C   UNL     1      -1.214   3.084   0.747  0.00  0.00    +0.059 C 
ATOM     19  H   UNL     1      -2.157   4.262   2.925  0.00  0.00    +0.152 HD
ENDROOT
BRANCH  17  20
ATOM     20  C   UNL     1       0.131   1.661  -0.780  0.00  0.00    -0.043 A 
ATOM     21  C   UNL     1       1.277   2.433  -0.819  0.00  0.00    +0.005 A 
ATOM     22  C   UNL     1       2.507   1.835  -1.014  0.00  0.00    +0.020 A 
ATOM     23  C   UNL     1       2.592   0.463  -1.171  0.00  0.00    +0.041 A 
ATOM     24  C   UNL     1       1.445  -0.309  -1.132  0.00  0.00    +0.020 A 
ATOM     25  C   UNL     1       0.215   0.290  -0.937  0.00  0.00    +0.005 A 
ATOM     26 CL   UNL     1       4.137  -0.289  -1.418  0.00  0.00    -0.084 Cl
ENDBRANCH  17  20
BRANCH  10  27
ATOM     27  C   UNL     1      -5.659   3.962  -0.577  0.00  0.00    -0.020 A 
ATOM     28  C   UNL     1      -6.358   4.288  -1.724  0.00  0.00    +0.006 A 
ATOM     29  C   UNL     1      -7.324   3.428  -2.212  0.00  0.00    +0.003 A 
ATOM     30  C   UNL     1      -7.591   2.242  -1.553  0.00  0.00    +0.033 A 
ATOM     31  C   UNL     1      -6.891   1.916  -0.407  0.00  0.00    +0.127 A 
ATOM     32  C   UNL     1      -5.922   2.773   0.079  0.00  0.00    +0.038 A 
BRANCH  31  33
ATOM     33  N   UNL     1      -7.177   0.646   0.298  0.00  0.00    +0.056 N 
ATOM     34  O   UNL     1      -8.029  -0.111  -0.132  0.00  0.00    -0.126 OA
ATOM     35  O   UNL     1      -6.560   0.358   1.308  0.00  0.00    -0.126 OA
ENDBRANCH  31  33
ENDBRANCH  10  27
BRANCH  12  36
ATOM     36  C   UNL     1      -5.536   7.103   2.917  0.00  0.00    +0.107 C 
BRANCH  36  37
ATOM     37  C   UNL     1      -5.602   8.631   2.946  0.00  0.00    +0.134 C 
BRANCH  37  38
ATOM     38  C   UNL     1      -6.013   9.090   4.321  0.00  0.00    +0.356 C 
ATOM     39  O   UNL     1      -6.231   8.278   5.189  0.00  0.00    -0.246 OA
ATOM     40  O   UNL     1      -6.137  10.401   4.582  0.00  0.00    -0.246 OA
ENDBRANCH  37  38
ENDBRANCH  36  37
ENDBRANCH  12  36
TORSDOF 6
