REMARK  Name = ZINC09477925
REMARK  5 active torsions:
REMARK  status: ('A' for Active; 'I' for Inactive)
REMARK    1  A    between atoms: C_1  and  C_2
REMARK    2  A    between atoms: C_9  and  N_14
REMARK    3  A    between atoms: C_15  and  C_17
REMARK    4  A    between atoms: C_17  and  N_18
REMARK    5  A    between atoms: C_25  and  C_28
REMARK                            x       y       z     vdW  Elec       q    Type
REMARK                         _______ _______ _______ _____ _____    ______ ____
ROOT
ATOM      1  N   UNL     1      -1.202  -0.721   0.010  0.00  0.00    -0.284 N 
ATOM      2  C   UNL     1      -1.187  -2.064  -0.099  0.00  0.00    +0.237 C 
ATOM      3  O   UNL     1      -0.131  -2.660  -0.113  0.00  0.00    -0.274 OA
ATOM      4  H   UNL     1      -2.046  -0.250   0.098  0.00  0.00    +0.155 HD
ENDROOT
BRANCH   1  12
ATOM      5  C   UNL     1       5.916   2.268  -0.521  0.00  0.00    +0.062 C 
ATOM      6  C   UNL     1       4.748   1.339  -0.186  0.00  0.00    +0.256 C 
ATOM      7  C   UNL     1       4.571   0.336  -1.297  0.00  0.00    +0.258 C 
ATOM      8  O   UNL     1       5.522  -0.007  -1.966  0.00  0.00    -0.271 OA
ATOM      9  N   UNL     1       3.347  -0.181  -1.544  0.00  0.00    -0.279 N 
ATOM     10  C   UNL     1       2.257   0.257  -0.778  0.00  0.00    +0.077 A 
ATOM     11  C   UNL     1       1.070  -0.455  -0.768  0.00  0.00    +0.050 A 
ATOM     12  C   UNL     1       0.002  -0.004  -0.004  0.00  0.00    +0.035 A 
ATOM     13  C   UNL     1       0.126   1.158   0.747  0.00  0.00    +0.027 A 
ATOM     14  C   UNL     1       1.312   1.869   0.736  0.00  0.00    +0.049 A 
ATOM     15  C   UNL     1       2.379   1.423  -0.023  0.00  0.00    +0.143 A 
ATOM     16  O   UNL     1       3.553   2.111  -0.041  0.00  0.00    -0.478 OA
ATOM     17  H   UNL     1       3.225  -0.846  -2.240  0.00  0.00    +0.155 HD
ENDBRANCH   1  12
BRANCH   2  18
ATOM     18  C   UNL     1      -2.484  -2.825  -0.204  0.00  0.00    +0.222 C 
BRANCH  18  19
ATOM     19  N   UNL     1      -2.201  -4.259  -0.312  0.00  0.00    -0.290 N 
ATOM     20  C   UNL     1      -2.111  -5.006   0.818  0.00  0.00    +0.203 A 
ATOM     21  N   UNL     1      -1.861  -6.287   0.763  0.00  0.00    -0.230 NA
ATOM     22  C   UNL     1      -1.685  -6.901  -0.405  0.00  0.00    +0.116 A 
ATOM     23  C   UNL     1      -1.759  -6.210  -1.625  0.00  0.00    +0.080 A 
ATOM     24  C   UNL     1      -2.040  -4.810  -1.529  0.00  0.00    +0.263 A 
ATOM     25  O   UNL     1      -2.128  -4.126  -2.534  0.00  0.00    -0.267 OA
ATOM     26  C   UNL     1      -1.543  -7.028  -2.813  0.00  0.00    +0.010 A 
ATOM     27  C   UNL     1      -1.295  -8.352  -2.655  0.00  0.00    +0.057 A 
ATOM     28  S   UNL     1      -1.338  -8.572  -0.887  0.00  0.00    -0.076 S 
BRANCH  26  29
ATOM     29  C   UNL     1      -1.593  -6.427  -4.162  0.00  0.00    +0.021 A 
ATOM     30  C   UNL     1      -0.689  -6.527  -5.186  0.00  0.00    +0.016 A 
ATOM     31  C   UNL     1      -0.955  -5.873  -6.371  0.00  0.00    +0.008 A 
ATOM     32  C   UNL     1      -2.094  -5.144  -6.482  0.00  0.00    +0.046 A 
ATOM     33  S   UNL     1      -2.844  -5.373  -4.878  0.00  0.00    -0.097 S 
ENDBRANCH  26  29
ENDBRANCH  18  19
ENDBRANCH   2  18
TORSDOF 4
