REMARK  Name = ZINC05444601
REMARK  4 active torsions:
REMARK  status: ('A' for Active; 'I' for Inactive)
REMARK    1  A    between atoms: C_1  and  N_2
REMARK    2  A    between atoms: C_6  and  C_7
REMARK    3  A    between atoms: N_8  and  N_9
REMARK    4  A    between atoms: N_9  and  C_10
REMARK                            x       y       z     vdW  Elec       q    Type
REMARK                         _______ _______ _______ _____ _____    ______ ____
ROOT
ATOM      1  N   UNL     1       1.188   2.014   0.002  0.00  0.00    -0.235 N 
ATOM      2  H   UNL     1       2.035   1.540  -0.009  0.00  0.00    +0.174 HD
ENDROOT
BRANCH   1   3
ATOM      3  C   UNL     1       1.169   3.410   0.009  0.00  0.00    +0.085 A 
ATOM      4  C   UNL     1      -0.004   4.093  -0.293  0.00  0.00    +0.066 A 
ATOM      5  C   UNL     1      -0.020   5.474  -0.280  0.00  0.00    +0.042 A 
ATOM      6  C   UNL     1       1.132   6.179   0.024  0.00  0.00    +0.044 A 
ATOM      7  C   UNL     1       2.303   5.503   0.320  0.00  0.00    +0.042 A 
ATOM      8  C   UNL     1       2.325   4.121   0.313  0.00  0.00    +0.066 A 
ATOM      9 CL   UNL     1       3.794   3.274   0.686  0.00  0.00    -0.081 Cl
ATOM     10 CL   UNL     1       1.109   7.915   0.032  0.00  0.00    -0.083 Cl
ATOM     11 CL   UNL     1      -1.448   3.210  -0.680  0.00  0.00    -0.081 Cl
ENDBRANCH   1   3
BRANCH   1  13
ATOM     12  C   UNL     1       0.002  -0.004   0.002  0.00  0.00    +0.156 C 
ATOM     13  N   UNL     1      -0.016   1.297   0.009  0.00  0.00    -0.188 NA
BRANCH  12  19
ATOM     14  C   UNL     1      -0.282  -3.085  -0.024  0.00  0.00    +0.149 C 
ATOM     15  N   UNL     1      -1.386  -2.123  -0.002  0.00  0.00    -0.349 N 
ATOM     16  C   UNL     1      -2.714  -2.435   0.014  0.00  0.00    +0.086 A 
ATOM     17  C   UNL     1      -3.426  -1.286   0.027  0.00  0.00    +0.020 A 
ATOM     18  C   UNL     1      -2.516  -0.218   0.024  0.00  0.00    +0.029 A 
ATOM     19  C   UNL     1      -1.259  -0.755   0.010  0.00  0.00    +0.061 A 
ENDBRANCH  12  19
ENDBRANCH   1  13
TORSDOF 3
