REMARK  Name = ZINC12498292
REMARK  9 active torsions:
REMARK  status: ('A' for Active; 'I' for Inactive)
REMARK    1  A    between atoms: C_1  and  C_2
REMARK    2  A    between atoms: C_5  and  O_9
REMARK    3  A    between atoms: O_9  and  C_10
REMARK    4  A    between atoms: C_10  and  C_11
REMARK    5  A    between atoms: N_13  and  C_14
REMARK    6  A    between atoms: C_14  and  N_16
REMARK    7  A    between atoms: N_16  and  C_17
REMARK    8  A    between atoms: C_20  and  N_24
REMARK    9  A    between atoms: C_22  and  O_23
REMARK                            x       y       z     vdW  Elec       q    Type
REMARK                         _______ _______ _______ _____ _____    ______ ____
ROOT
ATOM      1  C   UNL     1       1.930   5.670  -0.232  0.00  0.00    +0.141 C 
ATOM      2  S   UNL     1       0.364   6.284  -0.546  0.00  0.00    -0.018 S 
ENDROOT
BRANCH   1   5
ATOM      3  C   UNL     1       1.123   3.491  -0.465  0.00  0.00    +0.256 C 
ATOM      4  O   UNL     1       0.014   3.926  -0.688  0.00  0.00    -0.272 OA
ATOM      5  N   UNL     1       2.144   4.339  -0.224  0.00  0.00    -0.265 N 
ATOM      6  H   UNL     1       3.031   3.991  -0.046  0.00  0.00    +0.157 HD
BRANCH   3   7
ATOM      7  C   UNL     1       1.362   2.003  -0.457  0.00  0.00    +0.325 C 
BRANCH   7   8
ATOM      8  O   UNL     1       0.136   1.323  -0.736  0.00  0.00    -0.482 OA
BRANCH   8  13
ATOM      9  C   UNL     1       0.307  -4.306  -0.858  0.00  0.00    +0.044 C 
ATOM     10  C   UNL     1       0.261  -2.800  -0.826  0.00  0.00    -0.049 A 
ATOM     11  C   UNL     1       1.412  -2.080  -0.562  0.00  0.00    +0.007 A 
ATOM     12  C   UNL     1       1.373  -0.699  -0.531  0.00  0.00    +0.047 A 
ATOM     13  C   UNL     1       0.178  -0.035  -0.766  0.00  0.00    +0.135 A 
ATOM     14  C   UNL     1      -0.977  -0.760  -1.026  0.00  0.00    +0.060 A 
ATOM     15  C   UNL     1      -0.931  -2.141  -1.059  0.00  0.00    +0.022 A 
ATOM     16 BR   UNL     1      -2.610   0.141  -1.339  0.00  0.00    -0.047 Br
ENDBRANCH   8  13
ENDBRANCH   7   8
ENDBRANCH   3   7
ENDBRANCH   1   5
BRANCH   1  17
ATOM     17  N   UNL     1       2.951   6.517   0.009  0.00  0.00    -0.294 N 
ATOM     18  H   UNL     1       3.824   6.169   0.249  0.00  0.00    +0.154 HD
BRANCH  17  19
ATOM     19  C   UNL     1       2.750   7.900  -0.087  0.00  0.00    +0.075 A 
ATOM     20  C   UNL     1       1.648   8.487   0.517  0.00  0.00    +0.029 A 
ATOM     21  C   UNL     1       1.452   9.851   0.420  0.00  0.00    +0.035 A 
ATOM     22  C   UNL     1       2.353  10.635  -0.277  0.00  0.00    +0.130 A 
ATOM     23  C   UNL     1       3.454  10.057  -0.882  0.00  0.00    +0.080 A 
ATOM     24  C   UNL     1       3.660   8.691  -0.786  0.00  0.00    +0.140 A 
BRANCH  22  25
ATOM     25  N   UNL     1       2.139  12.096  -0.376  0.00  0.00    +0.057 N 
ATOM     26  O   UNL     1       1.169  12.607   0.156  0.00  0.00    -0.126 OA
ATOM     27  O   UNL     1       2.931  12.788  -0.990  0.00  0.00    -0.126 OA
ENDBRANCH  22  25
BRANCH  24  28
ATOM     28  O   UNL     1       4.746   8.122  -1.375  0.00  0.00    -0.505 OA
ATOM     29  H   UNL     1       4.595   7.838  -2.287  0.00  0.00    +0.292 HD
ENDBRANCH  24  28
ENDBRANCH  17  19
ENDBRANCH   1  17
TORSDOF 8
