REMARK  Name = ZINC38873950
REMARK  7 active torsions:
REMARK  status: ('A' for Active; 'I' for Inactive)
REMARK    1  A    between atoms: C_2  and  C_3
REMARK    2  A    between atoms: C_3  and  N_4
REMARK    3  A    between atoms: C_8  and  S_22
REMARK    4  A    between atoms: N_13  and  C_14
REMARK    5  A    between atoms: C_14  and  C_16
REMARK    6  A    between atoms: C_16  and  C_17
REMARK    7  A    between atoms: S_22  and  N_25
REMARK                            x       y       z     vdW  Elec       q    Type
REMARK                         _______ _______ _______ _____ _____    ______ ____
ROOT
ATOM      1  N   UNL     1       1.357   1.975  -0.000  0.00  0.00    -0.310 N 
ATOM      2  C   UNL     1       2.020   2.203   1.190  0.00  0.00    +0.059 A 
ATOM      3  C   UNL     1       1.568   2.019   2.505  0.00  0.00    +0.029 A 
ATOM      4  C   UNL     1       2.386   2.307   3.573  0.00  0.00    +0.030 A 
ATOM      5  C   UNL     1       3.673   2.783   3.383  0.00  0.00    +0.106 A 
ATOM      6  C   UNL     1       4.142   2.973   2.095  0.00  0.00    +0.045 A 
ATOM      7  C   UNL     1       3.326   2.687   1.027  0.00  0.00    +0.041 A 
ATOM      8  S   UNL     1       3.505   2.776  -0.735  0.00  0.00    -0.052 S 
ATOM      9  C   UNL     1       1.984   2.216  -1.179  0.00  0.00    +0.167 A 
ATOM     10  N   UNL     1       1.502   2.049  -2.409  0.00  0.00    -0.156 NA
ENDROOT
BRANCH   5  11
ATOM     11  S   UNL     1       4.701   3.144   4.768  0.00  0.00    +0.056 S 
ATOM     12  O   UNL     1       5.662   4.091   4.324  0.00  0.00    -0.153 OA
ATOM     13  O   UNL     1       3.832   3.397   5.864  0.00  0.00    -0.153 OA
BRANCH  11  14
ATOM     14  N   UNL     1       5.534   1.760   5.133  0.00  0.00    -0.204 NA
ATOM     15  H   UNL     1       6.417   1.816   5.529  0.00  0.00    +0.144 HD
ATOM     16  H   UNL     1       5.138   0.893   4.951  0.00  0.00    +0.144 HD
ENDBRANCH  11  14
ENDBRANCH   5  11
BRANCH  10  17
ATOM     17  C   UNL     1       2.258   2.337  -3.463  0.00  0.00    +0.239 C 
ATOM     18  O   UNL     1       3.390   2.753  -3.305  0.00  0.00    -0.274 OA
BRANCH  17  19
ATOM     19  C   UNL     1       1.714   2.148  -4.856  0.00  0.00    +0.101 C 
BRANCH  19  20
ATOM     20  C   UNL     1       2.778   2.549  -5.879  0.00  0.00    -0.002 C 
ATOM     21  C   UNL     1       3.026   4.070  -5.815  0.00  0.00    +0.004 C 
ATOM     22  C   UNL     1       3.257   4.480  -7.291  0.00  0.00    +0.000 C 
ATOM     23  C   UNL     1       2.245   3.590  -8.055  0.00  0.00    +0.000 C 
ATOM     24  C   UNL     1       2.282   2.244  -7.303  0.00  0.00    +0.004 C 
ENDBRANCH  19  20
ENDBRANCH  17  19
ENDBRANCH  10  17
BRANCH   1  25
ATOM     25  C   UNL     1      -0.018   1.468   0.010  0.00  0.00    +0.212 C 
BRANCH  25  27
ATOM     26  C   UNL     1       0.018  -1.178  -0.004  0.00  0.00    +0.005 C 
ATOM     27  C   UNL     1       0.002  -0.004   0.002  0.00  0.00    -0.084 C 
ENDBRANCH  25  27
ENDBRANCH   1  25
TORSDOF 7
