REMARK  Name = ZINC39696293
REMARK  9 active torsions:
REMARK  status: ('A' for Active; 'I' for Inactive)
REMARK    1  A    between atoms: C_1  and  C_2
REMARK    2  A    between atoms: C_2  and  C_3
REMARK    3  A    between atoms: C_6  and  C_9
REMARK    4  A    between atoms: C_9  and  C_11
REMARK    5  A    between atoms: C_9  and  N_12
REMARK    6  A    between atoms: C_13  and  C_15
REMARK    7  A    between atoms: C_26  and  C_28
REMARK    8  A    between atoms: C_35  and  C_39
REMARK    9  A    between atoms: N_37  and  C_38
REMARK                            x       y       z     vdW  Elec       q    Type
REMARK                         _______ _______ _______ _____ _____    ______ ____
ROOT
ATOM      1  C   UNL     1      -8.324  -0.554  -1.980  0.00  0.00    +0.100 C 
ATOM      2  C   UNL     1      -8.098  -1.246  -3.343  0.00  0.00    +0.121 C 
ATOM      3  N   UNL     1      -9.217  -2.209  -3.464  0.00  0.00    -0.296 N 
ATOM      4  C   UNL     1     -10.388  -1.486  -2.912  0.00  0.00    +0.115 C 
ATOM      5  C   UNL     1      -9.828  -0.710  -1.702  0.00  0.00    -0.004 C 
ATOM      6  C   UNL     1     -10.492   0.659  -1.600  0.00  0.00    -0.010 C 
ATOM      7  C   UNL     1     -11.975   0.479  -1.266  0.00  0.00    -0.082 C 
ATOM      8  N   UNL     1     -12.108  -0.247   0.003  0.00  0.00    +0.379 N 
ATOM      9  C   UNL     1     -11.550  -1.598  -0.133  0.00  0.00    -0.082 C 
ATOM     10  C   UNL     1     -10.049  -1.506  -0.419  0.00  0.00    -0.010 C 
ATOM     11  C   UNL     1      -9.180  -3.460  -3.964  0.00  0.00    +0.250 C 
ATOM     12  O   UNL     1      -8.118  -3.952  -4.293  0.00  0.00    -0.270 OA
ATOM     13  H   UNL     1     -11.611   0.250   0.727  0.00  0.00    -0.086 HD
ATOM     14  H   UNL     1     -13.084  -0.311   0.252  0.00  0.00    -0.086 HD
ENDROOT
BRANCH  11  15
ATOM     15  C   UNL     1     -10.429  -4.233  -4.112  0.00  0.00    +0.074 A 
ATOM     16  C   UNL     1     -11.625  -3.589  -4.459  0.00  0.00    +0.127 A 
ATOM     17  N   UNL     1     -12.746  -4.258  -4.596  0.00  0.00    -0.235 NA
ATOM     18  C   UNL     1     -12.805  -5.574  -4.414  0.00  0.00    +0.160 A 
ATOM     19  C   UNL     1     -11.646  -6.295  -4.065  0.00  0.00    +0.060 A 
ATOM     20  C   UNL     1     -10.432  -5.616  -3.915  0.00  0.00    +0.067 A 
ATOM     21 CL   UNL     1      -8.978  -6.464  -3.492  0.00  0.00    -0.082 Cl
ATOM     22  C   UNL     1     -12.049  -7.693  -3.943  0.00  0.00    +0.071 A 
ATOM     23  N   UNL     1     -13.324  -7.758  -4.201  0.00  0.00    -0.174 NA
ATOM     24  N   UNL     1     -13.821  -6.484  -4.493  0.00  0.00    -0.249 N 
ATOM     25  C   UNL     1     -15.213  -6.174  -4.830  0.00  0.00    +0.174 C 
ATOM     26  C   UNL     1     -11.153  -8.850  -3.586  0.00  0.00    +0.068 C 
ENDBRANCH  11  15
BRANCH   1  28
ATOM     27  N   UNL     1      -7.062  -0.530   0.147  0.00  0.00    -0.308 N 
ATOM     28  C   UNL     1      -7.518  -1.237  -0.905  0.00  0.00    +0.219 C 
ATOM     29  O   UNL     1      -7.281  -2.424  -0.987  0.00  0.00    -0.275 OA
ATOM     30  H   UNL     1      -7.252   0.419   0.213  0.00  0.00    +0.149 HD
BRANCH  27  31
ATOM     31  C   UNL     1      -6.278  -1.194   1.192  0.00  0.00    +0.100 C 
ATOM     32  C   UNL     1      -4.808  -1.243   0.774  0.00  0.00    +0.033 C 
BRANCH  31  36
ATOM     33  C   UNL     1      -6.645   0.983   4.849  0.00  0.00    -0.048 A 
ATOM     34  C   UNL     1      -6.652  -0.399   4.864  0.00  0.00    +0.004 A 
ATOM     35  C   UNL     1      -6.534  -1.104   3.681  0.00  0.00    +0.006 A 
ATOM     36  C   UNL     1      -6.409  -0.426   2.482  0.00  0.00    -0.027 A 
ATOM     37  C   UNL     1      -6.403   0.956   2.467  0.00  0.00    +0.006 A 
ATOM     38  C   UNL     1      -6.526   1.661   3.651  0.00  0.00    +0.004 A 
BRANCH  33  40
ATOM     39  C   UNL     1      -8.254   2.010   6.432  0.00  0.00    +0.009 C 
ATOM     40  C   UNL     1      -6.775   1.751   6.139  0.00  0.00    +0.032 C 
ENDBRANCH  33  40
ENDBRANCH  31  36
ENDBRANCH  27  31
ENDBRANCH   1  28
TORSDOF 5
