REMARK  Name = ZINC66704241
REMARK  7 active torsions:
REMARK  status: ('A' for Active; 'I' for Inactive)
REMARK    1  A    between atoms: C_1  and  C_2
REMARK    2  A    between atoms: C_2  and  C_3
REMARK    3  A    between atoms: C_3  and  N_4
REMARK    4  A    between atoms: N_4  and  C_5
REMARK    5  A    between atoms: C_5  and  C_6
REMARK    6  A    between atoms: C_11  and  O_12
REMARK    7  A    between atoms: N_15  and  C_16
REMARK                            x       y       z     vdW  Elec       q    Type
REMARK                         _______ _______ _______ _____ _____    ______ ____
ROOT
ATOM      1  N   UNL     1       0.762  -1.976   1.234  0.00  0.00    -0.281 N 
ATOM      2  C   UNL     1      -0.234  -2.667   1.823  0.00  0.00    +0.303 C 
ATOM      3  O   UNL     1      -0.217  -3.882   1.816  0.00  0.00    -0.253 OA
ATOM      4  N   UNL     1      -1.248  -2.010   2.420  0.00  0.00    -0.292 N 
ATOM      5  H   UNL     1      -1.261  -1.040   2.425  0.00  0.00    +0.151 HD
ENDROOT
BRANCH   4   6
ATOM      6  C   UNL     1      -2.331  -2.760   3.061  0.00  0.00    +0.105 C 
ATOM      7  C   UNL     1      -3.608  -1.897   3.138  0.00  0.00    +0.032 C 
ATOM      8  C   UNL     1      -3.481  -1.241   4.530  0.00  0.00    +0.037 C 
ATOM      9  C   UNL     1      -2.636  -2.199   5.343  0.00  0.00    -0.042 A 
ATOM     10  C   UNL     1      -1.974  -3.074   4.498  0.00  0.00    -0.021 A 
ATOM     11  C   UNL     1      -1.138  -4.044   5.023  0.00  0.00    +0.044 A 
ATOM     12  C   UNL     1      -0.961  -4.144   6.391  0.00  0.00    +0.124 A 
ATOM     13  C   UNL     1      -1.622  -3.270   7.238  0.00  0.00    +0.038 A 
ATOM     14  C   UNL     1      -2.459  -2.297   6.713  0.00  0.00    +0.007 A 
ATOM     15  F   UNL     1      -0.145  -5.093   6.901  0.00  0.00    -0.205 F 
ENDBRANCH   4   6
BRANCH   1  16
ATOM     16  C   UNL     1       0.742  -0.511   1.242  0.00  0.00    +0.109 C 
BRANCH  16  18
ATOM     17  C   UNL     1      -0.019   1.526   0.010  0.00  0.00    +0.005 C 
ATOM     18  C   UNL     1       0.002  -0.004   0.002  0.00  0.00    +0.016 C 
ENDBRANCH  16  18
ENDBRANCH   1  16
BRANCH   1  19
ATOM     19  C   UNL     1       1.864  -2.690   0.585  0.00  0.00    +0.148 C 
BRANCH  19  20
ATOM     20  C   UNL     1       2.965  -2.932   1.586  0.00  0.00    +0.011 A 
ATOM     21  C   UNL     1       4.072  -2.106   1.609  0.00  0.00    +0.009 A 
ATOM     22  C   UNL     1       5.082  -2.328   2.527  0.00  0.00    +0.001 A 
ATOM     23  C   UNL     1       4.986  -3.375   3.424  0.00  0.00    +0.004 A 
ATOM     24  C   UNL     1       3.881  -4.203   3.406  0.00  0.00    +0.046 A 
ATOM     25  C   UNL     1       2.863  -3.980   2.489  0.00  0.00    +0.122 A 
BRANCH  25  26
ATOM     26  O   UNL     1       1.772  -4.789   2.472  0.00  0.00    -0.506 OA
ATOM     27  H   UNL     1       1.861  -5.558   1.893  0.00  0.00    +0.292 HD
ENDBRANCH  25  26
ENDBRANCH  19  20
ENDBRANCH   1  19
TORSDOF 6
