REMARK  Name = ZINC08986354
REMARK  6 active torsions:
REMARK  status: ('A' for Active; 'I' for Inactive)
REMARK    1  A    between atoms: C_1  and  C_2
REMARK    2  A    between atoms: C_7  and  N_12
REMARK    3  A    between atoms: C_9  and  C_11
REMARK    4  A    between atoms: C_13  and  N_23
REMARK    5  A    between atoms: N_23  and  C_24
REMARK    6  A    between atoms: C_27  and  N_30
REMARK                            x       y       z     vdW  Elec       q    Type
REMARK                         _______ _______ _______ _____ _____    ______ ____
ROOT
ATOM      1  N   UNL     1       1.238   1.578   0.251  0.00  0.00    -0.272 N 
ATOM      2  C   UNL     1       2.235   0.525   0.007  0.00  0.00    +0.189 C 
ATOM      3  C   UNL     1       1.451  -0.751  -0.140  0.00  0.00    -0.024 C 
ATOM      4  C   UNL     1       0.161  -0.446   0.005  0.00  0.00    +0.017 C 
ATOM      5  C   UNL     1       0.024   0.992   0.248  0.00  0.00    +0.245 C 
ATOM      6  O   UNL     1      -1.031   1.573   0.416  0.00  0.00    -0.270 OA
ATOM      7  C   UNL     1      -0.957  -1.460  -0.076  0.00  0.00    +0.040 C 
ATOM      8  C   UNL     1      -0.417  -2.727  -0.749  0.00  0.00    +0.005 C 
ATOM      9  C   UNL     1       0.887  -3.151  -0.067  0.00  0.00    +0.005 C 
ATOM     10  C   UNL     1       1.986  -2.135  -0.401  0.00  0.00    +0.035 C 
ENDROOT
BRANCH   1  16
ATOM     11  C   UNL     1       0.394   6.127  -1.491  0.00  0.00    +0.008 C 
ATOM     12  C   UNL     1       1.097   5.308  -0.407  0.00  0.00    -0.009 C 
ATOM     13  C   UNL     1       0.579   5.731   0.969  0.00  0.00    +0.003 C 
ATOM     14  C   UNL     1       1.282   4.912   2.053  0.00  0.00    +0.002 C 
ATOM     15  C   UNL     1       0.994   3.425   1.835  0.00  0.00    +0.023 C 
ATOM     16  C   UNL     1       1.513   3.002   0.460  0.00  0.00    +0.082 C 
ATOM     17  C   UNL     1       0.810   3.821  -0.625  0.00  0.00    +0.009 C 
ATOM     18  C   UNL     1       1.328   3.397  -2.000  0.00  0.00    +0.009 C 
ENDBRANCH   1  16
BRANCH   2  19
ATOM     19  N   UNL     1       2.977   0.807  -1.224  0.00  0.00    -0.322 N 
ATOM     20  H   UNL     1       2.547   0.695  -2.086  0.00  0.00    +0.148 HD
BRANCH  19  21
ATOM     21  C   UNL     1       4.304   1.238  -1.156  0.00  0.00    +0.029 A 
ATOM     22  C   UNL     1       5.059   1.353  -2.316  0.00  0.00    +0.025 A 
ATOM     23  C   UNL     1       6.370   1.784  -2.246  0.00  0.00    +0.034 A 
ATOM     24  C   UNL     1       6.933   2.090  -1.021  0.00  0.00    +0.126 A 
ATOM     25  C   UNL     1       6.186   1.971   0.137  0.00  0.00    +0.034 A 
ATOM     26  C   UNL     1       4.874   1.546   0.073  0.00  0.00    +0.025 A 
BRANCH  24  27
ATOM     27  N   UNL     1       8.340   2.545  -0.948  0.00  0.00    +0.056 N 
ATOM     28  O   UNL     1       8.838   2.815   0.130  0.00  0.00    -0.126 OA
ATOM     29  O   UNL     1       8.999   2.650  -1.967  0.00  0.00    -0.126 OA
ENDBRANCH  24  27
ENDBRANCH  19  21
ENDBRANCH   2  19
TORSDOF 4
