REMARK  Name = ZINC20557286
REMARK  7 active torsions:
REMARK  status: ('A' for Active; 'I' for Inactive)
REMARK    1  A    between atoms: C_4  and  O_16
REMARK    2  A    between atoms: C_5  and  N_7
REMARK    3  A    between atoms: N_7  and  S_8
REMARK    4  A    between atoms: S_8  and  C_11
REMARK    5  A    between atoms: C_11  and  C_12
REMARK    6  A    between atoms: C_12  and  C_13
REMARK    7  A    between atoms: O_16  and  C_17
REMARK                            x       y       z     vdW  Elec       q    Type
REMARK                         _______ _______ _______ _____ _____    ______ ____
ROOT
ATOM      1  C   UNL     1       1.232   1.064   4.540  0.00  0.00    +0.002 A 
ATOM      2  C   UNL     1       1.794   0.787   3.308  0.00  0.00    +0.004 A 
ATOM      3  C   UNL     1       1.129   1.138   2.147  0.00  0.00    +0.048 A 
ATOM      4  C   UNL     1      -0.097   1.777   2.216  0.00  0.00    +0.154 A 
ATOM      5  C   UNL     1      -0.664   2.056   3.457  0.00  0.00    +0.116 A 
ATOM      6  C   UNL     1       0.005   1.697   4.618  0.00  0.00    +0.030 A 
ENDROOT
BRANCH   5   7
ATOM      7  N   UNL     1      -1.907   2.696   3.534  0.00  0.00    -0.099 NA
BRANCH   7   8
ATOM      8  S   UNL     1      -2.209   3.775   4.753  0.00  0.00    +0.063 S 
ATOM      9  O   UNL     1      -3.503   4.288   4.471  0.00  0.00    -0.154 OA
ATOM     10  O   UNL     1      -1.962   3.049   5.949  0.00  0.00    -0.154 OA
BRANCH   8  11
ATOM     11  C   UNL     1      -0.962   5.076   4.544  0.00  0.00    +0.202 C 
BRANCH  11  12
ATOM     12  C   UNL     1      -1.147   6.139   5.628  0.00  0.00    +0.149 C 
BRANCH  12  13
ATOM     13  C   UNL     1      -0.112   7.220   5.455  0.00  0.00    +0.358 C 
ATOM     14  O   UNL     1       0.692   7.148   4.556  0.00  0.00    -0.246 OA
ATOM     15  O   UNL     1      -0.082   8.264   6.299  0.00  0.00    -0.246 OA
ENDBRANCH  12  13
ENDBRANCH  11  12
ENDBRANCH   8  11
ENDBRANCH   7   8
ENDBRANCH   5   7
BRANCH   4  16
ATOM     16  O   UNL     1      -0.749   2.127   1.075  0.00  0.00    -0.404 OA
BRANCH  16  17
ATOM     17  C   UNL     1      -0.108   1.809  -0.162  0.00  0.00    +0.575 C 
ATOM     18  F   UNL     1       0.083   0.426  -0.247  0.00  0.00    -0.133 F 
ATOM     19  F   UNL     1       1.131   2.455  -0.224  0.00  0.00    -0.133 F 
ATOM     20  F   UNL     1      -0.910   2.235  -1.226  0.00  0.00    -0.133 F 
ENDBRANCH  16  17
ENDBRANCH   4  16
TORSDOF 7
