REMARK  Name = ZINC44974097
REMARK  4 active torsions:
REMARK  status: ('A' for Active; 'I' for Inactive)
REMARK    1  A    between atoms: C_4  and  C_7
REMARK    2  A    between atoms: C_12  and  C_13
REMARK    3  A    between atoms: C_13  and  N_14
REMARK    4  A    between atoms: C_27  and  C_29
REMARK                            x       y       z     vdW  Elec       q    Type
REMARK                         _______ _______ _______ _____ _____    ______ ____
ROOT
ATOM      1  N   UNL     1       2.139  -3.285   1.360  0.00  0.00    -0.286 NA
ATOM      2  C   UNL     1       1.389  -2.750   0.215  0.00  0.00    +0.090 C 
ATOM      3  C   UNL     1       0.799  -3.912  -0.597  0.00  0.00    +0.053 C 
ATOM      4  C   UNL     1       0.105  -4.845   0.362  0.00  0.00    -0.016 A 
ATOM      5  C   UNL     1      -0.851  -5.896   0.089  0.00  0.00    +0.003 A 
ATOM      6  C   UNL     1      -1.423  -6.377  -1.093  0.00  0.00    +0.010 A 
ATOM      7  C   UNL     1      -2.316  -7.412  -0.974  0.00  0.00    +0.001 A 
ATOM      8  C   UNL     1      -2.644  -7.964   0.254  0.00  0.00    +0.002 A 
ATOM      9  C   UNL     1      -2.094  -7.508   1.439  0.00  0.00    +0.026 A 
ATOM     10  C   UNL     1      -1.183  -6.457   1.350  0.00  0.00    +0.047 A 
ATOM     11  N   UNL     1      -0.470  -5.781   2.298  0.00  0.00    -0.356 N 
ATOM     12  H   UNL     1      -0.503  -5.956   3.251  0.00  0.00    +0.166 HD
ATOM     13  C   UNL     1       0.298  -4.819   1.701  0.00  0.00    +0.042 A 
ATOM     14  C   UNL     1       1.237  -3.848   2.377  0.00  0.00    +0.138 C 
ENDROOT
BRANCH  14  15
ATOM     15  C   UNL     1       2.044  -4.572   3.425  0.00  0.00    +0.022 A 
ATOM     16  C   UNL     1       3.335  -4.980   3.142  0.00  0.00    +0.029 A 
ATOM     17  C   UNL     1       4.079  -5.643   4.101  0.00  0.00    +0.045 A 
ATOM     18  C   UNL     1       3.534  -5.901   5.347  0.00  0.00    +0.069 A 
ATOM     19  C   UNL     1       2.242  -5.495   5.635  0.00  0.00    +0.168 A 
ATOM     20  C   UNL     1       1.495  -4.822   4.671  0.00  0.00    +0.171 A 
ATOM     21  O   UNL     1       0.270  -4.527   5.196  0.00  0.00    -0.452 OA
ATOM     22  C   UNL     1       0.130  -5.378   6.349  0.00  0.00    +0.466 C 
ATOM     23  O   UNL     1       1.483  -5.624   6.763  0.00  0.00    -0.453 OA
ATOM     24 CL   UNL     1       5.699  -6.153   3.741  0.00  0.00    -0.083 Cl
ENDBRANCH  14  15
BRANCH   1  25
ATOM     25  C   UNL     1       3.013  -2.258   1.942  0.00  0.00    +0.121 C 
BRANCH  25  31
ATOM     26  C   UNL     1       5.070  -0.970   1.289  0.00  0.00    -0.013 A 
ATOM     27  C   UNL     1       6.138  -0.735   0.426  0.00  0.00    +0.009 A 
ATOM     28  C   UNL     1       6.295  -1.514  -0.703  0.00  0.00    +0.001 A 
ATOM     29  C   UNL     1       5.393  -2.527  -0.978  0.00  0.00    +0.000 A 
ATOM     30  C   UNL     1       4.330  -2.764  -0.125  0.00  0.00    +0.005 A 
ATOM     31  C   UNL     1       4.168  -1.994   1.010  0.00  0.00    -0.026 A 
BRANCH  26  35
ATOM     32  C   UNL     1       4.575   1.421   4.771  0.00  0.00    +0.000 A 
ATOM     33  C   UNL     1       5.761   0.738   4.566  0.00  0.00    +0.001 A 
ATOM     34  C   UNL     1       5.926  -0.040   3.438  0.00  0.00    +0.008 A 
ATOM     35  C   UNL     1       4.897  -0.136   2.504  0.00  0.00    -0.018 A 
ATOM     36  C   UNL     1       3.705   0.554   2.715  0.00  0.00    +0.008 A 
ATOM     37  C   UNL     1       3.550   1.329   3.846  0.00  0.00    +0.001 A 
ENDBRANCH  26  35
ENDBRANCH  25  31
ENDBRANCH   1  25
TORSDOF 4
