REMARK  Name = ZINC13941622
REMARK  8 active torsions:
REMARK  status: ('A' for Active; 'I' for Inactive)
REMARK    1  A    between atoms: C_1  and  C_2
REMARK    2  A    between atoms: C_3  and  C_34
REMARK    3  A    between atoms: N_6  and  C_27
REMARK    4  A    between atoms: C_8  and  C_9
REMARK    5  A    between atoms: N_11  and  N_12
REMARK    6  A    between atoms: N_12  and  C_13
REMARK    7  A    between atoms: C_18  and  O_25
REMARK    8  A    between atoms: O_25  and  C_26
REMARK                            x       y       z     vdW  Elec       q    Type
REMARK                         _______ _______ _______ _____ _____    ______ ____
ROOT
ATOM      1  C   UNL     1       0.893  -0.177   2.428  0.00  0.00    +0.280 C 
ATOM      2  O   UNL     1       0.835   1.031   2.552  0.00  0.00    -0.267 OA
ATOM      3  N   UNL     1       1.370  -0.936   3.434  0.00  0.00    -0.232 N 
ATOM      4  H   UNL     1       1.416  -1.900   3.334  0.00  0.00    +0.173 HD
ENDROOT
BRANCH   1  12
ATOM      5  C   UNL     1      -0.400   1.450   0.381  0.00  0.00    +0.048 C 
ATOM      6  C   UNL     1      -0.187  -0.028   0.181  0.00  0.00    +0.004 A 
ATOM      7  C   UNL     1      -0.595  -0.662  -0.989  0.00  0.00    +0.123 A 
ATOM      8  C   UNL     1      -0.344  -2.105  -1.091  0.00  0.00    +0.290 A 
ATOM      9  O   UNL     1      -0.674  -2.724  -2.087  0.00  0.00    -0.264 OA
ATOM     10  N   UNL     1       0.260  -2.731  -0.061  0.00  0.00    -0.195 N 
ATOM     11  N   UNL     1       0.618  -2.104   0.998  0.00  0.00    -0.158 NA
ATOM     12  C   UNL     1       0.438  -0.814   1.172  0.00  0.00    +0.152 A 
BRANCH  10  13
ATOM     13  C   UNL     1       0.502  -4.105  -0.150  0.00  0.00    +0.069 A 
ATOM     14  C   UNL     1       1.116  -4.631  -1.280  0.00  0.00    +0.029 A 
ATOM     15  C   UNL     1       1.355  -5.989  -1.366  0.00  0.00    +0.022 A 
ATOM     16  C   UNL     1       0.982  -6.825  -0.328  0.00  0.00    +0.041 A 
ATOM     17  C   UNL     1       0.369  -6.303   0.799  0.00  0.00    +0.022 A 
ATOM     18  C   UNL     1       0.134  -4.946   0.892  0.00  0.00    +0.029 A 
ATOM     19 CL   UNL     1       1.283  -8.531  -0.439  0.00  0.00    -0.084 Cl
ENDBRANCH  10  13
BRANCH   7  20
ATOM     20  C   UNL     1      -1.233   0.062  -2.048  0.00  0.00    +0.105 C 
ATOM     21  N   UNL     1      -1.738   0.637  -2.887  0.00  0.00    -0.191 NA
ENDBRANCH   7  20
ENDBRANCH   1  12
BRANCH   3  22
ATOM     22  N   UNL     1       1.801  -0.333   4.623  0.00  0.00    -0.271 N 
ATOM     23  H   UNL     1       1.755   0.631   4.722  0.00  0.00    +0.169 HD
BRANCH  22  24
ATOM     24  C   UNL     1       2.275  -1.087   5.622  0.00  0.00    +0.100 C 
ATOM     25  C   UNL     1       2.706  -0.483   6.812  0.00  0.00    +0.053 C 
ATOM     26  C   UNL     1       2.638   0.907   6.967  0.00  0.00    +0.024 C 
ATOM     27  C   UNL     1       3.081   1.459   8.176  0.00  0.00    +0.000 A 
ATOM     28  C   UNL     1       3.042   2.848   8.402  0.00  0.00    +0.055 A 
ATOM     29  C   UNL     1       3.482   3.346   9.594  0.00  0.00    +0.121 A 
ATOM     30  C   UNL     1       3.973   2.506  10.597  0.00  0.00    +0.047 A 
ATOM     31  C   UNL     1       4.033   1.157  10.432  0.00  0.00    +0.027 A 
ATOM     32  C   UNL     1       3.594   0.580   9.227  0.00  0.00    +0.041 A 
ATOM     33  N   UNL     1       3.643  -0.742   9.043  0.00  0.00    -0.281 N 
ATOM     34  C   UNL     1       3.229  -1.303   7.916  0.00  0.00    +0.250 C 
ATOM     35  O   UNL     1       3.287  -2.518   7.790  0.00  0.00    -0.270 OA
ATOM     36  H   UNL     1       3.987  -1.306   9.754  0.00  0.00    +0.155 HD
BRANCH  29  37
ATOM     37  O   UNL     1       3.444   4.688   9.810  0.00  0.00    -0.495 OA
ATOM     38  C   UNL     1       3.917   5.156  11.074  0.00  0.00    +0.277 C 
ENDBRANCH  29  37
ENDBRANCH  22  24
ENDBRANCH   3  22
TORSDOF 6
