REMARK  Name = ZINC13007876
REMARK  8 active torsions:
REMARK  status: ('A' for Active; 'I' for Inactive)
REMARK    1  A    between atoms: C_1  and  C_2
REMARK    2  A    between atoms: C_5  and  N_8
REMARK    3  A    between atoms: C_9  and  C_11
REMARK    4  A    between atoms: N_13  and  C_14
REMARK    5  A    between atoms: C_14  and  C_15
REMARK    6  A    between atoms: C_15  and  C_17
REMARK    7  A    between atoms: C_15  and  N_63
REMARK    8  A    between atoms: N_25  and  C_26
REMARK                            x       y       z     vdW  Elec       q    Type
REMARK                         _______ _______ _______ _____ _____    ______ ____
ROOT
ATOM      1  C   UNL     1       0.248   1.238   0.007  0.00  0.00    -0.020 C 
ENDROOT
BRANCH   1   2
ATOM      2  C   UNL     1      -0.610   1.926   1.037  0.00  0.00    -0.059 A 
ATOM      3  C   UNL     1      -0.779   3.298   0.994  0.00  0.00    +0.004 A 
ATOM      4  C   UNL     1      -1.565   3.932   1.933  0.00  0.00    +0.023 A 
ATOM      5  C   UNL     1      -2.187   3.195   2.940  0.00  0.00    +0.033 A 
ATOM      6  C   UNL     1      -2.010   1.817   2.975  0.00  0.00    -0.025 A 
ATOM      7  C   UNL     1      -1.226   1.188   2.031  0.00  0.00    +0.007 A 
ATOM      8  C   UNL     1      -2.799   1.276   4.151  0.00  0.00    +0.056 C 
ATOM      9  C   UNL     1      -3.747   2.446   4.497  0.00  0.00    +0.109 C 
ATOM     10  N   UNL     1      -3.006   3.623   3.991  0.00  0.00    -0.332 N 
ATOM     11  C   UNL     1      -3.930   4.674   3.545  0.00  0.00    +0.129 C 
ENDBRANCH   1   2
BRANCH   1  17
ATOM     12  C   UNL     1      -1.420   1.828  -1.645  0.00  0.00    -0.078 C 
ATOM     13  C   UNL     1      -1.647   2.591  -2.952  0.00  0.00    -0.019 C 
ATOM     14  C   UNL     1      -0.836   1.931  -4.071  0.00  0.00    -0.004 C 
ATOM     15  C   UNL     1       0.643   1.915  -3.676  0.00  0.00    -0.019 C 
ATOM     16  C   UNL     1       0.804   1.171  -2.348  0.00  0.00    -0.078 C 
ATOM     17  N   UNL     1       0.019   1.870  -1.309  0.00  0.00    +0.385 N 
ATOM     18  H   UNL     1       0.322   2.850  -1.265  0.00  0.00    -0.081 HD
ENDBRANCH   1  17
BRANCH   1  19
ATOM     19  C   UNL     1       1.722   1.398   0.382  0.00  0.00    +0.094 C 
BRANCH  19  22
ATOM     20  C   UNL     1       3.195   0.796   2.228  0.00  0.00    +0.299 C 
ATOM     21  O   UNL     1       4.070   1.454   1.706  0.00  0.00    -0.265 OA
ATOM     22  N   UNL     1       1.983   0.704   1.646  0.00  0.00    -0.309 N 
ATOM     23  H   UNL     1       1.283   0.178   2.063  0.00  0.00    +0.149 HD
BRANCH  20  25
ATOM     24  N   UNL     1       4.673   0.181   4.098  0.00  0.00    -0.278 N 
ATOM     25  C   UNL     1       3.461   0.088   3.516  0.00  0.00    +0.303 C 
ATOM     26  O   UNL     1       2.585  -0.570   4.039  0.00  0.00    -0.265 OA
ATOM     27  H   UNL     1       5.393   0.648   3.647  0.00  0.00    +0.155 HD
BRANCH  24  32
ATOM     28  C   UNL     1       5.561  -2.164   9.185  0.00  0.00    +0.044 C 
ATOM     29  C   UNL     1       5.325  -1.541   7.833  0.00  0.00    -0.050 A 
ATOM     30  C   UNL     1       4.484  -2.159   6.926  0.00  0.00    +0.005 A 
ATOM     31  C   UNL     1       4.266  -1.591   5.687  0.00  0.00    +0.023 A 
ATOM     32  C   UNL     1       4.891  -0.397   5.352  0.00  0.00    +0.034 A 
ATOM     33  C   UNL     1       5.740   0.219   6.263  0.00  0.00    +0.023 A 
ATOM     34  C   UNL     1       5.950  -0.352   7.503  0.00  0.00    +0.005 A 
ENDBRANCH  24  32
ENDBRANCH  20  25
ENDBRANCH  19  22
ENDBRANCH   1  19
TORSDOF 6
