REMARK  Name = ZINC03358181
REMARK  8 active torsions:
REMARK  status: ('A' for Active; 'I' for Inactive)
REMARK    1  A    between atoms: C_1  and  C_2
REMARK    2  A    between atoms: C_2  and  C_35
REMARK    3  A    between atoms: C_13  and  C_15
REMARK    4  A    between atoms: C_15  and  S_16
REMARK    5  A    between atoms: S_16  and  C_17
REMARK    6  A    between atoms: C_21  and  C_24
REMARK    7  A    between atoms: N_31  and  C_32
REMARK    8  A    between atoms: C_32  and  C_33
REMARK                            x       y       z     vdW  Elec       q    Type
REMARK                         _______ _______ _______ _____ _____    ______ ____
ROOT
ATOM      1  S   UNL     1      -5.435  -1.470   4.245  0.00  0.00    -0.078 S 
ENDROOT
BRANCH   1   2
ATOM      2  C   UNL     1      -4.020  -1.559   3.199  0.00  0.00    +0.173 A 
ATOM      3  N   UNL     1      -4.122  -2.122   2.013  0.00  0.00    -0.216 NA
ATOM      4  C   UNL     1      -3.072  -2.203   1.203  0.00  0.00    +0.117 A 
ATOM      5  C   UNL     1      -1.812  -1.698   1.565  0.00  0.00    +0.083 A 
ATOM      6  C   UNL     1      -0.766  -1.868   0.559  0.00  0.00    +0.039 A 
ATOM      7  C   UNL     1      -1.082  -2.475  -0.612  0.00  0.00    +0.059 A 
ATOM      8  S   UNL     1      -2.811  -2.864  -0.423  0.00  0.00    -0.076 S 
ATOM      9  C   UNL     1      -1.730  -1.094   2.857  0.00  0.00    +0.264 A 
ATOM     10  O   UNL     1      -0.676  -0.629   3.255  0.00  0.00    -0.267 OA
ATOM     11  N   UNL     1      -2.831  -1.044   3.629  0.00  0.00    -0.283 N 
BRANCH   6  12
ATOM     12  C   UNL     1       0.606  -1.383   0.810  0.00  0.00    +0.136 A 
ATOM     13  C   UNL     1       1.749  -2.102   0.644  0.00  0.00    +0.050 A 
ATOM     14  C   UNL     1       2.817  -1.252   0.998  0.00  0.00    +0.042 A 
ATOM     15  C   UNL     1       2.280  -0.071   1.358  0.00  0.00    +0.196 A 
ATOM     16  O   UNL     1       0.943  -0.154   1.244  0.00  0.00    -0.463 OA
ENDBRANCH   6  12
BRANCH  11  17
ATOM     17  C   UNL     1      -2.752  -0.425   4.955  0.00  0.00    +0.154 C 
BRANCH  17  18
ATOM     18  C   UNL     1      -3.066   1.044   4.842  0.00  0.00    -0.013 C 
ATOM     19  C   UNL     1      -4.018   1.569   5.573  0.00  0.00    +0.005 C 
ENDBRANCH  17  18
ENDBRANCH  11  17
ENDBRANCH   1   2
BRANCH   1  20
ATOM     20  C   UNL     1      -6.660  -2.279   3.186  0.00  0.00    +0.173 C 
BRANCH  20  33
ATOM     21  C   UNL     1     -10.208  -2.479   5.466  0.00  0.00    +0.042 C 
ATOM     22  C   UNL     1     -10.281  -3.171   4.104  0.00  0.00    +0.113 C 
ATOM     23  C   UNL     1     -10.736  -4.593   4.286  0.00  0.00    +0.241 C 
ATOM     24  O   UNL     1     -11.487  -4.869   5.197  0.00  0.00    -0.273 OA
ATOM     25  N   UNL     1     -10.317  -5.564   3.452  0.00  0.00    -0.282 N 
ATOM     26  C   UNL     1      -9.412  -5.282   2.424  0.00  0.00    +0.055 A 
ATOM     27  C   UNL     1      -9.197  -6.190   1.399  0.00  0.00    +0.025 A 
ATOM     28  C   UNL     1      -8.289  -5.896   0.398  0.00  0.00    +0.002 A 
ATOM     29  C   UNL     1      -7.595  -4.700   0.413  0.00  0.00    +0.002 A 
ATOM     30  C   UNL     1      -7.805  -3.786   1.430  0.00  0.00    +0.025 A 
ATOM     31  C   UNL     1      -8.713  -4.074   2.434  0.00  0.00    +0.059 A 
ATOM     32  N   UNL     1      -8.951  -3.165   3.477  0.00  0.00    -0.255 N 
ATOM     33  C   UNL     1      -7.989  -2.319   3.895  0.00  0.00    +0.231 C 
ATOM     34  O   UNL     1      -8.193  -1.589   4.842  0.00  0.00    -0.274 OA
ATOM     35  C   UNL     1     -11.274  -2.432   3.204  0.00  0.00    +0.042 C 
ATOM     36  H   UNL     1     -10.646  -6.469   3.567  0.00  0.00    +0.155 HD
ENDBRANCH  20  33
ENDBRANCH   1  20
TORSDOF 6
