REMARK  Name = ZINC38651889
REMARK  6 active torsions:
REMARK  status: ('A' for Active; 'I' for Inactive)
REMARK    1  A    between atoms: C_5  and  C_7
REMARK    2  A    between atoms: C_12  and  O_21
REMARK    3  A    between atoms: C_16  and  N_20
REMARK    4  A    between atoms: C_17  and  C_18
REMARK    5  A    between atoms: O_21  and  C_22
REMARK    6  A    between atoms: C_22  and  C_24
REMARK                            x       y       z     vdW  Elec       q    Type
REMARK                         _______ _______ _______ _____ _____    ______ ____
ROOT
ATOM      1  C   UNL     1       1.264  -2.146  -0.059  0.00  0.00    +0.101 C 
ATOM      2  C   UNL     1       0.546  -2.658  -1.279  0.00  0.00    +0.008 A 
ATOM      3  C   UNL     1       1.137  -2.525  -2.523  0.00  0.00    +0.012 A 
ATOM      4  C   UNL     1       0.493  -2.989  -3.653  0.00  0.00    +0.047 A 
ATOM      5  C   UNL     1      -0.752  -3.593  -3.543  0.00  0.00    +0.135 A 
ATOM      6  C   UNL     1      -1.346  -3.728  -2.299  0.00  0.00    +0.093 A 
ATOM      7  C   UNL     1      -0.698  -3.260  -1.164  0.00  0.00    +0.138 A 
ATOM      8  O   UNL     1      -1.293  -3.400   0.046  0.00  0.00    -0.441 OA
ATOM      9  C   UNL     1      -0.557  -3.323   1.168  0.00  0.00    +0.199 C 
ATOM     10  C   UNL     1       0.661  -2.740   1.183  0.00  0.00    +0.098 C 
ENDROOT
BRANCH   1  15
ATOM     11  C   UNL     1      -0.215   1.323   0.125  0.00  0.00    +0.000 A 
ATOM     12  C   UNL     1       0.921   2.111   0.099  0.00  0.00    +0.003 A 
ATOM     13  C   UNL     1       2.169   1.522   0.022  0.00  0.00    +0.038 A 
ATOM     14  C   UNL     1       2.281   0.143  -0.029  0.00  0.00    +0.127 A 
ATOM     15  C   UNL     1       1.143  -0.644  -0.003  0.00  0.00    +0.000 A 
ATOM     16  C   UNL     1      -0.104  -0.053   0.074  0.00  0.00    +0.007 A 
ATOM     17  F   UNL     1       3.501  -0.433  -0.105  0.00  0.00    -0.205 F 
ENDBRANCH   1  15
BRANCH   9  18
ATOM     18  N   UNL     1      -1.059  -3.850   2.332  0.00  0.00    -0.328 N 
ATOM     19  H   UNL     1      -1.933  -4.271   2.336  0.00  0.00    +0.145 HD
ATOM     20  H   UNL     1      -0.540  -3.802   3.149  0.00  0.00    +0.145 HD
ENDBRANCH   9  18
BRANCH  10  21
ATOM     21  C   UNL     1       1.395  -2.689   2.412  0.00  0.00    +0.101 C 
ATOM     22  N   UNL     1       1.976  -2.649   3.387  0.00  0.00    -0.191 NA
ENDBRANCH  10  21
BRANCH   5  23
ATOM     23  O   UNL     1      -1.387  -4.050  -4.654  0.00  0.00    -0.422 OA
BRANCH  23  24
ATOM     24  C   UNL     1      -0.869  -5.124  -5.282  0.00  0.00    +0.344 C 
ATOM     25  O   UNL     1       0.074  -5.716  -4.796  0.00  0.00    -0.245 OA
BRANCH  24  26
ATOM     26  C   UNL     1      -1.446  -5.580  -6.562  0.00  0.00    +0.060 A 
ATOM     27  C   UNL     1      -2.527  -4.898  -7.126  0.00  0.00    +0.018 A 
ATOM     28  C   UNL     1      -3.062  -5.328  -8.321  0.00  0.00    +0.039 A 
ATOM     29  C   UNL     1      -2.530  -6.437  -8.963  0.00  0.00    +0.123 A 
ATOM     30  C   UNL     1      -1.458  -7.118  -8.406  0.00  0.00    +0.039 A 
ATOM     31  C   UNL     1      -0.911  -6.693  -7.215  0.00  0.00    +0.018 A 
ATOM     32  F   UNL     1      -3.058  -6.855 -10.133  0.00  0.00    -0.205 F 
ENDBRANCH  24  26
ENDBRANCH  23  24
ENDBRANCH   5  23
TORSDOF 6
