REMARK  Name = ZINC03843181
REMARK  5 active torsions:
REMARK  status: ('A' for Active; 'I' for Inactive)
REMARK    1  A    between atoms: C_1  and  C_2
REMARK    2  A    between atoms: C_3  and  C_4
REMARK    3  A    between atoms: C_8  and  C_13
REMARK    4  A    between atoms: C_18  and  O_19
REMARK    5  A    between atoms: O_19  and  C_20
REMARK                            x       y       z     vdW  Elec       q    Type
REMARK                         _______ _______ _______ _____ _____    ______ ____
ROOT
ATOM      1  C   UNL     1      -3.733   3.972   6.542  0.00  0.00    +0.175 C 
ATOM      2  N   UNL     1      -3.009   4.059   5.258  0.00  0.00    -0.264 N 
ATOM      3  N   UNL     1      -2.659   2.891   4.660  0.00  0.00    -0.220 N 
ATOM      4  C   UNL     1      -1.997   2.507   3.494  0.00  0.00    +0.185 A 
ATOM      5  N   UNL     1      -1.972   1.198   3.462  0.00  0.00    -0.127 NA
ATOM      6  N   UNL     1      -2.553   0.723   4.506  0.00  0.00    -0.120 NA
ATOM      7  C   UNL     1      -2.982   1.700   5.250  0.00  0.00    +0.211 A 
ATOM      8  S   UNL     1      -3.832   2.150   6.746  0.00  0.00    -0.057 S 
ATOM      9  H   UNL     1      -2.216   4.678   5.331  0.00  0.00    +0.168 HD
ENDROOT
BRANCH   4  10
ATOM     10  C   UNL     1      -1.430   3.414   2.475  0.00  0.00    +0.062 A 
ATOM     11  C   UNL     1      -1.533   4.797   2.631  0.00  0.00    +0.015 A 
ATOM     12  C   UNL     1      -1.003   5.639   1.676  0.00  0.00    +0.001 A 
ATOM     13  C   UNL     1      -0.368   5.118   0.562  0.00  0.00    +0.004 A 
ATOM     14  C   UNL     1      -0.255   3.750   0.399  0.00  0.00    +0.046 A 
ATOM     15  C   UNL     1      -0.787   2.891   1.346  0.00  0.00    +0.131 A 
BRANCH  15  16
ATOM     16  O   UNL     1      -0.682   1.547   1.184  0.00  0.00    -0.494 OA
ATOM     17  C   UNL     1      -0.013   1.086   0.008  0.00  0.00    +0.277 C 
ENDBRANCH  15  16
ENDBRANCH   4  10
BRANCH   1  20
ATOM     18  C   UNL     1      -2.653   6.247   9.441  0.00  0.00    +0.035 C 
ATOM     19  C   UNL     1      -3.443   5.614   8.325  0.00  0.00    -0.032 C 
ATOM     20  C   UNL     1      -2.943   4.604   7.659  0.00  0.00    +0.003 C 
ENDBRANCH   1  20
TORSDOF 3
