REMARK  Name = ZINC42015655
REMARK  4 active torsions:
REMARK  status: ('A' for Active; 'I' for Inactive)
REMARK    1  A    between atoms: C_1  and  C_2
REMARK    2  A    between atoms: C_7  and  N_8
REMARK    3  A    between atoms: C_9  and  C_13
REMARK    4  A    between atoms: C_17  and  N_19
REMARK                            x       y       z     vdW  Elec       q    Type
REMARK                         _______ _______ _______ _____ _____    ______ ____
ROOT
ATOM      1  N   UNL     1       0.555   0.177   2.353  0.00  0.00    -0.192 N 
ATOM      2  C   UNL     1       0.379  -0.337   3.604  0.00  0.00    +0.187 A 
ATOM      3  N   UNL     1       0.001   0.660   4.377  0.00  0.00    -0.108 NA
ATOM      4  N   UNL     1      -0.071   1.750   3.703  0.00  0.00    -0.022 NA
ATOM      5  N   UNL     1       0.254   1.545   2.473  0.00  0.00    -0.039 NA
ENDROOT
BRANCH   1  12
ATOM      6  C   UNL     1      -1.037   0.445   0.009  0.00  0.00    +0.046 C 
ATOM      7  C   UNL     1       0.207  -0.405   0.033  0.00  0.00    -0.022 A 
ATOM      8  C   UNL     1       0.606  -1.077  -1.106  0.00  0.00    +0.043 A 
ATOM      9  C   UNL     1       1.748  -1.859  -1.085  0.00  0.00    +0.124 A 
ATOM     10  C   UNL     1       2.493  -1.969   0.078  0.00  0.00    +0.040 A 
ATOM     11  C   UNL     1       2.097  -1.299   1.218  0.00  0.00    +0.031 A 
ATOM     12  C   UNL     1       0.955  -0.509   1.198  0.00  0.00    +0.072 A 
ATOM     13  F   UNL     1       2.137  -2.516  -2.199  0.00  0.00    -0.205 F 
ENDBRANCH   1  12
BRANCH   2  14
ATOM     14  C   UNL     1       0.574  -1.745   4.014  0.00  0.00    +0.023 A 
ATOM     15  C   UNL     1       0.354  -2.776   3.100  0.00  0.00    +0.014 A 
ATOM     16  C   UNL     1       0.536  -4.089   3.483  0.00  0.00    +0.041 A 
ATOM     17  C   UNL     1       0.939  -4.388   4.774  0.00  0.00    +0.144 A 
ATOM     18  C   UNL     1       1.160  -3.365   5.692  0.00  0.00    +0.061 A 
ATOM     19  C   UNL     1       0.984  -2.045   5.312  0.00  0.00    +0.037 A 
ATOM     20  F   UNL     1       1.116  -5.675   5.143  0.00  0.00    -0.204 F 
BRANCH  18  21
ATOM     21  N   UNL     1       1.566  -3.671   6.995  0.00  0.00    -0.356 N 
ATOM     22  H   UNL     1       1.693  -4.596   7.259  0.00  0.00    +0.142 HD
ATOM     23  H   UNL     1       1.721  -2.958   7.634  0.00  0.00    +0.142 HD
ENDBRANCH  18  21
ENDBRANCH   2  14
TORSDOF 3
