REMARK  Name = ZINC45235589
REMARK  8 active torsions:
REMARK  status: ('A' for Active; 'I' for Inactive)
REMARK    1  A    between atoms: C_1  and  C_2
REMARK    2  A    between atoms: C_9  and  C_14
REMARK    3  A    between atoms: C_14  and  N_15
REMARK    4  A    between atoms: N_15  and  C_16
REMARK    5  A    between atoms: C_19  and  C_22
REMARK    6  A    between atoms: C_22  and  C_23
REMARK    7  A    between atoms: C_22  and  C_24
REMARK    8  A    between atoms: N_27  and  C_28
REMARK                            x       y       z     vdW  Elec       q    Type
REMARK                         _______ _______ _______ _____ _____    ______ ____
ROOT
ATOM      1  N   UNL     1      -1.286  -5.303   4.041  0.00  0.00    -0.251 N 
ATOM      2  C   UNL     1      -1.913  -4.394   4.814  0.00  0.00    +0.307 C 
ATOM      3  O   UNL     1      -3.075  -4.563   5.130  0.00  0.00    -0.252 OA
ATOM      4  N   UNL     1      -1.253  -3.297   5.235  0.00  0.00    -0.296 N 
ATOM      5  H   UNL     1      -0.326  -3.163   4.983  0.00  0.00    +0.151 HD
ENDROOT
BRANCH   1   6
ATOM      6  C   UNL     1      -1.939  -6.489   3.687  0.00  0.00    +0.038 A 
ATOM      7  C   UNL     1      -3.043  -6.451   2.845  0.00  0.00    +0.024 A 
ATOM      8  C   UNL     1      -3.684  -7.623   2.496  0.00  0.00    +0.006 A 
ATOM      9  C   UNL     1      -3.229  -8.834   2.984  0.00  0.00    -0.045 A 
ATOM     10  C   UNL     1      -2.130  -8.876   3.822  0.00  0.00    +0.006 A 
ATOM     11  C   UNL     1      -1.480  -7.707   4.170  0.00  0.00    +0.024 A 
BRANCH   9  12
ATOM     12  C   UNL     1      -3.931 -10.111   2.601  0.00  0.00    +0.013 C 
ATOM     13  C   UNL     1      -2.950 -11.037   1.880  0.00  0.00    +0.012 C 
ATOM     14  C   UNL     1      -4.453 -10.804   3.862  0.00  0.00    +0.012 C 
ENDBRANCH   9  12
ENDBRANCH   1   6
BRANCH   4  15
ATOM     15  C   UNL     1      -1.935  -2.309   6.074  0.00  0.00    +0.075 C 
ATOM     16  C   UNL     1      -1.719  -0.831   5.742  0.00  0.00    +0.024 C 
ATOM     17  C   UNL     1      -1.068  -1.438   6.986  0.00  0.00    +0.024 C 
ENDBRANCH   4  15
BRANCH   1  18
ATOM     18  C   UNL     1       0.079  -5.050   3.574  0.00  0.00    +0.155 C 
BRANCH  18  27
ATOM     19  C   UNL     1       0.304   1.434  -0.103  0.00  0.00    +0.044 C 
ATOM     20  C   UNL     1       0.175  -0.068  -0.093  0.00  0.00    -0.050 A 
ATOM     21  C   UNL     1       0.007  -0.751  -1.290  0.00  0.00    +0.005 A 
ATOM     22  C   UNL     1      -0.113  -2.124  -1.304  0.00  0.00    +0.026 A 
ATOM     23  C   UNL     1      -0.066  -2.834  -0.109  0.00  0.00    +0.049 A 
ATOM     24  C   UNL     1       0.105  -2.137   1.102  0.00  0.00    -0.001 A 
ATOM     25  C   UNL     1       0.230  -0.744   1.092  0.00  0.00    +0.013 A 
ATOM     26  C   UNL     1       0.154  -2.893   2.355  0.00  0.00    +0.020 A 
ATOM     27  C   UNL     1       0.033  -4.242   2.303  0.00  0.00    +0.035 A 
ATOM     28  C   UNL     1      -0.137  -4.893   1.062  0.00  0.00    +0.254 A 
ATOM     29  O   UNL     1      -0.244  -6.107   1.037  0.00  0.00    -0.268 OA
ATOM     30  N   UNL     1      -0.183  -4.208  -0.094  0.00  0.00    -0.322 N 
ATOM     31  H   UNL     1      -0.301  -4.686  -0.929  0.00  0.00    +0.169 HD
ENDBRANCH  18  27
ENDBRANCH   1  18
TORSDOF 5
