REMARK  Name = ZINC12302048
REMARK  13 active torsions:
REMARK  status: ('A' for Active; 'I' for Inactive)
REMARK    1  A    between atoms: C_1  and  C_2
REMARK    2  A    between atoms: C_2  and  C_3
REMARK    3  A    between atoms: C_2  and  C_4
REMARK    4  A    between atoms: C_4  and  C_5
REMARK    5  A    between atoms: C_7  and  C_11
REMARK    6  A    between atoms: C_11  and  N_70
REMARK    7  A    between atoms: C_12  and  C_13
REMARK    8  A    between atoms: C_12  and  N_70
REMARK    9  A    between atoms: C_13  and  O_14
REMARK   10  A    between atoms: O_14  and  C_15
REMARK   11  A    between atoms: C_16  and  C_17
REMARK   12  A    between atoms: C_16  and  N_70
REMARK   13  A    between atoms: C_23  and  N_72
REMARK                            x       y       z     vdW  Elec       q    Type
REMARK                         _______ _______ _______ _____ _____    ______ ____
ROOT
ATOM      1  C   UNL     1      -4.195   0.395  -0.358  0.00  0.00    -0.077 C 
ENDROOT
BRANCH   1   2
ATOM      2  C   UNL     1      -3.029   1.370  -0.531  0.00  0.00    -0.044 C 
ATOM      3  C   UNL     1      -2.116   1.298   0.696  0.00  0.00    -0.002 C 
ATOM      4  C   UNL     1      -0.921   2.233   0.488  0.00  0.00    -0.018 C 
ATOM      5  C   UNL     1      -0.182   1.832  -0.790  0.00  0.00    -0.078 C 
ATOM      6  C   UNL     1      -2.229   0.994  -1.779  0.00  0.00    -0.077 C 
ATOM      7  N   UNL     1      -1.109   1.945  -1.936  0.00  0.00    +0.382 N 
ATOM      8  H   UNL     1      -1.485   2.900  -1.967  0.00  0.00    -0.081 HD
BRANCH   7   9
ATOM      9  C   UNL     1      -0.388   1.673  -3.197  0.00  0.00    -0.060 C 
ATOM     10  C   UNL     1       0.604   2.817  -3.499  0.00  0.00    +0.020 C 
ATOM     11  C   UNL     1       0.571   2.977  -5.007  0.00  0.00    -0.046 A 
ATOM     12  C   UNL     1       1.459   3.611  -5.860  0.00  0.00    +0.004 A 
ATOM     13  C   UNL     1       1.224   3.628  -7.221  0.00  0.00    +0.000 A 
ATOM     14  C   UNL     1       0.098   3.010  -7.734  0.00  0.00    +0.000 A 
ATOM     15  C   UNL     1      -0.788   2.377  -6.885  0.00  0.00    +0.004 A 
ATOM     16  C   UNL     1      -0.554   2.359  -5.520  0.00  0.00    -0.046 A 
ATOM     17  C   UNL     1      -1.358   1.744  -4.395  0.00  0.00    +0.020 C 
ENDBRANCH   7   9
ENDBRANCH   1   2
BRANCH   1  18
ATOM     18  N   UNL     1      -5.015   0.830   0.792  0.00  0.00    +0.385 N 
ATOM     19  H   UNL     1      -4.402   0.967   1.605  0.00  0.00    -0.081 HD
BRANCH  18  20
ATOM     20  C   UNL     1      -6.019  -0.204   1.117  0.00  0.00    -0.020 C 
BRANCH  20  23
ATOM     21  C   UNL     1      -8.299   1.064   3.719  0.00  0.00    +0.036 A 
ATOM     22  C   UNL     1      -7.976   0.883   2.418  0.00  0.00    +0.045 A 
ATOM     23  C   UNL     1      -6.753   0.205   2.368  0.00  0.00    +0.047 A 
ATOM     24  N   UNL     1      -6.360  -0.018   3.596  0.00  0.00    -0.181 NA
ATOM     25  N   UNL     1      -7.316   0.520   4.467  0.00  0.00    -0.281 N 
ATOM     26  H   UNL     1      -7.277   0.504   5.466  0.00  0.00    +0.189 HD
BRANCH  21  27
ATOM     27  C   UNL     1      -9.535   1.752   4.240  0.00  0.00    +0.057 C 
BRANCH  27  29
ATOM     28  C   UNL     1     -11.908   1.412   4.945  0.00  0.00    +0.007 C 
ATOM     29  C   UNL     1     -10.689   0.749   4.300  0.00  0.00    -0.011 C 
ATOM     30  C   UNL     1     -11.045   0.296   2.883  0.00  0.00    +0.007 C 
ENDBRANCH  27  29
ENDBRANCH  21  27
ENDBRANCH  20  23
ENDBRANCH  18  20
BRANCH  18  31
ATOM     31  C   UNL     1      -5.689   2.107   0.478  0.00  0.00    -0.050 C 
BRANCH  31  32
ATOM     32  C   UNL     1      -6.440   2.005  -0.851  0.00  0.00    +0.141 C 
BRANCH  32  33
ATOM     33  O   UNL     1      -7.548   1.113  -0.703  0.00  0.00    -0.385 OA
ATOM     34  C   UNL     1      -8.321   0.946  -1.893  0.00  0.00    +0.193 C 
ENDBRANCH  32  33
ENDBRANCH  31  32
ENDBRANCH  18  31
ENDBRANCH   1  18
TORSDOF 10
