REMARK  Name = ZINC54652696
REMARK  4 active torsions:
REMARK  status: ('A' for Active; 'I' for Inactive)
REMARK    1  A    between atoms: C_1  and  C_2
REMARK    2  A    between atoms: C_5  and  N_8
REMARK    3  A    between atoms: C_26  and  C_36
REMARK    4  A    between atoms: C_41  and  O_42
REMARK                            x       y       z     vdW  Elec       q    Type
REMARK                         _______ _______ _______ _____ _____    ______ ____
ROOT
ATOM      1  N   UNL     1       0.333  -3.983   0.727  0.00  0.00    -0.210 N 
ATOM      2  C   UNL     1       0.138  -4.801   1.810  0.00  0.00    +0.230 C 
ATOM      3  O   UNL     1      -0.375  -4.508   2.868  0.00  0.00    -0.274 OA
ATOM      4  C   UNL     1       0.696  -6.143   1.408  0.00  0.00    +0.091 C 
ATOM      5  C   UNL     1      -0.021  -7.438   1.806  0.00  0.00    +0.007 C 
ATOM      6  C   UNL     1       0.549  -8.297   0.572  0.00  0.00    +0.010 C 
ATOM      7  C   UNL     1      -0.106  -7.406  -0.566  0.00  0.00    +0.016 C 
ATOM      8  C   UNL     1       0.215  -6.017  -0.087  0.00  0.00    +0.092 C 
ATOM      9  C   UNL     1       0.608  -4.684  -0.435  0.00  0.00    +0.230 C 
ATOM     10  O   UNL     1       1.065  -4.274  -1.480  0.00  0.00    -0.274 OA
ATOM     11  C   UNL     1      -1.596  -7.456  -0.115  0.00  0.00    +0.061 C 
ATOM     12  C   UNL     1      -1.462  -7.564   1.436  0.00  0.00    +0.019 C 
ATOM     13  C   UNL     1      -2.676  -7.173   2.188  0.00  0.00    +0.066 C 
ATOM     14  C   UNL     1      -3.811  -8.040   1.694  0.00  0.00    +0.032 A 
ATOM     15  C   UNL     1      -3.892  -8.815   0.591  0.00  0.00    +0.087 A 
ATOM     16  N   UNL     1      -5.067  -9.514   0.461  0.00  0.00    -0.311 N 
ATOM     17  H   UNL     1      -5.194 -10.113  -0.291  0.00  0.00    +0.170 HD
ATOM     18  C   UNL     1      -6.043  -9.370   1.378  0.00  0.00    +0.289 A 
ATOM     19  O   UNL     1      -7.137  -9.904   1.408  0.00  0.00    -0.260 OA
ATOM     20  S   UNL     1      -5.387  -8.273   2.472  0.00  0.00    -0.030 S 
ATOM     21  S   UNL     1      -2.542  -8.891  -0.659  0.00  0.00    -0.103 S 
ENDROOT
BRANCH   1  26
ATOM     22  C   UNL     1       0.018   1.678   0.975  0.00  0.00    +0.044 C 
ATOM     23  C   UNL     1       0.102   0.175   0.909  0.00  0.00    -0.050 A 
ATOM     24  C   UNL     1       0.383  -0.448  -0.292  0.00  0.00    +0.005 A 
ATOM     25  C   UNL     1       0.460  -1.826  -0.356  0.00  0.00    +0.024 A 
ATOM     26  C   UNL     1       0.256  -2.585   0.788  0.00  0.00    +0.044 A 
ATOM     27  C   UNL     1      -0.026  -1.956   1.993  0.00  0.00    +0.024 A 
ATOM     28  C   UNL     1      -0.097  -0.578   2.052  0.00  0.00    +0.005 A 
ENDBRANCH   1  26
BRANCH  13  29
ATOM     29  C   UNL     1      -2.990  -5.721   1.936  0.00  0.00    +0.002 A 
ATOM     30  C   UNL     1      -3.398  -5.309   0.682  0.00  0.00    +0.008 A 
ATOM     31  C   UNL     1      -3.686  -3.978   0.450  0.00  0.00    +0.001 A 
ATOM     32  C   UNL     1      -3.568  -3.054   1.472  0.00  0.00    +0.004 A 
ATOM     33  C   UNL     1      -3.161  -3.460   2.728  0.00  0.00    +0.046 A 
ATOM     34  C   UNL     1      -2.877  -4.798   2.965  0.00  0.00    +0.121 A 
BRANCH  34  35
ATOM     35  O   UNL     1      -2.482  -5.201   4.201  0.00  0.00    -0.506 OA
ATOM     36  H   UNL     1      -1.525  -5.174   4.337  0.00  0.00    +0.292 HD
ENDBRANCH  34  35
ENDBRANCH  13  29
TORSDOF 3
