REMARK  Name = ZINC39664970
REMARK  7 active torsions:
REMARK  status: ('A' for Active; 'I' for Inactive)
REMARK    1  A    between atoms: C_1  and  C_2
REMARK    2  A    between atoms: C_2  and  C_4
REMARK    3  A    between atoms: C_2  and  O_29
REMARK    4  A    between atoms: C_4  and  N_5
REMARK    5  A    between atoms: C_6  and  C_8
REMARK    6  A    between atoms: C_19  and  C_21
REMARK    7  A    between atoms: O_29  and  C_30
REMARK                            x       y       z     vdW  Elec       q    Type
REMARK                         _______ _______ _______ _____ _____    ______ ____
ROOT
ATOM      1  C   UNL     1      -2.201  -2.831  -0.347  0.00  0.00    +0.100 C 
ATOM      2  C   UNL     1      -1.657  -3.405   0.980  0.00  0.00    +0.121 C 
ATOM      3  N   UNL     1      -2.864  -3.830   1.727  0.00  0.00    -0.296 N 
ATOM      4  C   UNL     1      -3.750  -4.417   0.693  0.00  0.00    +0.115 C 
ATOM      5  C   UNL     1      -3.573  -3.500  -0.533  0.00  0.00    -0.004 C 
ATOM      6  C   UNL     1      -4.675  -2.445  -0.566  0.00  0.00    -0.010 C 
ATOM      7  C   UNL     1      -6.023  -3.130  -0.809  0.00  0.00    -0.082 C 
ATOM      8  N   UNL     1      -5.980  -3.861  -2.081  0.00  0.00    +0.379 N 
ATOM      9  C   UNL     1      -4.981  -4.934  -2.009  0.00  0.00    -0.082 C 
ATOM     10  C   UNL     1      -3.589  -4.325  -1.817  0.00  0.00    -0.010 C 
ATOM     11  C   UNL     1      -3.103  -3.711   3.048  0.00  0.00    +0.248 C 
ATOM     12  O   UNL     1      -2.309  -3.126   3.759  0.00  0.00    -0.270 OA
ATOM     13  H   UNL     1      -6.888  -4.261  -2.269  0.00  0.00    -0.086 HD
ATOM     14  H   UNL     1      -5.736  -3.225  -2.825  0.00  0.00    -0.086 HD
ENDROOT
BRANCH  11  15
ATOM     15  C   UNL     1      -4.329  -4.291   3.632  0.00  0.00    +0.055 A 
ATOM     16  C   UNL     1      -4.832  -5.501   3.149  0.00  0.00    +0.016 A 
ATOM     17  C   UNL     1      -5.977  -6.037   3.698  0.00  0.00    +0.021 A 
ATOM     18  C   UNL     1      -6.630  -5.378   4.728  0.00  0.00    +0.042 A 
ATOM     19  C   UNL     1      -6.138  -4.178   5.212  0.00  0.00    +0.040 A 
ATOM     20  C   UNL     1      -4.988  -3.634   4.675  0.00  0.00    +0.054 A 
ATOM     21 CL   UNL     1      -4.368  -2.133   5.288  0.00  0.00    -0.083 Cl
ATOM     22 CL   UNL     1      -8.072  -6.060   5.413  0.00  0.00    -0.083 Cl
ENDBRANCH  11  15
BRANCH   1  24
ATOM     23  N   UNL     1      -2.326  -0.579  -1.362  0.00  0.00    -0.312 N 
ATOM     24  C   UNL     1      -2.356  -1.335  -0.247  0.00  0.00    +0.218 C 
ATOM     25  O   UNL     1      -2.508  -0.812   0.836  0.00  0.00    -0.275 OA
ATOM     26  H   UNL     1      -2.205  -0.997  -2.229  0.00  0.00    +0.149 HD
BRANCH  23  27
ATOM     27  C   UNL     1      -2.477   0.875  -1.265  0.00  0.00    +0.148 C 
BRANCH  27  29
ATOM     28  C   UNL     1      -2.564   3.008  -2.564  0.00  0.00    +0.053 C 
ATOM     29  C   UNL     1      -2.406   1.490  -2.665  0.00  0.00    +0.187 C 
BRANCH  29  30
ATOM     30  O   UNL     1      -1.144   1.180  -3.258  0.00  0.00    -0.488 OA
BRANCH  30  31
ATOM     31  C   UNL     1      -1.084   1.180  -4.616  0.00  0.00    +0.121 A 
ATOM     32  C   UNL     1       0.075   0.770  -5.260  0.00  0.00    +0.045 A 
ATOM     33  C   UNL     1       0.133   0.770  -6.640  0.00  0.00    +0.004 A 
ATOM     34  C   UNL     1      -0.962   1.178  -7.380  0.00  0.00    +0.000 A 
ATOM     35  C   UNL     1      -2.117   1.586  -6.740  0.00  0.00    +0.004 A 
ATOM     36  C   UNL     1      -2.183   1.583  -5.360  0.00  0.00    +0.045 A 
ENDBRANCH  30  31
ENDBRANCH  29  30
ENDBRANCH  27  29
ENDBRANCH  23  27
ENDBRANCH   1  24
TORSDOF 6
