REMARK  Name = ZINC17481910
REMARK  6 active torsions:
REMARK  status: ('A' for Active; 'I' for Inactive)
REMARK    1  A    between atoms: C_4  and  O_7
REMARK    2  A    between atoms: O_7  and  C_8
REMARK    3  A    between atoms: C_8  and  C_9
REMARK    4  A    between atoms: C_17  and  C_18
REMARK    5  A    between atoms: N_20  and  C_21
REMARK    6  A    between atoms: C_26  and  C_27
REMARK                            x       y       z     vdW  Elec       q    Type
REMARK                         _______ _______ _______ _____ _____    ______ ____
ROOT
ATOM      1  C   UNL     1       4.936  -2.608  -0.061  0.00  0.00    +0.048 A 
ATOM      2  C   UNL     1       5.749  -2.906  -1.240  0.00  0.00    +0.027 A 
ATOM      3  C   UNL     1       5.539  -2.808  -2.617  0.00  0.00    +0.012 A 
ATOM      4  C   UNL     1       6.531  -3.178  -3.481  0.00  0.00    +0.001 A 
ATOM      5  C   UNL     1       7.744  -3.650  -2.999  0.00  0.00    +0.004 A 
ATOM      6  C   UNL     1       7.971  -3.754  -1.643  0.00  0.00    +0.047 A 
ATOM      7  C   UNL     1       6.977  -3.383  -0.745  0.00  0.00    +0.136 A 
ATOM      8  O   UNL     1       6.906  -3.373   0.600  0.00  0.00    -0.450 OA
ATOM      9  C   UNL     1       5.707  -2.913   1.015  0.00  0.00    +0.197 A 
ENDROOT
BRANCH   9  10
ATOM     10  C   UNL     1       5.297  -2.765   2.418  0.00  0.00    +0.284 C 
ATOM     11  O   UNL     1       4.189  -2.342   2.687  0.00  0.00    -0.266 OA
ATOM     12  N   UNL     1       6.149  -3.099   3.408  0.00  0.00    -0.278 N 
ATOM     13  H   UNL     1       7.001  -3.512   3.196  0.00  0.00    +0.155 HD
BRANCH  12  14
ATOM     14  C   UNL     1       5.806  -2.853   4.734  0.00  0.00    +0.046 A 
ATOM     15  C   UNL     1       4.904  -1.844   5.045  0.00  0.00    +0.024 A 
ATOM     16  C   UNL     1       4.566  -1.601   6.361  0.00  0.00    +0.002 A 
ATOM     17  C   UNL     1       5.122  -2.358   7.379  0.00  0.00    +0.001 A 
ATOM     18  C   UNL     1       6.018  -3.364   7.089  0.00  0.00    +0.015 A 
ATOM     19  C   UNL     1       6.366  -3.626   5.762  0.00  0.00    +0.058 A 
BRANCH  19  20
ATOM     20  C   UNL     1       7.321  -4.704   5.444  0.00  0.00    +0.243 C 
ATOM     21  O   UNL     1       7.694  -4.868   4.298  0.00  0.00    -0.270 OA
ATOM     22  N   UNL     1       7.779  -5.509   6.423  0.00  0.00    -0.325 N 
ATOM     23  H   UNL     1       7.481  -5.378   7.337  0.00  0.00    +0.145 HD
ATOM     24  H   UNL     1       8.407  -6.218   6.214  0.00  0.00    +0.145 HD
ENDBRANCH  19  20
ENDBRANCH  12  14
ENDBRANCH   9  10
BRANCH   1  25
ATOM     25  C   UNL     1       3.529  -2.068  -0.044  0.00  0.00    +0.269 C 
BRANCH  25  26
ATOM     26  O   UNL     1       3.568  -0.640  -0.029  0.00  0.00    -0.487 OA
BRANCH  26  30
ATOM     27  C   UNL     1      -0.056   1.331   0.021  0.00  0.00    +0.000 A 
ATOM     28  C   UNL     1       1.123   2.054   0.020  0.00  0.00    +0.004 A 
ATOM     29  C   UNL     1       2.337   1.396   0.003  0.00  0.00    +0.045 A 
ATOM     30  C   UNL     1       2.374   0.010  -0.012  0.00  0.00    +0.121 A 
ATOM     31  C   UNL     1       1.190  -0.713  -0.011  0.00  0.00    +0.045 A 
ATOM     32  C   UNL     1      -0.022  -0.051   0.005  0.00  0.00    +0.004 A 
ENDBRANCH  26  30
ENDBRANCH  25  26
ENDBRANCH   1  25
TORSDOF 6
