REMARK  Name = ZINC42969752
REMARK  9 active torsions:
REMARK  status: ('A' for Active; 'I' for Inactive)
REMARK    1  A    between atoms: C_1  and  C_2
REMARK    2  A    between atoms: C_2  and  C_3
REMARK    3  A    between atoms: C_3  and  C_4
REMARK    4  A    between atoms: C_9  and  S_11
REMARK    5  A    between atoms: S_11  and  C_12
REMARK    6  A    between atoms: C_12  and  C_14
REMARK    7  A    between atoms: C_12  and  C_16
REMARK    8  A    between atoms: C_14  and  N_15
REMARK    9  A    between atoms: C_20  and  C_22
REMARK                            x       y       z     vdW  Elec       q    Type
REMARK                         _______ _______ _______ _____ _____    ______ ____
ROOT
ATOM      1  C   UNL     1       1.668  -6.912   0.692  0.00  0.00    +0.098 C 
ENDROOT
BRANCH   1   2
ATOM      2  C   UNL     1       1.917  -7.847   1.847  0.00  0.00    -0.033 A 
ATOM      3  C   UNL     1       3.022  -7.664   2.658  0.00  0.00    +0.005 A 
ATOM      4  C   UNL     1       3.250  -8.521   3.718  0.00  0.00    +0.001 A 
ATOM      5  C   UNL     1       2.373  -9.560   3.968  0.00  0.00    +0.003 A 
ATOM      6  C   UNL     1       1.268  -9.742   3.159  0.00  0.00    -0.050 A 
ATOM      7  C   UNL     1       1.037  -8.882   2.101  0.00  0.00    +0.008 A 
ATOM      8  C   UNL     1       0.312 -10.875   3.431  0.00  0.00    +0.044 C 
ENDBRANCH   1   2
BRANCH   1   9
ATOM      9  S   UNL     1       1.489  -5.217   1.312  0.00  0.00    -0.077 S 
BRANCH   9  15
ATOM     10  C   UNL     1      -1.612  -4.117   3.441  0.00  0.00    +0.049 A 
ATOM     11  C   UNL     1      -2.330  -5.290   3.583  0.00  0.00    +0.095 A 
ATOM     12  C   UNL     1      -1.829  -6.451   2.996  0.00  0.00    +0.274 A 
ATOM     13  O   UNL     1      -2.501  -7.623   3.110  0.00  0.00    -0.266 OA
ATOM     14  N   UNL     1      -0.685  -6.394   2.325  0.00  0.00    -0.183 NA
ATOM     15  C   UNL     1      -0.026  -5.250   2.212  0.00  0.00    +0.192 A 
ATOM     16  N   UNL     1      -0.480  -4.129   2.753  0.00  0.00    -0.227 NA
BRANCH  10  17
ATOM     17  C   UNL     1      -2.115  -2.837   4.058  0.00  0.00    +0.055 C 
BRANCH  17  19
ATOM     18  C   UNL     1      -1.539  -0.943   5.582  0.00  0.00    +0.004 C 
ATOM     19  C   UNL     1      -1.028  -2.242   4.956  0.00  0.00    +0.003 C 
ENDBRANCH  17  19
ENDBRANCH  10  17
ENDBRANCH   9  15
ENDBRANCH   1   9
BRANCH   1  20
ATOM     20  C   UNL     1       2.847  -6.978  -0.280  0.00  0.00    +0.097 C 
BRANCH  20  21
ATOM     21  N   UNL     1       2.553  -6.159  -1.464  0.00  0.00    -0.329 NA
ATOM     22  H   UNL     1       2.497  -5.181  -1.222  0.00  0.00    +0.118 HD
ATOM     23  H   UNL     1       3.237  -6.313  -2.190  0.00  0.00    +0.118 HD
ENDBRANCH  20  21
ENDBRANCH   1  20
TORSDOF 7
