REMARK  Name = ZINC00190676
REMARK  1 active torsions:
REMARK  status: ('A' for Active; 'I' for Inactive)
REMARK    1  A    between atoms: C_7  and  C_11
REMARK                            x       y       z     vdW  Elec       q    Type
REMARK                         _______ _______ _______ _____ _____    ______ ____
ROOT
ATOM      1  C   UNL     1      -0.018   1.455   0.010  0.00  0.00    +0.192 C 
ATOM      2  N   UNL     1       1.349   2.009   0.000  0.00  0.00    -0.316 N 
ATOM      3  C   UNL     1       2.276   1.344  -0.761  0.00  0.00    +0.080 A 
ATOM      4  C   UNL     1       2.151  -0.010  -1.106  0.00  0.00    +0.068 A 
ATOM      5  C   UNL     1       3.232  -0.563  -1.906  0.00  0.00    -0.023 A 
ATOM      6  C   UNL     1       4.222   0.299  -2.226  0.00  0.00    -0.005 A 
ATOM      7  S   UNL     1       3.748   1.837  -1.482  0.00  0.00    -0.078 S 
ATOM      8  C   UNL     1       5.449   0.008  -3.034  0.00  0.00    +0.043 C 
ATOM      9  C   UNL     1       5.611  -1.516  -3.138  0.00  0.00    +0.005 C 
ATOM     10  C   UNL     1       4.265  -2.128  -3.534  0.00  0.00    +0.005 C 
ATOM     11  C   UNL     1       3.278  -2.014  -2.371  0.00  0.00    +0.037 C 
ATOM     12  C   UNL     1       0.953  -0.733  -0.619  0.00  0.00    +0.248 C 
ATOM     13  O   UNL     1       0.831  -1.934  -0.773  0.00  0.00    -0.270 OA
ATOM     14  N   UNL     1       0.002  -0.004   0.002  0.00  0.00    -0.289 N 
ATOM     15  H   UNL     1       1.580   2.803   0.506  0.00  0.00    +0.149 HD
ATOM     16  H   UNL     1      -0.706  -0.475   0.468  0.00  0.00    +0.151 HD
ENDROOT
BRANCH   1  23
ATOM     17  C   UNL     1      -3.711  -0.177  -2.372  0.00  0.00    +0.001 A 
ATOM     18  C   UNL     1      -4.053   0.623  -3.454  0.00  0.00    +0.002 A 
ATOM     19  C   UNL     1      -3.336   1.764  -3.738  0.00  0.00    +0.026 A 
ATOM     20  C   UNL     1      -2.258   2.121  -2.935  0.00  0.00    +0.047 A 
ATOM     21  C   UNL     1      -1.915   1.307  -1.840  0.00  0.00    +0.006 A 
ATOM     22  C   UNL     1      -2.655   0.155  -1.570  0.00  0.00    +0.010 A 
ATOM     23  C   UNL     1      -0.758   1.946  -1.208  0.00  0.00    +0.016 A 
ATOM     24  C   UNL     1      -0.485   3.053  -1.915  0.00  0.00    +0.090 A 
ATOM     25  N   UNL     1      -1.367   3.171  -2.955  0.00  0.00    -0.360 N 
ATOM     26  H   UNL     1      -1.368   3.890  -3.606  0.00  0.00    +0.165 HD
ENDBRANCH   1  23
TORSDOF 1
