REMARK  Name = ZINC04598888
REMARK  4 active torsions:
REMARK  status: ('A' for Active; 'I' for Inactive)
REMARK    1  A    between atoms: C_4  and  C_7
REMARK    2  A    between atoms: C_7  and  N_8
REMARK    3  A    between atoms: C_9  and  N_65
REMARK    4  A    between atoms: C_19  and  N_65
REMARK                            x       y       z     vdW  Elec       q    Type
REMARK                         _______ _______ _______ _____ _____    ______ ____
ROOT
ATOM      1  N   UNL     1       0.002  -0.004   0.002  0.00  0.00    -0.303 N 
ATOM      2  C   UNL     1      -0.018   1.463   0.010  0.00  0.00    +0.052 C 
ATOM      3  C   UNL     1       1.424   1.905  -0.001  0.00  0.00    -0.032 A 
ATOM      4  C   UNL     1       2.032   3.139  -0.001  0.00  0.00    +0.004 A 
ATOM      5  C   UNL     1       3.414   3.230  -0.014  0.00  0.00    +0.000 A 
ATOM      6  C   UNL     1       4.186   2.082  -0.028  0.00  0.00    +0.001 A 
ATOM      7  C   UNL     1       3.587   0.839  -0.028  0.00  0.00    +0.013 A 
ATOM      8  C   UNL     1       2.194   0.740  -0.015  0.00  0.00    +0.040 A 
ATOM      9  C   UNL     1       1.281  -0.419  -0.012  0.00  0.00    +0.246 C 
ATOM     10  O   UNL     1       1.634  -1.582  -0.022  0.00  0.00    -0.270 OA
ENDROOT
BRANCH   2  11
ATOM     11  N   UNL     1      -0.682   1.952   1.233  0.00  0.00    +0.396 N 
ATOM     12  H   UNL     1      -0.126   2.715   1.638  0.00  0.00    -0.082 HD
ATOM     13  H   UNL     1      -0.753   1.183   1.910  0.00  0.00    -0.082 HD
BRANCH  11  14
ATOM     14  C   UNL     1      -2.034   2.450   0.918  0.00  0.00    -0.069 C 
ATOM     15  C   UNL     1      -1.948   3.906   0.457  0.00  0.00    -0.016 C 
ATOM     16  C   UNL     1      -2.350   4.000  -1.016  0.00  0.00    -0.002 C 
ATOM     17  C   UNL     1      -3.453   5.048  -1.177  0.00  0.00    -0.000 C 
ATOM     18  C   UNL     1      -4.642   4.426  -1.914  0.00  0.00    -0.000 C 
ATOM     19  C   UNL     1      -5.918   4.644  -1.098  0.00  0.00    -0.000 C 
ATOM     20  C   UNL     1      -6.618   3.302  -0.878  0.00  0.00    -0.000 C 
ATOM     21  C   UNL     1      -6.877   3.100   0.616  0.00  0.00    -0.000 C 
ATOM     22  C   UNL     1      -6.303   1.752   1.055  0.00  0.00    -0.000 C 
ATOM     23  C   UNL     1      -5.371   1.959   2.251  0.00  0.00    -0.000 C 
ATOM     24  C   UNL     1      -4.010   1.326   1.953  0.00  0.00    -0.002 C 
ATOM     25  C   UNL     1      -2.906   2.362   2.172  0.00  0.00    -0.016 C 
ENDBRANCH  11  14
ENDBRANCH   2  11
BRANCH   1  26
ATOM     26  C   UNL     1      -1.177  -0.874   0.009  0.00  0.00    +0.141 C 
BRANCH  26  30
ATOM     27  C   UNL     1      -2.363  -1.697  -4.011  0.00  0.00    +0.000 A 
ATOM     28  C   UNL     1      -1.461  -2.527  -3.373  0.00  0.00    +0.000 A 
ATOM     29  C   UNL     1      -1.077  -2.261  -2.072  0.00  0.00    +0.005 A 
ATOM     30  C   UNL     1      -1.595  -1.164  -1.409  0.00  0.00    -0.030 A 
ATOM     31  C   UNL     1      -2.502  -0.337  -2.046  0.00  0.00    +0.005 A 
ATOM     32  C   UNL     1      -2.882  -0.600  -3.348  0.00  0.00    +0.000 A 
ENDBRANCH  26  30
ENDBRANCH   1  26
TORSDOF 4
