REMARK  Name = ZINC39694189
REMARK  6 active torsions:
REMARK  status: ('A' for Active; 'I' for Inactive)
REMARK    1  A    between atoms: N_4  and  C_6
REMARK    2  A    between atoms: C_10  and  C_12
REMARK    3  A    between atoms: C_12  and  N_13
REMARK    4  A    between atoms: C_14  and  C_16
REMARK    5  A    between atoms: C_27  and  C_29
REMARK    6  A    between atoms: C_32  and  C_34
REMARK                            x       y       z     vdW  Elec       q    Type
REMARK                         _______ _______ _______ _____ _____    ______ ____
ROOT
ATOM      1  C   UNL     1      -1.270  -6.970   3.002  0.00  0.00    +0.100 C 
ATOM      2  C   UNL     1      -1.821  -5.752   3.776  0.00  0.00    +0.121 C 
ATOM      3  N   UNL     1      -3.294  -5.875   3.668  0.00  0.00    -0.294 N 
ATOM      4  C   UNL     1      -3.554  -7.327   3.807  0.00  0.00    +0.115 C 
ATOM      5  C   UNL     1      -2.409  -8.003   3.027  0.00  0.00    -0.004 C 
ATOM      6  C   UNL     1      -1.956  -9.271   3.745  0.00  0.00    -0.010 C 
ATOM      7  C   UNL     1      -3.085 -10.305   3.707  0.00  0.00    -0.082 C 
ATOM      8  N   UNL     1      -3.429 -10.605   2.312  0.00  0.00    +0.379 N 
ATOM      9  C   UNL     1      -3.951  -9.400   1.655  0.00  0.00    -0.082 C 
ATOM     10  C   UNL     1      -2.859  -8.328   1.606  0.00  0.00    -0.010 C 
ATOM     11  C   UNL     1      -4.193  -4.888   3.484  0.00  0.00    +0.282 C 
ATOM     12  O   UNL     1      -5.380  -5.151   3.415  0.00  0.00    -0.267 OA
ATOM     13  H   UNL     1      -2.604 -10.921   1.824  0.00  0.00    -0.086 HD
ATOM     14  H   UNL     1      -4.130 -11.330   2.288  0.00  0.00    -0.086 HD
ENDROOT
BRANCH  11  15
ATOM     15  C   UNL     1      -3.743  -3.499   3.367  0.00  0.00    +0.190 A 
ATOM     16  C   UNL     1      -4.553  -2.399   3.184  0.00  0.00    +0.055 A 
ATOM     17  C   UNL     1      -3.711  -1.284   3.128  0.00  0.00    +0.050 A 
ATOM     18  C   UNL     1      -2.432  -1.738   3.277  0.00  0.00    +0.136 A 
ATOM     19  O   UNL     1      -2.464  -3.073   3.426  0.00  0.00    -0.450 OA
BRANCH  18  20
ATOM     20  C   UNL     1      -1.216  -0.900   3.280  0.00  0.00    +0.017 A 
ATOM     21  C   UNL     1      -1.318   0.484   3.126  0.00  0.00    +0.014 A 
ATOM     22  C   UNL     1      -0.179   1.262   3.130  0.00  0.00    +0.039 A 
ATOM     23  C   UNL     1       1.065   0.672   3.286  0.00  0.00    +0.123 A 
ATOM     24  C   UNL     1       1.173  -0.702   3.439  0.00  0.00    +0.039 A 
ATOM     25  C   UNL     1       0.040  -1.488   3.442  0.00  0.00    +0.014 A 
ATOM     26  F   UNL     1       2.178   1.438   3.289  0.00  0.00    -0.205 F 
ENDBRANCH  18  20
ENDBRANCH  11  15
BRANCH   1  28
ATOM     27  N   UNL     1       0.025  -7.240   0.911  0.00  0.00    -0.311 N 
ATOM     28  C   UNL     1      -0.943  -6.585   1.582  0.00  0.00    +0.218 C 
ATOM     29  O   UNL     1      -1.550  -5.684   1.043  0.00  0.00    -0.275 OA
ATOM     30  H   UNL     1       0.511  -7.961   1.343  0.00  0.00    +0.149 HD
BRANCH  27  31
ATOM     31  C   UNL     1       0.343  -6.866  -0.469  0.00  0.00    +0.139 C 
BRANCH  31  36
ATOM     32  C   UNL     1       3.790  -8.173  -1.299  0.00  0.00    +0.046 A 
ATOM     33  C   UNL     1       3.484  -9.367  -1.939  0.00  0.00    +0.026 A 
ATOM     34  C   UNL     1       2.165  -9.745  -2.098  0.00  0.00    +0.002 A 
ATOM     35  C   UNL     1       1.150  -8.935  -1.623  0.00  0.00    +0.005 A 
ATOM     36  C   UNL     1       1.452  -7.745  -0.986  0.00  0.00    -0.028 A 
ATOM     37  C   UNL     1       2.769  -7.365  -0.817  0.00  0.00    +0.031 A 
BRANCH  32  41
ATOM     38  C   UNL     1       6.906  -6.628  -0.562  0.00  0.00    +0.019 A 
ATOM     39  C   UNL     1       7.325  -7.801  -1.222  0.00  0.00    +0.019 A 
ATOM     40  C   UNL     1       6.218  -8.491  -1.562  0.00  0.00    +0.091 A 
ATOM     41  N   UNL     1       5.128  -7.788  -1.135  0.00  0.00    -0.323 N 
ATOM     42  C   UNL     1       5.558  -6.645  -0.522  0.00  0.00    +0.091 A 
ENDBRANCH  32  41
ENDBRANCH  31  36
ENDBRANCH  27  31
ENDBRANCH   1  28
TORSDOF 6
