REMARK  Name = ZINC35720772
REMARK  5 active torsions:
REMARK  status: ('A' for Active; 'I' for Inactive)
REMARK    1  A    between atoms: C_1  and  C_2
REMARK    2  A    between atoms: C_7  and  N_10
REMARK    3  A    between atoms: C_11  and  C_13
REMARK    4  A    between atoms: C_13  and  C_14
REMARK    5  A    between atoms: C_14  and  C_15
REMARK                            x       y       z     vdW  Elec       q    Type
REMARK                         _______ _______ _______ _____ _____    ______ ____
ROOT
ATOM      1  N   UNL     1       1.471  -2.526   2.420  0.00  0.00    -0.312 N 
ATOM      2  C   UNL     1       1.207  -3.754   2.907  0.00  0.00    +0.214 C 
ATOM      3  O   UNL     1       0.382  -4.458   2.364  0.00  0.00    -0.276 OA
ATOM      4  H   UNL     1       2.131  -1.963   2.855  0.00  0.00    +0.149 HD
ENDROOT
BRANCH   1  10
ATOM      5  C   UNL     1      -0.019   1.526   0.010  0.00  0.00    +0.007 C 
ATOM      6  C   UNL     1       0.002  -0.004   0.002  0.00  0.00    -0.012 C 
ATOM      7  C   UNL     1       0.718  -0.497  -1.257  0.00  0.00    +0.003 C 
ATOM      8  C   UNL     1       0.739  -2.027  -1.265  0.00  0.00    +0.002 C 
ATOM      9  C   UNL     1       1.479  -2.534  -0.026  0.00  0.00    +0.022 C 
ATOM     10  C   UNL     1       0.763  -2.041   1.233  0.00  0.00    +0.073 C 
ATOM     11  C   UNL     1       0.742  -0.511   1.242  0.00  0.00    +0.025 C 
ENDBRANCH   1  10
BRANCH   2  12
ATOM     12  C   UNL     1       1.936  -4.254   4.128  0.00  0.00    +0.107 C 
BRANCH  12  13
ATOM     13  C   UNL     1       1.453  -5.665   4.469  0.00  0.00    +0.134 C 
BRANCH  13  14
ATOM     14  C   UNL     1       2.182  -6.164   5.690  0.00  0.00    +0.356 C 
ATOM     15  O   UNL     1       3.010  -5.457   6.237  0.00  0.00    -0.246 OA
ATOM     16  O   UNL     1       1.942  -7.275   6.131  0.00  0.00    -0.246 OA
ENDBRANCH  13  14
ENDBRANCH  12  13
ENDBRANCH   2  12
TORSDOF 4
