REMARK  Name = ZINC08757750
REMARK  10 active torsions:
REMARK  status: ('A' for Active; 'I' for Inactive)
REMARK    1  A    between atoms: C_1  and  C_2
REMARK    2  A    between atoms: C_2  and  N_3
REMARK    3  A    between atoms: C_5  and  C_12
REMARK    4  A    between atoms: C_13  and  C_14
REMARK    5  A    between atoms: C_13  and  N_30
REMARK    6  A    between atoms: N_16  and  C_17
REMARK    7  A    between atoms: C_17  and  C_18
REMARK    8  A    between atoms: C_18  and  C_19
REMARK    9  A    between atoms: C_26  and  C_29
REMARK   10  A    between atoms: C_31  and  C_33
REMARK                            x       y       z     vdW  Elec       q    Type
REMARK                         _______ _______ _______ _____ _____    ______ ____
ROOT
ATOM      1  C   UNL     1      -3.069   4.841  -0.079  0.00  0.00    +0.038 C 
ATOM      2  C   UNL     1      -4.369   5.061   0.248  0.00  0.00    +0.097 C 
ENDROOT
BRANCH   1   5
ATOM      3  N   UNL     1      -2.562   1.285  -0.714  0.00  0.00    -0.346 N 
ATOM      4  C   UNL     1      -3.361   2.371  -0.544  0.00  0.00    +0.094 A 
ATOM      5  C   UNL     1      -2.593   3.475  -0.311  0.00  0.00    +0.002 A 
ATOM      6  C   UNL     1      -1.189   3.025  -0.357  0.00  0.00    +0.007 A 
ATOM      7  C   UNL     1      -1.234   1.645  -0.610  0.00  0.00    +0.050 A 
ATOM      8  C   UNL     1      -0.045   0.929  -0.703  0.00  0.00    +0.026 A 
ATOM      9  C   UNL     1       1.162   1.579  -0.557  0.00  0.00    +0.002 A 
ATOM     10  C   UNL     1       1.204   2.944  -0.312  0.00  0.00    +0.001 A 
ATOM     11  C   UNL     1       0.037   3.669  -0.211  0.00  0.00    +0.010 A 
BRANCH   3  13
ATOM     12  C   UNL     1      -3.046  -0.870   0.336  0.00  0.00    +0.027 C 
ATOM     13  C   UNL     1      -3.042  -0.075  -0.971  0.00  0.00    +0.118 C 
ENDBRANCH   3  13
ENDBRANCH   1   5
BRANCH   2  14
ATOM     14  C   UNL     1      -4.870   6.430   0.372  0.00  0.00    +0.258 C 
ATOM     15  O   UNL     1      -4.123   7.372   0.183  0.00  0.00    -0.269 OA
ATOM     16  N   UNL     1      -6.160   6.648   0.697  0.00  0.00    -0.310 N 
ATOM     17  H   UNL     1      -6.756   5.898   0.847  0.00  0.00    +0.149 HD
BRANCH  16  18
ATOM     18  C   UNL     1      -6.663   8.019   0.821  0.00  0.00    +0.109 C 
BRANCH  18  19
ATOM     19  C   UNL     1      -8.146   7.986   1.194  0.00  0.00    +0.056 C 
BRANCH  19  20
ATOM     20  C   UNL     1      -8.663   9.396   1.323  0.00  0.00    -0.021 A 
ATOM     21  C   UNL     1      -8.759  10.111   2.455  0.00  0.00    +0.087 A 
ATOM     22  N   UNL     1      -9.273  11.350   2.182  0.00  0.00    -0.360 N 
ATOM     23  H   UNL     1      -9.435  12.043   2.840  0.00  0.00    +0.165 HD
ATOM     24  C   UNL     1      -9.526  11.465   0.833  0.00  0.00    +0.047 A 
ATOM     25  C   UNL     1      -9.149  10.248   0.235  0.00  0.00    +0.003 A 
ATOM     26  C   UNL     1      -9.302  10.072  -1.141  0.00  0.00    +0.013 A 
ATOM     27  C   UNL     1      -9.805  11.089  -1.903  0.00  0.00    -0.050 A 
ATOM     28  C   UNL     1     -10.173  12.293  -1.319  0.00  0.00    +0.005 A 
ATOM     29  C   UNL     1     -10.036  12.486   0.038  0.00  0.00    +0.026 A 
ATOM     30  C   UNL     1      -9.963  10.901  -3.390  0.00  0.00    +0.044 C 
ENDBRANCH  19  20
ENDBRANCH  18  19
ENDBRANCH  16  18
ENDBRANCH   2  14
BRANCH   2  31
ATOM     31  N   UNL     1      -5.230   3.976   0.466  0.00  0.00    -0.277 N 
ATOM     32  C   UNL     1      -6.342   3.837  -0.283  0.00  0.00    +0.248 C 
ATOM     33  O   UNL     1      -6.555   4.603  -1.203  0.00  0.00    -0.270 OA
ATOM     34  H   UNL     1      -5.025   3.325   1.155  0.00  0.00    +0.155 HD
BRANCH  32  35
ATOM     35  C   UNL     1      -7.303   2.755   0.015  0.00  0.00    +0.037 A 
ATOM     36  C   UNL     1      -7.120   1.942   1.135  0.00  0.00    +0.013 A 
ATOM     37  C   UNL     1      -8.023   0.937   1.410  0.00  0.00    +0.001 A 
ATOM     38  C   UNL     1      -9.104   0.726   0.572  0.00  0.00    +0.000 A 
ATOM     39  C   UNL     1      -9.289   1.523  -0.543  0.00  0.00    +0.001 A 
ATOM     40  C   UNL     1      -8.396   2.536  -0.826  0.00  0.00    +0.013 A 
ENDBRANCH  32  35
ENDBRANCH   2  31
TORSDOF 8
