REMARK  Name = ZINC12878857
REMARK  7 active torsions:
REMARK  status: ('A' for Active; 'I' for Inactive)
REMARK    1  A    between atoms: C_1  and  O_2
REMARK    2  A    between atoms: O_2  and  C_3
REMARK    3  A    between atoms: C_8  and  C_9
REMARK    4  A    between atoms: C_9  and  N_10
REMARK    5  A    between atoms: C_15  and  C_31
REMARK    6  A    between atoms: C_31  and  C_32
REMARK    7  A    between atoms: C_35  and  O_38
REMARK                            x       y       z     vdW  Elec       q    Type
REMARK                         _______ _______ _______ _____ _____    ______ ____
ROOT
ATOM      1  N   UNL     1       1.237   1.970   0.001  0.00  0.00    -0.237 N 
ATOM      2  C   UNL     1      -0.018   1.508   0.010  0.00  0.00    +0.224 C 
ATOM      3  O   UNL     1      -1.017   2.195   0.019  0.00  0.00    -0.275 OA
ATOM      4  C   UNL     1       0.002  -0.004   0.002  0.00  0.00    +0.073 C 
ATOM      5  C   UNL     1      -0.516  -0.525   1.360  0.00  0.00    -0.053 C 
ATOM      6  C   UNL     1       1.777  -1.048   1.317  0.00  0.00    +0.050 C 
ATOM      7  C   UNL     1       1.519  -0.341  -0.019  0.00  0.00    +0.088 C 
ATOM      8  C   UNL     1       2.179   1.019  -0.014  0.00  0.00    +0.225 C 
ATOM      9  O   UNL     1       3.374   1.218  -0.022  0.00  0.00    -0.275 OA
ATOM     10  C   UNL     1       2.800  -2.139   1.176  0.00  0.00    -0.028 A 
ATOM     11  C   UNL     1       2.869  -3.280   0.409  0.00  0.00    +0.004 A 
ATOM     12  C   UNL     1       3.971  -4.111   0.502  0.00  0.00    +0.000 A 
ATOM     13  C   UNL     1       5.003  -3.792   1.366  0.00  0.00    +0.002 A 
ATOM     14  C   UNL     1       4.939  -2.649   2.135  0.00  0.00    +0.023 A 
ATOM     15  C   UNL     1       3.833  -1.807   2.048  0.00  0.00    +0.036 A 
ATOM     16  N   UNL     1       3.539  -0.614   2.712  0.00  0.00    -0.286 N 
ATOM     17  C   UNL     1       2.350  -0.103   2.338  0.00  0.00    +0.211 C 
ATOM     18  O   UNL     1       1.841   0.919   2.745  0.00  0.00    -0.277 OA
ATOM     19  H   UNL     1       4.124  -0.201   3.367  0.00  0.00    +0.155 HD
ATOM     20  N   UNL     1       0.479  -1.552   1.736  0.00  0.00    +0.394 N 
ATOM     21  H   UNL     1       0.272  -2.437   1.258  0.00  0.00    -0.083 HD
ATOM     22  H   UNL     1       0.467  -1.701   2.752  0.00  0.00    -0.083 HD
ENDROOT
BRANCH   1  23
ATOM     23  C   UNL     1       1.555   3.400   0.005  0.00  0.00    +0.155 C 
BRANCH  23  29
ATOM     24  C   UNL     1       2.848   3.655   2.139  0.00  0.00    +0.125 A 
ATOM     25  C   UNL     1       2.958   4.101   3.448  0.00  0.00    +0.046 A 
ATOM     26  C   UNL     1       1.904   4.770   4.040  0.00  0.00    +0.004 A 
ATOM     27  C   UNL     1       0.740   4.995   3.329  0.00  0.00    +0.001 A 
ATOM     28  C   UNL     1       0.629   4.556   2.023  0.00  0.00    +0.009 A 
ATOM     29  C   UNL     1       1.679   3.882   1.428  0.00  0.00    +0.012 A 
BRANCH  24  31
ATOM     30  C   UNL     1       5.056   2.800   2.346  0.00  0.00    +0.277 C 
ATOM     31  O   UNL     1       3.883   2.998   1.554  0.00  0.00    -0.495 OA
ENDBRANCH  24  31
ENDBRANCH  23  29
ENDBRANCH   1  23
BRANCH   5  32
ATOM     32  C   UNL     1      -1.918  -1.118   1.203  0.00  0.00    +0.020 C 
BRANCH  32  33
ATOM     33  C   UNL     1      -2.453  -1.507   2.557  0.00  0.00    -0.049 A 
ATOM     34  C   UNL     1      -2.227  -2.780   3.048  0.00  0.00    +0.007 A 
ATOM     35  C   UNL     1      -2.712  -3.138   4.291  0.00  0.00    +0.045 A 
ATOM     36  C   UNL     1      -3.435  -2.222   5.042  0.00  0.00    +0.117 A 
ATOM     37  C   UNL     1      -3.665  -0.948   4.544  0.00  0.00    +0.045 A 
ATOM     38  C   UNL     1      -3.174  -0.594   3.303  0.00  0.00    +0.007 A 
BRANCH  36  39
ATOM     39  O   UNL     1      -3.918  -2.574   6.263  0.00  0.00    -0.507 OA
ATOM     40  H   UNL     1      -4.805  -2.958   6.239  0.00  0.00    +0.292 HD
ENDBRANCH  36  39
ENDBRANCH  32  33
ENDBRANCH   5  32
TORSDOF 6
