REMARK  Name = ZINC35099173
REMARK  12 active torsions:
REMARK  status: ('A' for Active; 'I' for Inactive)
REMARK    1  A    between atoms: C_1  and  N_2
REMARK    2  A    between atoms: N_2  and  C_3
REMARK    3  A    between atoms: N_2  and  C_10
REMARK    4  A    between atoms: C_3  and  C_4
REMARK    5  A    between atoms: C_10  and  C_11
REMARK    6  A    between atoms: C_11  and  C_13
REMARK    7  A    between atoms: C_11  and  O_38
REMARK    8  A    between atoms: C_13  and  N_14
REMARK    9  A    between atoms: C_22  and  C_23
REMARK   10  A    between atoms: C_23  and  C_25
REMARK   11  A    between atoms: C_23  and  S_31
REMARK   12  A    between atoms: S_31  and  C_32
REMARK                            x       y       z     vdW  Elec       q    Type
REMARK                         _______ _______ _______ _____ _____    ______ ____
ROOT
ATOM      1  N   UNL     1       4.295  -0.065   2.348  0.00  0.00    -0.324 N 
ATOM      2  C   UNL     1       5.389  -0.680   1.773  0.00  0.00    +0.069 A 
ATOM      3  C   UNL     1       5.577  -1.864   1.074  0.00  0.00    +0.028 A 
ATOM      4  C   UNL     1       6.835  -2.198   0.621  0.00  0.00    +0.002 A 
ATOM      5  C   UNL     1       7.914  -1.358   0.859  0.00  0.00    +0.002 A 
ATOM      6  C   UNL     1       7.749  -0.189   1.545  0.00  0.00    +0.030 A 
ATOM      7  C   UNL     1       6.482   0.170   2.014  0.00  0.00    +0.089 A 
ATOM      8  N   UNL     1       6.008   1.237   2.708  0.00  0.00    -0.231 NA
ATOM      9  C   UNL     1       4.728   1.101   2.898  0.00  0.00    +0.129 A 
ENDROOT
BRANCH   1  10
ATOM     10  C   UNL     1       2.921  -0.572   2.359  0.00  0.00    +0.153 C 
BRANCH  10  11
ATOM     11  C   UNL     1       2.180  -0.066   1.119  0.00  0.00    +0.118 C 
BRANCH  11  12
ATOM     12  O   UNL     1       2.780  -0.621  -0.053  0.00  0.00    -0.392 OA
ATOM     13  H   UNL     1       2.760  -1.587  -0.085  0.00  0.00    +0.210 HD
ENDBRANCH  11  12
BRANCH  11  14
ATOM     14  C   UNL     1       0.713  -0.491   1.192  0.00  0.00    -0.045 C 
BRANCH  14  16
ATOM     15  C   UNL     1      -0.018   1.465   0.010  0.00  0.00    -0.096 C 
ATOM     16  N   UNL     1       0.002  -0.004   0.002  0.00  0.00    +0.382 N 
ATOM     17  H   UNL     1       0.474  -0.330  -0.828  0.00  0.00    -0.082 HD
BRANCH  16  18
ATOM     18  C   UNL     1      -1.376  -0.512   0.012  0.00  0.00    -0.043 C 
BRANCH  18  19
ATOM     19  C   UNL     1      -2.067  -0.116  -1.267  0.00  0.00    -0.064 A 
ATOM     20  C   UNL     1      -2.750   1.083  -1.340  0.00  0.00    +0.002 A 
ATOM     21  C   UNL     1      -3.385   1.447  -2.513  0.00  0.00    +0.000 A 
ATOM     22  C   UNL     1      -3.335   0.611  -3.613  0.00  0.00    +0.000 A 
ATOM     23  C   UNL     1      -2.652  -0.588  -3.540  0.00  0.00    +0.000 A 
ATOM     24  C   UNL     1      -2.014  -0.950  -2.368  0.00  0.00    +0.002 A 
ENDBRANCH  18  19
ENDBRANCH  16  18
ENDBRANCH  14  16
ENDBRANCH  11  14
ENDBRANCH  10  11
ENDBRANCH   1  10
BRANCH   9  25
ATOM     25  C   UNL     1       3.854   2.090   3.625  0.00  0.00    +0.147 C 
BRANCH  25  26
ATOM     26  C   UNL     1       4.102   1.986   5.108  0.00  0.00    -0.027 A 
ATOM     27  C   UNL     1       5.365   2.227   5.615  0.00  0.00    +0.005 A 
ATOM     28  C   UNL     1       5.593   2.132   6.976  0.00  0.00    +0.000 A 
ATOM     29  C   UNL     1       4.558   1.795   7.828  0.00  0.00    +0.000 A 
ATOM     30  C   UNL     1       3.295   1.554   7.320  0.00  0.00    +0.000 A 
ATOM     31  C   UNL     1       3.066   1.654   5.960  0.00  0.00    +0.005 A 
ENDBRANCH  25  26
BRANCH  25  32
ATOM     32  S   UNL     1       4.245   3.770   3.063  0.00  0.00    -0.109 S 
BRANCH  32  33
ATOM     33  C   UNL     1       3.056   4.781   3.881  0.00  0.00    +0.009 A 
ATOM     34  C   UNL     1       2.120   4.205   4.732  0.00  0.00    +0.015 A 
ATOM     35  C   UNL     1       1.190   5.000   5.372  0.00  0.00    +0.001 A 
ATOM     36  C   UNL     1       1.189   6.368   5.167  0.00  0.00    +0.000 A 
ATOM     37  C   UNL     1       2.118   6.944   4.320  0.00  0.00    +0.001 A 
ATOM     38  C   UNL     1       3.055   6.156   3.682  0.00  0.00    +0.015 A 
ENDBRANCH  32  33
ENDBRANCH  25  32
ENDBRANCH   9  25
TORSDOF 11
