REMARK  Name = ZINC16857006
REMARK  9 active torsions:
REMARK  status: ('A' for Active; 'I' for Inactive)
REMARK    1  A    between atoms: C_4  and  S_6
REMARK    2  A    between atoms: S_6  and  C_7
REMARK    3  A    between atoms: C_9  and  O_28
REMARK    4  A    between atoms: C_10  and  C_14
REMARK    5  A    between atoms: C_11  and  O_13
REMARK    6  A    between atoms: C_15  and  O_27
REMARK    7  A    between atoms: C_17  and  S_21
REMARK    8  A    between atoms: C_19  and  O_20
REMARK    9  A    between atoms: S_21  and  C_22
REMARK                            x       y       z     vdW  Elec       q    Type
REMARK                         _______ _______ _______ _____ _____    ______ ____
ROOT
ATOM      1  C   UNL     1      -0.054   4.168   0.024  0.00  0.00    +0.195 A 
ATOM      2  N   UNL     1       1.113   3.540   0.010  0.00  0.00    -0.187 NA
ATOM      3  C   UNL     1       1.175   2.214   0.003  0.00  0.00    +0.228 A 
ATOM      4  C   UNL     1      -0.018   1.479   0.010  0.00  0.00    +0.115 A 
ATOM      5  C   UNL     1      -1.230   2.182   0.020  0.00  0.00    +0.228 A 
ATOM      6  N   UNL     1      -1.205   3.509   0.032  0.00  0.00    -0.187 NA
ENDROOT
BRANCH   4   7
ATOM      7  C   UNL     1       0.002  -0.004   0.002  0.00  0.00    +0.115 A 
ATOM      8  C   UNL     1      -0.006  -0.717  -1.204  0.00  0.00    +0.228 A 
ATOM      9  N   UNL     1       0.018  -2.044  -1.168  0.00  0.00    -0.187 NA
ATOM     10  C   UNL     1       0.038  -2.693  -0.013  0.00  0.00    +0.195 A 
ATOM     11  N   UNL     1       0.040  -2.056   1.150  0.00  0.00    -0.187 NA
ATOM     12  C   UNL     1       0.023  -0.730   1.201  0.00  0.00    +0.228 A 
BRANCH  12  13
ATOM     13  O   UNL     1       0.027  -0.087   2.394  0.00  0.00    -0.492 OA
ATOM     14  H   UNL     1      -0.856   0.088   2.749  0.00  0.00    +0.294 HD
ENDBRANCH  12  13
BRANCH   8  15
ATOM     15  O   UNL     1      -0.031  -0.062  -2.391  0.00  0.00    -0.492 OA
ATOM     16  H   UNL     1       0.845   0.140  -2.747  0.00  0.00    +0.294 HD
ENDBRANCH   8  15
BRANCH  10  17
ATOM     17  S   UNL     1       0.061  -4.455  -0.022  0.00  0.00    -0.082 S 
BRANCH  17  18
ATOM     18  C   UNL     1       0.048  -4.759  -1.807  0.00  0.00    +0.054 C 
ATOM     19  C   UNL     1      -1.299  -4.310  -2.409  0.00  0.00    +0.014 C 
ATOM     20  C   UNL     1      -1.599  -5.370  -3.500  0.00  0.00    +0.001 C 
ATOM     21  C   UNL     1      -1.102  -6.683  -2.847  0.00  0.00    +0.001 C 
ATOM     22  C   UNL     1       0.174  -6.268  -2.085  0.00  0.00    +0.014 C 
ENDBRANCH  17  18
ENDBRANCH  10  17
ENDBRANCH   4   7
BRANCH   5  23
ATOM     23  O   UNL     1      -2.411   1.516   0.022  0.00  0.00    -0.492 OA
ATOM     24  H   UNL     1      -2.750   1.319   0.906  0.00  0.00    +0.294 HD
ENDBRANCH   5  23
BRANCH   3  25
ATOM     25  O   UNL     1       2.373   1.581  -0.011  0.00  0.00    -0.492 OA
ATOM     26  H   UNL     1       2.713   1.402  -0.899  0.00  0.00    +0.294 HD
ENDBRANCH   3  25
BRANCH   1  27
ATOM     27  S   UNL     1      -0.078   5.929   0.033  0.00  0.00    -0.082 S 
BRANCH  27  31
ATOM     28  C   UNL     1      -3.594   6.802  -1.568  0.00  0.00    +0.001 C 
ATOM     29  C   UNL     1      -2.942   8.125  -1.094  0.00  0.00    +0.001 C 
ATOM     30  C   UNL     1      -2.153   7.726   0.170  0.00  0.00    +0.014 C 
ATOM     31  C   UNL     1      -1.865   6.219   0.051  0.00  0.00    +0.054 C 
ATOM     32  C   UNL     1      -2.489   5.754  -1.280  0.00  0.00    +0.014 C 
ENDBRANCH  27  31
ENDBRANCH   1  27
TORSDOF 9
