REMARK  Name = ZINC36945125
REMARK  5 active torsions:
REMARK  status: ('A' for Active; 'I' for Inactive)
REMARK    1  A    between atoms: C_1  and  C_2
REMARK    2  A    between atoms: C_2  and  C_4
REMARK    3  A    between atoms: C_2  and  N_13
REMARK    4  A    between atoms: N_13  and  C_14
REMARK    5  A    between atoms: C_14  and  C_21
REMARK                            x       y       z     vdW  Elec       q    Type
REMARK                         _______ _______ _______ _____ _____    ______ ____
ROOT
ATOM      1  C   UNL     1      -0.454   1.029  -0.209  0.00  0.00    -0.009 C 
ATOM      2  C   UNL     1      -0.066  -0.435   0.006  0.00  0.00    -0.043 C 
ENDROOT
BRANCH   2   3
ATOM      3  C   UNL     1       0.623  -0.958  -1.228  0.00  0.00    -0.058 A 
ATOM      4  C   UNL     1       1.959  -0.677  -1.444  0.00  0.00    +0.006 A 
ATOM      5  C   UNL     1       2.595  -1.155  -2.575  0.00  0.00    +0.050 A 
ATOM      6  C   UNL     1       1.895  -1.917  -3.495  0.00  0.00    +0.166 A 
ATOM      7  C   UNL     1       0.549  -2.201  -3.277  0.00  0.00    +0.166 A 
ATOM      8  C   UNL     1      -0.081  -1.724  -2.139  0.00  0.00    +0.051 A 
ATOM      9  O   UNL     1       0.090  -2.959  -4.315  0.00  0.00    -0.453 OA
ATOM     10  C   UNL     1       1.056  -2.794  -5.369  0.00  0.00    +0.466 C 
ATOM     11  O   UNL     1       2.279  -2.498  -4.669  0.00  0.00    -0.453 OA
ENDBRANCH   2   3
BRANCH   2  12
ATOM     12  N   UNL     1       0.844  -0.538   1.155  0.00  0.00    +0.388 N 
ATOM     13  H   UNL     1       1.209  -1.476   1.212  0.00  0.00    -0.084 HD
ATOM     14  H   UNL     1       1.605   0.114   1.040  0.00  0.00    -0.084 HD
BRANCH  12  15
ATOM     15  C   UNL     1       0.111  -0.222   2.389  0.00  0.00    -0.049 C 
ATOM     16  C   UNL     1       0.954  -0.663   3.584  0.00  0.00    +0.011 C 
ATOM     17  C   UNL     1       1.879   0.497   4.049  0.00  0.00    +0.164 C 
ATOM     18  S   UNL     1       0.717   1.917   3.844  0.00  0.00    -0.032 S 
ATOM     19  O   UNL     1       1.452   3.070   3.457  0.00  0.00    -0.174 OA
ATOM     20  O   UNL     1      -0.148   1.980   4.971  0.00  0.00    -0.174 OA
ATOM     21  C   UNL     1      -0.222   1.283   2.393  0.00  0.00    +0.153 C 
ATOM     22  C   UNL     1      -1.197  -1.014   2.397  0.00  0.00    -0.008 C 
ENDBRANCH  12  15
ENDBRANCH   2  12
TORSDOF 3
