REMARK  Name = ZINC15782760
REMARK  8 active torsions:
REMARK  status: ('A' for Active; 'I' for Inactive)
REMARK    1  A    between atoms: C_7  and  C_11
REMARK    2  A    between atoms: C_11  and  C_12
REMARK    3  A    between atoms: C_12  and  C_14
REMARK    4  A    between atoms: C_12  and  N_22
REMARK    5  A    between atoms: C_14  and  C_16
REMARK    6  A    between atoms: C_23  and  O_25
REMARK    7  A    between atoms: O_25  and  C_26
REMARK    8  A    between atoms: C_26  and  C_27
REMARK                            x       y       z     vdW  Elec       q    Type
REMARK                         _______ _______ _______ _____ _____    ______ ____
ROOT
ATOM      1  C   UNL     1      -4.592   7.097  -3.258  0.00  0.00    +0.153 C 
ENDROOT
BRANCH   1   2
ATOM      2  N   UNL     1      -3.849   6.505  -2.143  0.00  0.00    -0.271 N 
ATOM      3  C   UNL     1      -2.501   6.498  -2.159  0.00  0.00    +0.401 C 
ATOM      4  O   UNL     1      -1.902   6.982  -3.099  0.00  0.00    -0.226 OA
ATOM      5  H   UNL     1      -4.327   6.118  -1.392  0.00  0.00    +0.153 HD
BRANCH   3   6
ATOM      6  O   UNL     1      -1.818   5.954  -1.134  0.00  0.00    -0.449 OA
BRANCH   6   7
ATOM      7  C   UNL     1      -0.369   5.982  -1.218  0.00  0.00    +0.246 C 
BRANCH   7   8
ATOM      8  C   UNL     1       0.227   5.323   0.027  0.00  0.00    +0.088 C 
ATOM      9  C   UNL     1      -0.064   3.843   0.022  0.00  0.00    -0.029 A 
ATOM     10  C   UNL     1      -1.245   3.132   0.029  0.00  0.00    +0.005 A 
ATOM     11  C   UNL     1      -1.221   1.748   0.017  0.00  0.00    +0.000 A 
ATOM     12  C   UNL     1      -0.013   1.076   0.008  0.00  0.00    +0.001 A 
ATOM     13  C   UNL     1       1.174   1.779   0.000  0.00  0.00    +0.009 A 
ATOM     14  C   UNL     1       1.157   3.175   0.008  0.00  0.00    -0.014 A 
ATOM     15  C   UNL     1       2.262   4.166   0.002  0.00  0.00    -0.014 A 
ATOM     16  C   UNL     1       1.731   5.452   0.014  0.00  0.00    -0.029 A 
ATOM     17  C   UNL     1       2.566   6.550   0.011  0.00  0.00    +0.005 A 
ATOM     18  C   UNL     1       3.938   6.376  -0.003  0.00  0.00    +0.000 A 
ATOM     19  C   UNL     1       4.476   5.101  -0.015  0.00  0.00    +0.001 A 
ATOM     20  C   UNL     1       3.648   3.998  -0.012  0.00  0.00    +0.009 A 
ENDBRANCH   7   8
ENDBRANCH   6   7
ENDBRANCH   3   6
ENDBRANCH   1   2
BRANCH   1  21
ATOM     21  C   UNL     1      -4.725   8.582  -3.041  0.00  0.00    +0.200 C 
ATOM     22  O   UNL     1      -4.498   9.059  -1.947  0.00  0.00    -0.289 OA
BRANCH  21  23
ATOM     23  C   UNL     1      -5.115   9.420  -4.110  0.00  0.00    +0.084 A 
ATOM     24  C   UNL     1      -5.278  10.794  -4.057  0.00  0.00    +0.030 A 
ATOM     25  C   UNL     1      -5.667  11.207  -5.332  0.00  0.00    +0.020 A 
ATOM     26  C   UNL     1      -5.735  10.108  -6.124  0.00  0.00    +0.083 A 
ATOM     27  N   UNL     1      -5.398   9.021  -5.399  0.00  0.00    -0.358 N 
ATOM     28  H   UNL     1      -5.362   8.110  -5.729  0.00  0.00    +0.165 HD
ENDBRANCH  21  23
ENDBRANCH   1  21
BRANCH   1  29
ATOM     29  C   UNL     1      -5.983   6.465  -3.336  0.00  0.00    +0.067 C 
BRANCH  29  36
ATOM     30  C   UNL     1      -5.253   2.626  -0.748  0.00  0.00    +0.001 A 
ATOM     31  C   UNL     1      -5.204   1.464  -1.506  0.00  0.00    +0.002 A 
ATOM     32  C   UNL     1      -5.363   1.510  -2.873  0.00  0.00    +0.026 A 
ATOM     33  C   UNL     1      -5.574   2.732  -3.503  0.00  0.00    +0.047 A 
ATOM     34  C   UNL     1      -5.622   3.907  -2.731  0.00  0.00    +0.003 A 
ATOM     35  C   UNL     1      -5.458   3.837  -1.346  0.00  0.00    +0.010 A 
ATOM     36  C   UNL     1      -5.853   5.003  -3.675  0.00  0.00    -0.020 A 
ATOM     37  C   UNL     1      -5.933   4.457  -4.899  0.00  0.00    +0.087 A 
ATOM     38  N   UNL     1      -5.763   3.102  -4.816  0.00  0.00    -0.360 N 
ATOM     39  H   UNL     1      -5.778   2.491  -5.570  0.00  0.00    +0.165 HD
ENDBRANCH  29  36
ENDBRANCH   1  29
TORSDOF 8
