REMARK  Name = ZINC19926249
REMARK  9 active torsions:
REMARK  status: ('A' for Active; 'I' for Inactive)
REMARK    1  A    between atoms: C_1  and  C_2
REMARK    2  A    between atoms: C_5  and  N_8
REMARK    3  A    between atoms: N_8  and  C_9
REMARK    4  A    between atoms: N_8  and  S_26
REMARK    5  A    between atoms: C_9  and  C_10
REMARK    6  A    between atoms: N_12  and  N_13
REMARK    7  A    between atoms: C_14  and  C_15
REMARK    8  A    between atoms: C_24  and  O_25
REMARK    9  A    between atoms: S_26  and  C_29
REMARK                            x       y       z     vdW  Elec       q    Type
REMARK                         _______ _______ _______ _____ _____    ______ ____
ROOT
ATOM      1  C   UNL     1       0.484  -4.888  -1.223  0.00  0.00    +0.228 C 
ENDROOT
BRANCH   1   2
ATOM      2  C   UNL     1       1.985  -5.024  -1.222  0.00  0.00    +0.251 C 
ATOM      3  O   UNL     1       2.635  -4.564  -0.307  0.00  0.00    -0.272 OA
ATOM      4  N   UNL     1       2.605  -5.656  -2.238  0.00  0.00    -0.206 N 
ATOM      5  H   UNL     1       2.086  -6.023  -2.970  0.00  0.00    +0.177 HD
BRANCH   4   6
ATOM      6  N   UNL     1       4.001  -5.782  -2.237  0.00  0.00    -0.188 NA
ATOM      7  C   UNL     1       4.599  -6.392  -3.216  0.00  0.00    +0.142 C 
BRANCH   7   8
ATOM      8  C   UNL     1       6.062  -6.524  -3.215  0.00  0.00    +0.044 A 
ATOM      9  C   UNL     1       6.752  -7.201  -4.312  0.00  0.00    -0.006 A 
ATOM     10  C   UNL     1       6.048  -7.743  -5.394  0.00  0.00    +0.009 A 
ATOM     11  C   UNL     1       6.729  -8.367  -6.397  0.00  0.00    +0.001 A 
ATOM     12  C   UNL     1       8.117  -8.473  -6.360  0.00  0.00    +0.001 A 
ATOM     13  C   UNL     1       8.833  -7.957  -5.323  0.00  0.00    +0.008 A 
ATOM     14  C   UNL     1       8.164  -7.307  -4.272  0.00  0.00    -0.017 A 
ATOM     15  C   UNL     1       8.869  -6.761  -3.185  0.00  0.00    +0.012 A 
ATOM     16  C   UNL     1       8.212  -6.134  -2.174  0.00  0.00    +0.046 A 
ATOM     17  C   UNL     1       6.824  -6.002  -2.171  0.00  0.00    +0.126 A 
BRANCH  17  18
ATOM     18  O   UNL     1       6.210  -5.363  -1.142  0.00  0.00    -0.506 OA
ATOM     19  H   UNL     1       5.963  -5.944  -0.410  0.00  0.00    +0.292 HD
ENDBRANCH  17  18
ENDBRANCH   7   8
ENDBRANCH   4   6
ENDBRANCH   1   2
BRANCH   1  20
ATOM     20  N   UNL     1       0.058  -4.167  -0.021  0.00  0.00    -0.194 N 
BRANCH  20  25
ATOM     21  C   UNL     1       0.026   1.503   0.027  0.00  0.00    +0.044 C 
ATOM     22  C   UNL     1       0.035  -0.004   0.014  0.00  0.00    -0.050 A 
ATOM     23  C   UNL     1      -0.737  -0.690  -0.905  0.00  0.00    +0.005 A 
ATOM     24  C   UNL     1      -0.732  -2.071  -0.919  0.00  0.00    +0.025 A 
ATOM     25  C   UNL     1       0.051  -2.771  -0.009  0.00  0.00    +0.052 A 
ATOM     26  C   UNL     1       0.825  -2.078   0.912  0.00  0.00    +0.025 A 
ATOM     27  C   UNL     1       0.820  -0.697   0.918  0.00  0.00    +0.005 A 
ENDBRANCH  20  25
BRANCH  20  28
ATOM     28  S   UNL     1      -0.415  -5.009   1.325  0.00  0.00    +0.075 S 
ATOM     29  O   UNL     1       0.303  -6.236   1.309  0.00  0.00    -0.150 OA
ATOM     30  O   UNL     1      -0.348  -4.101   2.416  0.00  0.00    -0.150 OA
BRANCH  28  31
ATOM     31  C   UNL     1      -2.115  -5.418   1.112  0.00  0.00    +0.109 A 
ATOM     32  C   UNL     1      -3.095  -4.550   1.556  0.00  0.00    +0.030 A 
ATOM     33  C   UNL     1      -4.430  -4.870   1.390  0.00  0.00    +0.022 A 
ATOM     34  C   UNL     1      -4.784  -6.060   0.779  0.00  0.00    +0.041 A 
ATOM     35  C   UNL     1      -3.803  -6.928   0.336  0.00  0.00    +0.022 A 
ATOM     36  C   UNL     1      -2.469  -6.604   0.497  0.00  0.00    +0.030 A 
ATOM     37 CL   UNL     1      -6.460  -6.463   0.571  0.00  0.00    -0.084 Cl
ENDBRANCH  28  31
ENDBRANCH  20  28
ENDBRANCH   1  20
TORSDOF 8
