REMARK  Name = ZINC15945410
REMARK  7 active torsions:
REMARK  status: ('A' for Active; 'I' for Inactive)
REMARK    1  A    between atoms: C_1  and  C_2
REMARK    2  A    between atoms: C_2  and  C_3
REMARK    3  A    between atoms: C_12  and  O_27
REMARK    4  A    between atoms: C_14  and  C_17
REMARK    5  A    between atoms: C_19  and  O_25
REMARK    6  A    between atoms: C_20  and  O_24
REMARK    7  A    between atoms: O_25  and  C_26
REMARK                            x       y       z     vdW  Elec       q    Type
REMARK                         _______ _______ _______ _____ _____    ______ ____
ROOT
ATOM      1  C   UNL     1       0.742  -0.511   1.242  0.00  0.00    -0.006 C 
ATOM      2  C   UNL     1       0.868  -2.036   1.176  0.00  0.00    +0.008 C 
ATOM      3  C   UNL     1       1.813  -2.528   2.274  0.00  0.00    +0.037 C 
ATOM      4  C   UNL     1       1.353  -1.956   3.608  0.00  0.00    -0.023 A 
ATOM      5  C   UNL     1       0.524  -0.888   3.662  0.00  0.00    -0.004 A 
ATOM      6  S   UNL     1       0.275  -0.596   5.391  0.00  0.00    -0.078 S 
ATOM      7  C   UNL     1       1.208  -1.817   6.013  0.00  0.00    +0.080 A 
ATOM      8  C   UNL     1       1.744  -2.480   4.903  0.00  0.00    +0.068 A 
ATOM      9  C   UNL     1       2.648  -3.630   5.163  0.00  0.00    +0.220 C 
ATOM     10  N   UNL     1       2.691  -4.105   6.379  0.00  0.00    -0.223 NA
ATOM     11  C   UNL     1       1.866  -3.627   7.481  0.00  0.00    +0.224 C 
ATOM     12  N   UNL     1       1.484  -2.215   7.302  0.00  0.00    -0.313 N 
ATOM     13  C   UNL     1      -0.046  -0.129   2.503  0.00  0.00    +0.046 C 
ATOM     14  H   UNL     1       1.430  -1.600   8.050  0.00  0.00    +0.149 HD
ENDROOT
BRANCH  11  15
ATOM     15  C   UNL     1       0.617  -4.467   7.561  0.00  0.00    -0.001 A 
ATOM     16  C   UNL     1       0.650  -5.791   7.163  0.00  0.00    +0.056 A 
ATOM     17  C   UNL     1      -0.497  -6.564   7.236  0.00  0.00    +0.163 A 
ATOM     18  C   UNL     1      -1.681  -6.006   7.710  0.00  0.00    +0.173 A 
ATOM     19  C   UNL     1      -1.707  -4.679   8.108  0.00  0.00    +0.063 A 
ATOM     20  C   UNL     1      -0.556  -3.913   8.037  0.00  0.00    +0.026 A 
ATOM     21 BR   UNL     1      -3.312  -3.916   8.753  0.00  0.00    -0.046 Br
BRANCH  18  22
ATOM     22  O   UNL     1      -2.809  -6.762   7.783  0.00  0.00    -0.503 OA
ATOM     23  H   UNL     1      -2.921  -7.223   8.626  0.00  0.00    +0.292 HD
ENDBRANCH  18  22
BRANCH  17  24
ATOM     24  O   UNL     1      -0.467  -7.866   6.844  0.00  0.00    -0.491 OA
ATOM     25  C   UNL     1       0.782  -8.371   6.368  0.00  0.00    +0.277 C 
ENDBRANCH  17  24
ENDBRANCH  11  15
BRANCH   1  27
ATOM     26  C   UNL     1      -0.019   1.526   0.010  0.00  0.00    +0.004 C 
ATOM     27  C   UNL     1       0.002  -0.004   0.002  0.00  0.00    +0.000 C 
ENDBRANCH   1  27
BRANCH   9  28
ATOM     28  O   UNL     1       3.402  -4.166   4.175  0.00  0.00    -0.492 OA
ATOM     29  H   UNL     1       3.952  -4.909   4.459  0.00  0.00    +0.294 HD
ENDBRANCH   9  28
TORSDOF 5
