REMARK  Name = ZINC10751207
REMARK  10 active torsions:
REMARK  status: ('A' for Active; 'I' for Inactive)
REMARK    1  A    between atoms: C_1  and  C_2
REMARK    2  A    between atoms: C_2  and  C_3
REMARK    3  A    between atoms: C_3  and  N_62
REMARK    4  A    between atoms: C_9  and  N_15
REMARK    5  A    between atoms: C_10  and  C_11
REMARK    6  A    between atoms: C_11  and  O_13
REMARK    7  A    between atoms: O_13  and  C_14
REMARK    8  A    between atoms: C_16  and  C_18
REMARK    9  A    between atoms: N_23  and  S_25
REMARK   10  A    between atoms: S_25  and  C_28
REMARK                            x       y       z     vdW  Elec       q    Type
REMARK                         _______ _______ _______ _____ _____    ______ ____
ROOT
ATOM      1  N   UNL     1      -3.747   3.500   1.516  0.00  0.00    -0.279 N 
ATOM      2  C   UNL     1      -5.045   3.810   1.701  0.00  0.00    +0.222 C 
ATOM      3  O   UNL     1      -5.417   4.255   2.766  0.00  0.00    -0.275 OA
ATOM      4  H   UNL     1      -3.450   3.144   0.664  0.00  0.00    +0.155 HD
ENDROOT
BRANCH   1  10
ATOM      5  C   UNL     1       1.218   4.326   5.156  0.00  0.00    -0.074 C 
ATOM      6  C   UNL     1       0.761   3.510   3.943  0.00  0.00    +0.018 C 
ATOM      7  C   UNL     1      -0.738   3.720   3.765  0.00  0.00    -0.025 A 
ATOM      8  C   UNL     1      -1.478   4.223   4.779  0.00  0.00    -0.021 A 
ATOM      9  S   UNL     1      -3.124   4.307   4.138  0.00  0.00    -0.079 S 
ATOM     10  C   UNL     1      -2.836   3.690   2.544  0.00  0.00    +0.086 A 
ATOM     11  C   UNL     1      -1.470   3.433   2.545  0.00  0.00    +0.091 A 
ATOM     12  C   UNL     1      -0.980   4.606   6.137  0.00  0.00    -0.035 C 
ATOM     13  N   UNL     1       0.362   4.000   6.316  0.00  0.00    +0.383 N 
ATOM     14  H   UNL     1       0.262   2.980   6.381  0.00  0.00    -0.081 HD
BRANCH  11  15
ATOM     15  C   UNL     1      -0.797   2.889   1.364  0.00  0.00    +0.342 C 
ATOM     16  O   UNL     1      -0.333   3.641   0.528  0.00  0.00    -0.245 OA
BRANCH  15  17
ATOM     17  O   UNL     1      -0.692   1.554   1.203  0.00  0.00    -0.464 OA
ATOM     18  C   UNL     1      -0.013   1.086   0.008  0.00  0.00    +0.280 C 
ENDBRANCH  15  17
ENDBRANCH  11  15
BRANCH  13  19
ATOM     19  C   UNL     1       0.983   4.503   7.560  0.00  0.00    -0.079 C 
BRANCH  19  21
ATOM     20  C   UNL     1       1.888   6.503   8.753  0.00  0.00    +0.002 C 
ATOM     21  C   UNL     1       1.244   6.007   7.457  0.00  0.00    -0.022 C 
ENDBRANCH  19  21
ENDBRANCH  13  19
ENDBRANCH   1  10
BRANCH   2  22
ATOM     22  C   UNL     1      -6.036   3.603   0.584  0.00  0.00    +0.091 C 
ATOM     23  C   UNL     1      -6.062   2.124   0.193  0.00  0.00    +0.015 C 
ATOM     24  C   UNL     1      -7.044   1.918  -0.963  0.00  0.00    +0.018 C 
ATOM     25  C   UNL     1      -8.451   2.325  -0.512  0.00  0.00    +0.109 C 
ATOM     26  N   UNL     1      -8.403   3.700   0.001  0.00  0.00    -0.175 NA
ATOM     27  C   UNL     1      -7.431   4.029   1.052  0.00  0.00    +0.122 C 
BRANCH  26  28
ATOM     28  S   UNL     1      -9.426   4.859  -0.595  0.00  0.00    +0.067 S 
ATOM     29  O   UNL     1     -10.551   4.173  -1.126  0.00  0.00    -0.152 OA
ATOM     30  O   UNL     1      -9.546   5.852   0.415  0.00  0.00    -0.152 OA
BRANCH  28  31
ATOM     31  C   UNL     1      -8.611   5.622  -1.958  0.00  0.00    +0.143 A 
ATOM     32  C   UNL     1      -8.641   5.282  -3.269  0.00  0.00    +0.036 A 
ATOM     33  C   UNL     1      -7.915   6.035  -4.174  0.00  0.00    +0.010 A 
ATOM     34  C   UNL     1      -7.194   7.090  -3.722  0.00  0.00    +0.047 A 
ATOM     35  S   UNL     1      -7.538   7.049  -1.970  0.00  0.00    -0.077 S 
ENDBRANCH  28  31
ENDBRANCH  26  28
ENDBRANCH   2  22
TORSDOF 8
