REMARK  Name = ZINC63494692
REMARK  6 active torsions:
REMARK  status: ('A' for Active; 'I' for Inactive)
REMARK    1  A    between atoms: C_1  and  C_2
REMARK    2  A    between atoms: C_6  and  C_8
REMARK    3  A    between atoms: C_19  and  N_23
REMARK    4  A    between atoms: N_23  and  C_24
REMARK    5  A    between atoms: C_24  and  C_25
REMARK    6  A    between atoms: C_25  and  C_26
REMARK                            x       y       z     vdW  Elec       q    Type
REMARK                         _______ _______ _______ _____ _____    ______ ____
ROOT
ATOM      1  C   UNL     1       0.054  -2.845   2.489  0.00  0.00    +0.188 C 
ATOM      2  N   UNL     1       0.810  -2.100   3.514  0.00  0.00    -0.311 N 
ATOM      3  C   UNL     1       1.950  -2.789   3.727  0.00  0.00    +0.114 C 
ATOM      4  C   UNL     1       2.970  -2.559   4.670  0.00  0.00    +0.035 A 
ATOM      5  C   UNL     1       2.964  -1.480   5.557  0.00  0.00    +0.013 A 
ATOM      6  C   UNL     1       3.955  -1.375   6.488  0.00  0.00    +0.001 A 
ATOM      7  C   UNL     1       4.979  -2.316   6.568  0.00  0.00    +0.002 A 
ATOM      8  C   UNL     1       5.057  -3.371   5.714  0.00  0.00    +0.026 A 
ATOM      9  C   UNL     1       4.080  -3.525   4.706  0.00  0.00    +0.048 A 
ATOM     10  N   UNL     1       4.173  -4.482   3.801  0.00  0.00    -0.353 N 
ATOM     11  C   UNL     1       3.284  -4.594   2.646  0.00  0.00    +0.258 C 
ATOM     12  N   UNL     1       2.035  -3.865   2.879  0.00  0.00    -0.216 N 
ATOM     13  N   UNL     1       0.804  -4.112   2.340  0.00  0.00    -0.212 NA
ATOM     14  H   UNL     1       0.540  -1.276   3.949  0.00  0.00    +0.149 HD
ATOM     15  H   UNL     1       0.341  -4.866   2.825  0.00  0.00    +0.147 HD
ATOM     16  H   UNL     1       4.871  -5.147   3.908  0.00  0.00    +0.163 HD
ENDROOT
BRANCH   1  22
ATOM     17  C   UNL     1      -0.018   1.503   0.010  0.00  0.00    +0.044 C 
ATOM     18  C   UNL     1       0.002  -0.004   0.002  0.00  0.00    -0.050 A 
ATOM     19  C   UNL     1       0.006  -0.689  -1.199  0.00  0.00    +0.003 A 
ATOM     20  C   UNL     1       0.025  -2.071  -1.207  0.00  0.00    +0.001 A 
ATOM     21  C   UNL     1       0.040  -2.768  -0.013  0.00  0.00    +0.007 A 
ATOM     22  C   UNL     1       0.037  -2.084   1.188  0.00  0.00    -0.011 A 
ATOM     23  C   UNL     1       0.023  -0.702   1.195  0.00  0.00    +0.010 A 
ENDBRANCH   1  22
BRANCH  11  24
ATOM     24  N   UNL     1       3.955  -4.037   1.463  0.00  0.00    -0.280 NA
ATOM     25  H   UNL     1       3.288  -3.815   0.740  0.00  0.00    +0.125 HD
BRANCH  24  26
ATOM     26  C   UNL     1       4.987  -4.955   0.963  0.00  0.00    +0.089 C 
BRANCH  26  27
ATOM     27  C   UNL     1       5.662  -4.343  -0.266  0.00  0.00    +0.048 C 
BRANCH  27  28
ATOM     28  C   UNL     1       6.721  -5.284  -0.779  0.00  0.00    -0.040 C 
ATOM     29  C   UNL     1       6.586  -6.201  -1.764  0.00  0.00    -0.001 A 
ATOM     30  C   UNL     1       5.456  -6.581  -2.620  0.00  0.00    +0.010 A 
ATOM     31  C   UNL     1       5.628  -7.559  -3.538  0.00  0.00    +0.001 A 
ATOM     32  C   UNL     1       6.856  -8.217  -3.693  0.00  0.00    +0.002 A 
ATOM     33  C   UNL     1       7.941  -7.922  -2.944  0.00  0.00    +0.026 A 
ATOM     34  C   UNL     1       7.872  -6.910  -1.948  0.00  0.00    +0.043 A 
ATOM     35  N   UNL     1       8.768  -6.450  -1.109  0.00  0.00    -0.380 N 
ATOM     36  C   UNL     1       8.152  -5.391  -0.301  0.00  0.00    +0.144 C 
ATOM     37  H   UNL     1       9.686  -6.755  -1.036  0.00  0.00    +0.160 HD
ENDBRANCH  27  28
ENDBRANCH  26  27
ENDBRANCH  24  26
ENDBRANCH  11  24
TORSDOF 5
