REMARK  Name = ZINC39912575
REMARK  15 active torsions:
REMARK  status: ('A' for Active; 'I' for Inactive)
REMARK    1  A    between atoms: C_1  and  C_2
REMARK    2  A    between atoms: C_2  and  C_3
REMARK    3  A    between atoms: C_3  and  C_4
REMARK    4  A    between atoms: C_4  and  C_5
REMARK    5  A    between atoms: C_5  and  O_6
REMARK    6  A    between atoms: O_6  and  C_7
REMARK    7  A    between atoms: C_10  and  C_13
REMARK    8  A    between atoms: C_16  and  C_33
REMARK    9  A    between atoms: N_23  and  C_24
REMARK   10  A    between atoms: C_24  and  C_25
REMARK   11  A    between atoms: C_28  and  O_31
REMARK   12  A    between atoms: O_31  and  C_32
REMARK   13  A    between atoms: C_35  and  C_41
REMARK   14  A    between atoms: C_37  and  C_40
REMARK   15  A    between atoms: C_38  and  O_39
REMARK                            x       y       z     vdW  Elec       q    Type
REMARK                         _______ _______ _______ _____ _____    ______ ____
ROOT
ATOM      1  C   UNL     1      -7.335  -6.700  -0.135  0.00  0.00    +0.142 C 
ATOM      2  C   UNL     1      -8.008  -7.039  -1.437  0.00  0.00    +0.035 A 
ATOM      3  C   UNL     1      -8.521  -6.578  -2.654  0.00  0.00    +0.102 A 
ATOM      4  N   UNL     1      -8.987  -7.625  -3.307  0.00  0.00    -0.173 NA
ATOM      5  N   UNL     1      -8.819  -8.700  -2.623  0.00  0.00    -0.272 N 
ATOM      6  H   UNL     1      -9.085  -9.588  -2.907  0.00  0.00    +0.189 HD
ATOM      7  C   UNL     1      -8.209  -8.405  -1.436  0.00  0.00    +0.126 A 
ATOM      8  C   UNL     1      -7.689  -8.953  -0.179  0.00  0.00    +0.266 C 
ATOM      9  O   UNL     1      -7.715 -10.129   0.130  0.00  0.00    -0.268 OA
ATOM     10  N   UNL     1      -7.179  -7.969   0.587  0.00  0.00    -0.281 N 
ENDROOT
BRANCH   3  11
ATOM     11  C   UNL     1      -8.539  -5.170  -3.124  0.00  0.00    +0.044 A 
ATOM     12  C   UNL     1      -8.121  -4.146  -2.278  0.00  0.00    +0.017 A 
ATOM     13  C   UNL     1      -8.139  -2.838  -2.720  0.00  0.00    -0.049 A 
ATOM     14  C   UNL     1      -8.571  -2.541  -4.000  0.00  0.00    +0.010 A 
ATOM     15  C   UNL     1      -8.987  -3.550  -4.848  0.00  0.00    -0.008 A 
ATOM     16  C   UNL     1      -8.968  -4.868  -4.419  0.00  0.00    +0.129 A 
ATOM     17  C   UNL     1      -9.456  -3.218  -6.241  0.00  0.00    +0.047 C 
ATOM     18  C   UNL     1      -7.688  -1.730  -1.803  0.00  0.00    +0.044 C 
BRANCH  16  19
ATOM     19  O   UNL     1      -9.371  -5.862  -5.253  0.00  0.00    -0.506 OA
ATOM     20  H   UNL     1     -10.316  -6.062  -5.199  0.00  0.00    +0.292 HD
ENDBRANCH  16  19
ENDBRANCH   3  11
BRANCH   1  24
ATOM     21  C   UNL     1      -3.509  -4.944  -0.869  0.00  0.00    +0.121 A 
ATOM     22  C   UNL     1      -3.725  -6.283  -1.157  0.00  0.00    +0.046 A 
ATOM     23  C   UNL     1      -4.963  -6.849  -0.918  0.00  0.00    +0.009 A 
ATOM     24  C   UNL     1      -5.986  -6.080  -0.393  0.00  0.00    -0.022 A 
ATOM     25  C   UNL     1      -5.773  -4.745  -0.106  0.00  0.00    +0.009 A 
ATOM     26  C   UNL     1      -4.535  -4.176  -0.337  0.00  0.00    +0.046 A 
BRANCH  21  27
ATOM     27  O   UNL     1      -2.292  -4.385  -1.102  0.00  0.00    -0.492 OA
BRANCH  27  28
ATOM     28  C   UNL     1      -1.283  -5.235  -1.651  0.00  0.00    +0.229 C 
BRANCH  28  29
ATOM     29  C   UNL     1       0.008  -4.436  -1.842  0.00  0.00    +0.041 C 
BRANCH  29  30
ATOM     30  C   UNL     1       1.089  -5.346  -2.430  0.00  0.00    +0.003 C 
BRANCH  30  32
ATOM     31  C   UNL     1       3.460  -5.457  -3.209  0.00  0.00    +0.004 C 
ATOM     32  C   UNL     1       2.379  -4.547  -2.621  0.00  0.00    -0.003 C 
ENDBRANCH  30  32
ENDBRANCH  29  30
ENDBRANCH  28  29
ENDBRANCH  27  28
ENDBRANCH  21  27
ENDBRANCH   1  24
BRANCH  10  33
ATOM     33  C   UNL     1      -6.572  -8.136   1.909  0.00  0.00    +0.144 C 
BRANCH  33  34
ATOM     34  C   UNL     1      -7.635  -8.005   2.970  0.00  0.00    -0.030 A 
ATOM     35  C   UNL     1      -7.924  -6.764   3.507  0.00  0.00    +0.009 A 
ATOM     36  C   UNL     1      -8.897  -6.641   4.480  0.00  0.00    +0.046 A 
ATOM     37  C   UNL     1      -9.585  -7.764   4.917  0.00  0.00    +0.120 A 
ATOM     38  C   UNL     1      -9.293  -9.008   4.375  0.00  0.00    +0.046 A 
ATOM     39  C   UNL     1      -8.323  -9.124   3.399  0.00  0.00    +0.009 A 
BRANCH  37  40
ATOM     40  O   UNL     1     -10.543  -7.646   5.874  0.00  0.00    -0.495 OA
ATOM     41  C   UNL     1     -11.210  -8.845   6.275  0.00  0.00    +0.277 C 
ENDBRANCH  37  40
ENDBRANCH  33  34
ENDBRANCH  10  33
TORSDOF 11
