REMARK  Name = ZINC36341806
REMARK  8 active torsions:
REMARK  status: ('A' for Active; 'I' for Inactive)
REMARK    1  A    between atoms: C_1  and  C_2
REMARK    2  A    between atoms: C_2  and  O_3
REMARK    3  A    between atoms: O_3  and  C_4
REMARK    4  A    between atoms: C_4  and  C_6
REMARK    5  A    between atoms: N_11  and  C_13
REMARK    6  A    between atoms: C_13  and  C_14
REMARK    7  A    between atoms: C_17  and  C_29
REMARK    8  A    between atoms: C_20  and  C_22
REMARK                            x       y       z     vdW  Elec       q    Type
REMARK                         _______ _______ _______ _____ _____    ______ ____
ROOT
ATOM      1  C   UNL     1       2.620  -6.455  -4.920  0.00  0.00    +0.219 C 
ATOM      2  O   UNL     1       3.058  -5.705  -5.767  0.00  0.00    -0.276 OA
ATOM      3  N   UNL     1       2.648  -7.788  -5.120  0.00  0.00    -0.187 N 
ATOM      4  C   UNL     1       3.185  -8.463  -6.312  0.00  0.00    +0.137 C 
ATOM      5  C   UNL     1       2.965  -9.959  -6.010  0.00  0.00    +0.087 C 
ATOM      6  C   UNL     1       2.311  -9.963  -4.647  0.00  0.00    +0.070 C 
ATOM      7  N   UNL     1       2.178  -8.751  -4.230  0.00  0.00    -0.181 NA
ENDROOT
BRANCH   4   8
ATOM      8  C   UNL     1       2.423  -8.050  -7.545  0.00  0.00    -0.021 A 
ATOM      9  C   UNL     1       1.055  -7.864  -7.480  0.00  0.00    +0.009 A 
ATOM     10  C   UNL     1       0.351  -7.484  -8.608  0.00  0.00    +0.050 A 
ATOM     11  C   UNL     1       1.017  -7.290  -9.807  0.00  0.00    +0.166 A 
ATOM     12  C   UNL     1       2.395  -7.477  -9.873  0.00  0.00    +0.167 A 
ATOM     13  C   UNL     1       3.095  -7.852  -8.737  0.00  0.00    +0.055 A 
ATOM     14  O   UNL     1       2.809  -7.227 -11.149  0.00  0.00    -0.453 OA
ATOM     15  C   UNL     1       1.619  -7.282 -11.957  0.00  0.00    +0.466 C 
ATOM     16  O   UNL     1       0.567  -6.922 -11.042  0.00  0.00    -0.453 OA
ENDBRANCH   4   8
BRANCH   6  17
ATOM     17  C   UNL     1       1.895 -11.168  -3.906  0.00  0.00    +0.016 A 
ATOM     18  C   UNL     1       2.100 -12.435  -4.456  0.00  0.00    +0.011 A 
ATOM     19  C   UNL     1       1.709 -13.558  -3.758  0.00  0.00    +0.001 A 
ATOM     20  C   UNL     1       1.113 -13.432  -2.515  0.00  0.00    +0.001 A 
ATOM     21  C   UNL     1       0.905 -12.181  -1.964  0.00  0.00    +0.020 A 
ATOM     22  C   UNL     1       1.298 -11.048  -2.648  0.00  0.00    +0.050 A 
ATOM     23 CL   UNL     1       1.043  -9.478  -1.952  0.00  0.00    -0.083 Cl
ENDBRANCH   6  17
BRANCH   1  24
ATOM     24  C   UNL     1       2.043  -5.897  -3.645  0.00  0.00    +0.021 C 
BRANCH  24  29
ATOM     25  C   UNL     1       1.468  -2.353  -2.550  0.00  0.00    +0.081 C 
ATOM     26  C   UNL     1       2.919  -1.864  -2.583  0.00  0.00    +0.011 C 
ATOM     27  C   UNL     1       3.635  -2.500  -3.778  0.00  0.00    -0.018 C 
ATOM     28  C   UNL     1       3.539  -4.024  -3.670  0.00  0.00    -0.078 C 
ATOM     29  N   UNL     1       2.129  -4.430  -3.670  0.00  0.00    +0.386 N 
ATOM     30  C   UNL     1       1.452  -3.882  -2.488  0.00  0.00    -0.064 C 
ATOM     31  H   UNL     1       1.680  -4.083  -4.504  0.00  0.00    -0.081 HD
BRANCH  25  32
ATOM     32  C   UNL     1       0.775  -1.794  -1.334  0.00  0.00    +0.308 C 
ATOM     33  O   UNL     1       0.314  -2.540  -0.504  0.00  0.00    -0.251 OA
BRANCH  32  34
ATOM     34  O   UNL     1       0.671  -0.465  -1.174  0.00  0.00    -0.465 OA
BRANCH  34  36
ATOM     35  C   UNL     1      -0.019   1.526   0.010  0.00  0.00    +0.048 C 
ATOM     36  C   UNL     1       0.002  -0.004   0.002  0.00  0.00    +0.229 C 
ENDBRANCH  34  36
ENDBRANCH  32  34
ENDBRANCH  25  32
ENDBRANCH  24  29
ENDBRANCH   1  24
TORSDOF 7
