REMARK  Name = ZINC39088934
REMARK  2 active torsions:
REMARK  status: ('A' for Active; 'I' for Inactive)
REMARK    1  A    between atoms: C_4  and  C_9
REMARK    2  A    between atoms: C_5  and  O_8
REMARK                            x       y       z     vdW  Elec       q    Type
REMARK                         _______ _______ _______ _____ _____    ______ ____
ROOT
ATOM      1  C   UNL     1      -0.019   1.526   0.010  0.00  0.00    +0.003 C 
ATOM      2  C   UNL     1       1.417   2.055  -0.000  0.00  0.00    +0.004 C 
ATOM      3  C   UNL     1       2.157   1.548   1.239  0.00  0.00    +0.055 C 
ATOM      4  C   UNL     1       2.178   0.019   1.231  0.00  0.00    +0.237 C 
ATOM      5  C   UNL     1       0.742  -0.511   1.242  0.00  0.00    +0.163 C 
ATOM      6  C   UNL     1       0.002  -0.004   0.002  0.00  0.00    +0.035 C 
ATOM      7  F   UNL     1       2.832  -0.432   0.080  0.00  0.00    -0.227 F 
ENDROOT
BRANCH   4   8
ATOM      8  C   UNL     1       2.906  -0.480   2.452  0.00  0.00    +0.395 C 
ATOM      9  O   UNL     1       2.496  -0.198   3.564  0.00  0.00    -0.243 OA
ATOM     10  O   UNL     1       3.906  -1.167   2.326  0.00  0.00    -0.243 OA
ENDBRANCH   4   8
BRANCH   5  11
ATOM     11  O   UNL     1       0.761  -1.940   1.234  0.00  0.00    -0.388 OA
ATOM     12  H   UNL     1      -0.117  -2.345   1.240  0.00  0.00    +0.210 HD
ENDBRANCH   5  11
TORSDOF 2
