REMARK  Name = ZINC04789007
REMARK  13 active torsions:
REMARK  status: ('A' for Active; 'I' for Inactive)
REMARK    1  A    between atoms: C_1  and  C_2
REMARK    2  A    between atoms: C_2  and  O_3
REMARK    3  A    between atoms: O_3  and  C_4
REMARK    4  A    between atoms: C_6  and  C_11
REMARK    5  A    between atoms: C_9  and  O_10
REMARK    6  A    between atoms: C_16  and  C_26
REMARK    7  A    between atoms: C_18  and  C_22
REMARK    8  A    between atoms: C_22  and  O_24
REMARK    9  A    between atoms: O_24  and  C_25
REMARK   10  A    between atoms: C_28  and  C_39
REMARK   11  A    between atoms: C_29  and  C_30
REMARK   12  A    between atoms: C_30  and  O_32
REMARK   13  A    between atoms: O_32  and  C_33
REMARK                            x       y       z     vdW  Elec       q    Type
REMARK                         _______ _______ _______ _____ _____    ______ ____
ROOT
ATOM      1  C   UNL     1       1.019  -2.197   0.580  0.00  0.00    +0.092 C 
ATOM      2  C   UNL     1       1.011  -0.689   0.582  0.00  0.00    +0.025 C 
ATOM      3  C   UNL     1       0.002  -0.004   0.002  0.00  0.00    +0.016 C 
ATOM      4  C   UNL     1      -0.018   1.504   0.010  0.00  0.00    +0.055 C 
ATOM      5  C   UNL     1       1.416   2.038  -0.001  0.00  0.00    +0.013 C 
ATOM      6  C   UNL     1       2.150   1.484   1.225  0.00  0.00    +0.171 C 
ATOM      7  C   UNL     1       2.081  -0.019   1.199  0.00  0.00    +0.176 C 
ATOM      8  O   UNL     1       2.968  -0.666   1.722  0.00  0.00    -0.291 OA
ATOM      9  C   UNL     1       2.126   1.578  -1.276  0.00  0.00    +0.009 C 
ATOM     10  N   UNL     1      -1.026  -0.668  -0.611  0.00  0.00    -0.321 N 
ATOM     11  C   UNL     1      -0.882  -1.971  -0.997  0.00  0.00    +0.016 C 
ATOM     12  C   UNL     1       0.082  -2.739  -0.460  0.00  0.00    +0.065 C 
ATOM     13  C   UNL     1      -1.810  -2.552  -2.034  0.00  0.00    +0.061 C 
ATOM     14  H   UNL     1      -1.980  -0.153  -0.796  0.00  0.00    +0.152 HD
ENDROOT
BRANCH   1  17
ATOM     15  C   UNL     1       1.072  -3.917   3.943  0.00  0.00    +0.162 A 
ATOM     16  C   UNL     1       1.460  -3.462   2.693  0.00  0.00    +0.054 A 
ATOM     17  C   UNL     1       0.593  -2.695   1.937  0.00  0.00    -0.032 A 
ATOM     18  C   UNL     1      -0.665  -2.388   2.421  0.00  0.00    +0.008 A 
ATOM     19  C   UNL     1      -1.060  -2.842   3.666  0.00  0.00    +0.049 A 
ATOM     20  C   UNL     1      -0.194  -3.607   4.431  0.00  0.00    +0.158 A 
BRANCH  20  21
ATOM     21  O   UNL     1      -0.581  -4.055   5.655  0.00  0.00    -0.503 OA
ATOM     22  H   UNL     1      -1.582  -3.810   6.039  0.00  0.00    +0.292 HD
ENDBRANCH  20  21
BRANCH  15  23
ATOM     23  O   UNL     1       1.925  -4.667   4.690  0.00  0.00    -0.489 OA
BRANCH  23  25
ATOM     24  C   UNL     1       4.022  -5.795   5.104  0.00  0.00    +0.048 C 
ATOM     25  C   UNL     1       3.209  -4.945   4.126  0.00  0.00    +0.226 C 
ENDBRANCH  23  25
ENDBRANCH  15  23
ENDBRANCH   1  17
BRANCH   6  26
ATOM     26  C   UNL     1       3.591   1.923   1.193  0.00  0.00    +0.318 C 
ATOM     27  O   UNL     1       3.992   2.616   0.288  0.00  0.00    -0.250 OA
BRANCH  26  28
ATOM     28  O   UNL     1       4.430   1.545   2.171  0.00  0.00    -0.467 OA
ATOM     29  C   UNL     1       5.804   2.005   2.075  0.00  0.00    +0.280 C 
ENDBRANCH  26  28
ENDBRANCH   6  26
BRANCH  12  30
ATOM     30  C   UNL     1       0.215  -4.082  -0.882  0.00  0.00    +0.338 C 
ATOM     31  O   UNL     1      -0.538  -4.533  -1.724  0.00  0.00    -0.245 OA
BRANCH  30  32
ATOM     32  O   UNL     1       1.179  -4.863  -0.350  0.00  0.00    -0.458 OA
BRANCH  32  33
ATOM     33  C   UNL     1       1.256  -6.210  -0.823  0.00  0.00    +0.177 C 
ATOM     34  C   UNL     1       0.373  -7.107   0.046  0.00  0.00    +0.044 C 
ATOM     35  C   UNL     1       0.456  -8.549  -0.460  0.00  0.00    +0.004 C 
ATOM     36  C   UNL     1       1.905  -9.033  -0.385  0.00  0.00    +0.000 C 
ATOM     37  C   UNL     1       2.789  -8.135  -1.254  0.00  0.00    +0.004 C 
ATOM     38  C   UNL     1       2.706  -6.694  -0.748  0.00  0.00    +0.044 C 
ENDBRANCH  32  33
ENDBRANCH  30  32
ENDBRANCH  12  30
TORSDOF 9
