REMARK  Name = ZINC13501250
REMARK  10 active torsions:
REMARK  status: ('A' for Active; 'I' for Inactive)
REMARK    1  A    between atoms: C_1  and  C_2
REMARK    2  A    between atoms: C_12  and  C_14
REMARK    3  A    between atoms: C_14  and  N_70
REMARK    4  A    between atoms: C_15  and  C_16
REMARK    5  A    between atoms: C_15  and  N_70
REMARK    6  A    between atoms: C_16  and  C_17
REMARK    7  A    between atoms: C_17  and  O_18
REMARK    8  A    between atoms: C_19  and  C_25
REMARK    9  A    between atoms: C_19  and  N_70
REMARK   10  A    between atoms: N_29  and  C_30
REMARK                            x       y       z     vdW  Elec       q    Type
REMARK                         _______ _______ _______ _____ _____    ______ ____
ROOT
ATOM      1  N   UNL     1      -1.529  -0.646   0.003  0.00  0.00    +0.391 N 
ATOM      2  H   UNL     1      -2.164  -0.388  -0.762  0.00  0.00    -0.080 HD
ENDROOT
BRANCH   1   3
ATOM      3  C   UNL     1      -0.293   0.156  -0.107  0.00  0.00    -0.002 C 
ATOM      4  C   UNL     1       0.499  -0.309  -1.331  0.00  0.00    -0.004 C 
ATOM      5  C   UNL     1      -0.360  -0.145  -2.587  0.00  0.00    -0.001 C 
ATOM      6  C   UNL     1      -0.742   1.327  -2.755  0.00  0.00    -0.000 C 
ATOM      7  C   UNL     1      -1.533   1.792  -1.532  0.00  0.00    -0.001 C 
ATOM      8  C   UNL     1      -0.674   1.628  -0.276  0.00  0.00    -0.004 C 
BRANCH   3   9
ATOM      9  C   UNL     1       0.553  -0.005   1.129  0.00  0.00    +0.141 A 
ATOM     10  N   UNL     1       0.231  -0.659   2.218  0.00  0.00    -0.115 NA
ATOM     11  N   UNL     1       1.216  -0.568   3.044  0.00  0.00    -0.023 NA
ATOM     12  N   UNL     1       2.155   0.134   2.513  0.00  0.00    -0.044 NA
ATOM     13  N   UNL     1       1.784   0.500   1.332  0.00  0.00    -0.228 N 
BRANCH  13  14
ATOM     14  C   UNL     1       2.558   1.312   0.390  0.00  0.00    +0.111 C 
ATOM     15  C   UNL     1       3.908   0.629   0.088  0.00  0.00    +0.027 C 
ATOM     16  C   UNL     1       4.910   1.805  -0.027  0.00  0.00    +0.002 C 
ATOM     17  C   UNL     1       4.424   2.779   1.075  0.00  0.00    +0.002 C 
ATOM     18  C   UNL     1       2.886   2.678   1.017  0.00  0.00    +0.027 C 
ENDBRANCH  13  14
ENDBRANCH   3   9
ENDBRANCH   1   3
BRANCH   1  19
ATOM     19  C   UNL     1      -1.209  -2.085  -0.105  0.00  0.00    -0.036 C 
BRANCH  19  31
ATOM     20  C   UNL     1       2.818  -3.820   4.792  0.00  0.00    +0.046 C 
ATOM     21  C   UNL     1       1.321  -3.920   4.652  0.00  0.00    -0.026 A 
ATOM     22  C   UNL     1       0.565  -4.455   5.673  0.00  0.00    +0.005 A 
ATOM     23  C   UNL     1      -0.815  -4.552   5.556  0.00  0.00    +0.001 A 
ATOM     24  C   UNL     1      -1.449  -4.119   4.426  0.00  0.00    +0.010 A 
ATOM     25  C   UNL     1      -0.702  -3.574   3.377  0.00  0.00    -0.001 A 
ATOM     26  C   UNL     1       0.697  -3.474   3.492  0.00  0.00    +0.052 A 
ATOM     27  N   UNL     1       1.429  -2.935   2.455  0.00  0.00    -0.322 N 
ATOM     28  H   UNL     1       2.393  -2.867   2.535  0.00  0.00    +0.169 HD
ATOM     29  C   UNL     1       0.825  -2.503   1.333  0.00  0.00    +0.251 A 
ATOM     30  O   UNL     1       1.504  -2.032   0.437  0.00  0.00    -0.268 OA
ATOM     31  C   UNL     1      -0.574  -2.581   1.169  0.00  0.00    +0.001 A 
ATOM     32  C   UNL     1      -1.350  -3.096   2.154  0.00  0.00    +0.017 A 
ENDBRANCH  19  31
ENDBRANCH   1  19
BRANCH   1  33
ATOM     33  C   UNL     1      -2.196  -0.372   1.293  0.00  0.00    -0.075 C 
BRANCH  33  34
ATOM     34  C   UNL     1      -3.634  -0.890   1.223  0.00  0.00    +0.009 C 
BRANCH  34  35
ATOM     35  C   UNL     1      -4.383  -0.489   2.495  0.00  0.00    +0.154 C 
BRANCH  35  36
ATOM     36  O   UNL     1      -5.726  -0.973   2.430  0.00  0.00    -0.395 OA
ATOM     37  H   UNL     1      -6.261  -0.755   3.205  0.00  0.00    +0.209 HD
ENDBRANCH  35  36
ENDBRANCH  34  35
ENDBRANCH  33  34
ENDBRANCH   1  33
TORSDOF 9
