REMARK  Name = ZINC44010556
REMARK  7 active torsions:
REMARK  status: ('A' for Active; 'I' for Inactive)
REMARK    1  A    between atoms: C_1  and  C_2
REMARK    2  A    between atoms: C_5  and  S_18
REMARK    3  A    between atoms: C_7  and  N_8
REMARK    4  A    between atoms: C_9  and  C_10
REMARK    5  A    between atoms: C_15  and  O_16
REMARK    6  A    between atoms: S_18  and  N_21
REMARK    7  A    between atoms: N_21  and  C_22
REMARK                            x       y       z     vdW  Elec       q    Type
REMARK                         _______ _______ _______ _____ _____    ______ ____
ROOT
ATOM      1  C   UNL     1       0.544   1.443   0.028  0.00  0.00    +0.046 C 
ATOM      2  C   UNL     1       0.264  -0.038   0.013  0.00  0.00    -0.025 A 
ATOM      3  C   UNL     1       0.258  -0.729  -1.181  0.00  0.00    +0.007 A 
ATOM      4  C   UNL     1       0.001  -2.088  -1.196  0.00  0.00    +0.029 A 
ATOM      5  C   UNL     1      -0.253  -2.764  -0.015  0.00  0.00    +0.107 A 
ATOM      6  C   UNL     1      -0.250  -2.086   1.186  0.00  0.00    +0.056 A 
ATOM      7  C   UNL     1       0.015  -0.715   1.209  0.00  0.00    +0.069 A 
ENDROOT
BRANCH   5   8
ATOM      8  S   UNL     1      -0.580  -4.495  -0.047  0.00  0.00    +0.058 S 
ATOM      9  O   UNL     1      -1.323  -4.790   1.128  0.00  0.00    -0.153 OA
ATOM     10  O   UNL     1      -1.064  -4.794  -1.349  0.00  0.00    -0.153 OA
BRANCH   8  11
ATOM     11  N   UNL     1       0.875  -5.271   0.107  0.00  0.00    -0.193 NA
ATOM     12  C   UNL     1       1.649  -5.139   1.344  0.00  0.00    +0.127 C 
ATOM     13  H   UNL     1       1.215  -5.814  -0.622  0.00  0.00    +0.148 HD
ENDBRANCH   8  11
ENDBRANCH   5   8
BRANCH   7  14
ATOM     14  N   UNL     1       0.026  -0.037   2.398  0.00  0.00    -0.255 NA
ATOM     15  C   UNL     1       0.685  -0.516   3.416  0.00  0.00    +0.123 C 
BRANCH  15  16
ATOM     16  C   UNL     1       0.599   0.147   4.725  0.00  0.00    +0.036 A 
ATOM     17  C   UNL     1       1.309  -0.360   5.819  0.00  0.00    +0.033 A 
ATOM     18  C   UNL     1       1.224   0.267   7.044  0.00  0.00    +0.042 A 
ATOM     19  C   UNL     1       0.437   1.399   7.196  0.00  0.00    +0.023 A 
ATOM     20  C   UNL     1      -0.269   1.909   6.125  0.00  0.00    +0.047 A 
ATOM     21  C   UNL     1      -0.191   1.295   4.885  0.00  0.00    +0.126 A 
ATOM     22 CL   UNL     1       2.105  -0.362   8.400  0.00  0.00    -0.084 Cl
BRANCH  21  23
ATOM     23  O   UNL     1      -0.880   1.800   3.830  0.00  0.00    -0.506 OA
ATOM     24  H   UNL     1      -1.773   1.440   3.735  0.00  0.00    +0.292 HD
ENDBRANCH  21  23
ENDBRANCH  15  16
ENDBRANCH   7  14
TORSDOF 5
