REMARK  Name = ZINC39672917
REMARK  5 active torsions:
REMARK  status: ('A' for Active; 'I' for Inactive)
REMARK    1  A    between atoms: C_4  and  C_8
REMARK    2  A    between atoms: C_12  and  C_21
REMARK    3  A    between atoms: N_23  and  C_24
REMARK    4  A    between atoms: C_24  and  C_25
REMARK    5  A    between atoms: C_25  and  N_31
REMARK                            x       y       z     vdW  Elec       q    Type
REMARK                         _______ _______ _______ _____ _____    ______ ____
ROOT
ATOM      1  C   UNL     1       5.504  -0.755  -1.603  0.00  0.00    +0.249 C 
ATOM      2  O   UNL     1       6.701  -0.667  -1.799  0.00  0.00    -0.270 OA
ATOM      3  N   UNL     1       4.985  -1.891  -1.098  0.00  0.00    -0.296 N 
ATOM      4  C   UNL     1       3.560  -2.202  -0.838  0.00  0.00    +0.121 C 
ATOM      5  C   UNL     1       3.401  -3.682  -1.254  0.00  0.00    +0.100 C 
ATOM      6  C   UNL     1       4.816  -4.274  -1.143  0.00  0.00    -0.004 C 
ATOM      7  C   UNL     1       5.712  -3.115  -0.682  0.00  0.00    +0.115 C 
ATOM      8  C   UNL     1       4.839  -5.402  -0.116  0.00  0.00    -0.010 C 
ATOM      9  C   UNL     1       6.242  -6.013  -0.066  0.00  0.00    -0.082 C 
ATOM     10  N   UNL     1       6.601  -6.527  -1.393  0.00  0.00    +0.379 N 
ATOM     11  C   UNL     1       6.668  -5.421  -2.356  0.00  0.00    -0.082 C 
ATOM     12  C   UNL     1       5.283  -4.785  -2.503  0.00  0.00    -0.010 C 
ATOM     13  H   UNL     1       7.500  -6.983  -1.343  0.00  0.00    -0.086 HD
ATOM     14  H   UNL     1       5.905  -7.192  -1.694  0.00  0.00    -0.086 HD
ENDROOT
BRANCH   1  18
ATOM     15  C   UNL     1       2.957   2.521  -2.517  0.00  0.00    +0.023 A 
ATOM     16  C   UNL     1       4.182   2.407  -3.147  0.00  0.00    +0.040 A 
ATOM     17  C   UNL     1       5.017   1.344  -2.856  0.00  0.00    +0.136 A 
ATOM     18  C   UNL     1       4.619   0.384  -1.920  0.00  0.00    +0.073 A 
ATOM     19  C   UNL     1       3.380   0.507  -1.288  0.00  0.00    +0.036 A 
ATOM     20  C   UNL     1       2.557   1.573  -1.589  0.00  0.00    +0.042 A 
ATOM     21 CL   UNL     1       1.017   1.726  -0.803  0.00  0.00    -0.084 Cl
ATOM     22  F   UNL     1       6.213   1.234  -3.474  0.00  0.00    -0.205 F 
ENDBRANCH   1  18
BRANCH   5  23
ATOM     23  C   UNL     1       2.899  -3.778  -2.671  0.00  0.00    +0.218 C 
ATOM     24  O   UNL     1       3.189  -2.919  -3.477  0.00  0.00    -0.275 OA
ATOM     25  N   UNL     1       2.128  -4.819  -3.044  0.00  0.00    -0.313 N 
ATOM     26  H   UNL     1       1.963  -5.547  -2.424  0.00  0.00    +0.149 HD
BRANCH  25  27
ATOM     27  C   UNL     1       1.538  -4.851  -4.384  0.00  0.00    +0.126 C 
BRANCH  27  28
ATOM     28  C   UNL     1       0.566  -6.028  -4.486  0.00  0.00    +0.038 C 
ATOM     29  C   UNL     1       1.290  -7.322  -4.110  0.00  0.00    +0.024 C 
ATOM     30  C   UNL     1       2.464  -7.546  -5.066  0.00  0.00    +0.002 C 
ATOM     31  C   UNL     1       1.940  -7.652  -6.500  0.00  0.00    +0.000 C 
ATOM     32  C   UNL     1       1.216  -6.358  -6.876  0.00  0.00    +0.002 C 
ATOM     33  C   UNL     1       0.043  -6.134  -5.920  0.00  0.00    +0.024 C 
BRANCH  28  34
ATOM     34  N   UNL     1      -0.560  -5.813  -3.568  0.00  0.00    -0.291 NA
ATOM     35  C   UNL     1      -1.297  -4.588  -3.915  0.00  0.00    +0.113 C 
ATOM     36  C   UNL     1      -2.494  -4.435  -2.973  0.00  0.00    +0.175 C 
ATOM     37  O   UNL     1      -2.031  -4.424  -1.620  0.00  0.00    -0.377 OA
ATOM     38  C   UNL     1      -1.311  -5.602  -1.248  0.00  0.00    +0.175 C 
ATOM     39  C   UNL     1      -0.101  -5.767  -2.172  0.00  0.00    +0.113 C 
ENDBRANCH  28  34
ENDBRANCH  27  28
ENDBRANCH  25  27
ENDBRANCH   5  23
TORSDOF 5
