REMARK  Name = ZINC63598843
REMARK  5 active torsions:
REMARK  status: ('A' for Active; 'I' for Inactive)
REMARK    1  A    between atoms: C_6  and  C_7
REMARK    2  A    between atoms: N_8  and  N_9
REMARK    3  A    between atoms: C_10  and  C_12
REMARK    4  A    between atoms: C_17  and  O_22
REMARK    5  A    between atoms: O_22  and  C_23
REMARK                            x       y       z     vdW  Elec       q    Type
REMARK                         _______ _______ _______ _____ _____    ______ ____
ROOT
ATOM      1  C   UNL     1      -3.715  -4.901   0.013  0.00  0.00    +0.191 C 
ATOM      2  C   UNL     1      -4.290  -4.971  -1.384  0.00  0.00    +0.016 C 
ATOM      3  C   UNL     1      -4.348  -6.285  -1.701  0.00  0.00    -0.000 A 
ATOM      4  C   UNL     1      -4.803  -7.002  -2.897  0.00  0.00    +0.055 A 
ATOM      5  C   UNL     1      -4.741  -8.354  -2.928  0.00  0.00    +0.131 A 
ATOM      6  C   UNL     1      -4.250  -9.108  -1.847  0.00  0.00    +0.048 A 
ATOM      7  C   UNL     1      -3.809  -8.540  -0.705  0.00  0.00    +0.029 A 
ATOM      8  C   UNL     1      -3.832  -7.080  -0.563  0.00  0.00    +0.043 A 
ATOM      9  N   UNL     1      -3.470  -6.290   0.419  0.00  0.00    -0.370 N 
ATOM     10  H   UNL     1      -3.102  -6.574   1.270  0.00  0.00    +0.161 HD
ENDROOT
BRANCH   1  12
ATOM     11  N   UNL     1      -2.444  -2.779   0.011  0.00  0.00    -0.205 N 
ATOM     12  C   UNL     1      -2.422  -4.127   0.004  0.00  0.00    +0.259 C 
ATOM     13  O   UNL     1      -1.362  -4.716  -0.010  0.00  0.00    -0.271 OA
ATOM     14  H   UNL     1      -3.292  -2.308   0.022  0.00  0.00    +0.177 HD
BRANCH  11  16
ATOM     15  C   UNL     1      -1.263  -0.762   0.011  0.00  0.00    +0.138 C 
ATOM     16  N   UNL     1      -1.242  -2.059   0.003  0.00  0.00    -0.188 NA
BRANCH  15  22
ATOM     17  C   UNL     1      -0.017   1.393   0.010  0.00  0.00    +0.011 A 
ATOM     18  C   UNL     1       1.170   2.095   0.002  0.00  0.00    +0.020 A 
ATOM     19  C   UNL     1       2.378   1.419  -0.013  0.00  0.00    +0.041 A 
ATOM     20  C   UNL     1       2.404   0.035  -0.021  0.00  0.00    +0.020 A 
ATOM     21  C   UNL     1       1.225  -0.680  -0.013  0.00  0.00    +0.011 A 
ATOM     22  C   UNL     1       0.002  -0.004   0.002  0.00  0.00    -0.005 A 
ATOM     23 CL   UNL     1       3.868   2.311  -0.024  0.00  0.00    -0.084 Cl
ENDBRANCH  15  22
ENDBRANCH  11  16
ENDBRANCH   1  12
BRANCH   5  24
ATOM     24  O   UNL     1      -5.167  -9.005  -4.043  0.00  0.00    -0.406 OA
BRANCH  24  25
ATOM     25  C   UNL     1      -5.083 -10.432  -4.033  0.00  0.00    +0.575 C 
ATOM     26  F   UNL     1      -5.858 -10.937  -2.983  0.00  0.00    -0.133 F 
ATOM     27  F   UNL     1      -5.558 -10.935  -5.248  0.00  0.00    -0.133 F 
ATOM     28  F   UNL     1      -3.750 -10.819  -3.857  0.00  0.00    -0.133 F 
ENDBRANCH  24  25
ENDBRANCH   5  24
TORSDOF 5
