REMARK  Name = ZINC59460771
REMARK  8 active torsions:
REMARK  status: ('A' for Active; 'I' for Inactive)
REMARK    1  A    between atoms: C_4  and  C_7
REMARK    2  A    between atoms: C_10  and  C_13
REMARK    3  A    between atoms: C_13  and  C_25
REMARK    4  A    between atoms: N_14  and  N_15
REMARK    5  A    between atoms: C_16  and  C_18
REMARK    6  A    between atoms: C_23  and  O_24
REMARK    7  A    between atoms: C_25  and  S_26
REMARK    8  A    between atoms: S_26  and  C_27
REMARK                            x       y       z     vdW  Elec       q    Type
REMARK                         _______ _______ _______ _____ _____    ______ ____
ROOT
ATOM      1  C   UNL     1       7.407  -2.752  -0.100  0.00  0.00    +0.077 C 
ATOM      2  N   UNL     1       8.520  -2.088  -0.189  0.00  0.00    -0.183 NA
ENDROOT
BRANCH   1   6
ATOM      3  C   UNL     1       3.693  -0.699  -0.234  0.00  0.00    -0.018 A 
ATOM      4  C   UNL     1       3.863  -1.775   0.637  0.00  0.00    +0.009 A 
ATOM      5  C   UNL     1       5.066  -2.442   0.682  0.00  0.00    +0.010 A 
ATOM      6  C   UNL     1       6.118  -2.040  -0.147  0.00  0.00    -0.001 A 
ATOM      7  C   UNL     1       5.946  -0.961  -1.020  0.00  0.00    +0.010 A 
ATOM      8  C   UNL     1       4.740  -0.300  -1.065  0.00  0.00    +0.009 A 
BRANCH   3  12
ATOM      9  C   UNL     1      -0.025   1.358  -0.367  0.00  0.00    +0.000 A 
ATOM     10  C   UNL     1       0.143   0.294   0.501  0.00  0.00    +0.001 A 
ATOM     11  C   UNL     1       1.348  -0.377   0.549  0.00  0.00    +0.008 A 
ATOM     12  C   UNL     1       2.396   0.018  -0.281  0.00  0.00    -0.018 A 
ATOM     13  C   UNL     1       2.221   1.091  -1.153  0.00  0.00    +0.008 A 
ATOM     14  C   UNL     1       1.012   1.756  -1.192  0.00  0.00    +0.001 A 
ENDBRANCH   3  12
ENDBRANCH   1   6
BRANCH   2  15
ATOM     15  N   UNL     1       8.502  -0.688  -0.176  0.00  0.00    -0.203 N 
ATOM     16  C   UNL     1       9.641   0.003  -0.382  0.00  0.00    +0.267 C 
ATOM     17  O   UNL     1      10.685  -0.591  -0.579  0.00  0.00    -0.268 OA
ATOM     18  H   UNL     1       7.670  -0.214  -0.019  0.00  0.00    +0.178 HD
BRANCH  16  19
ATOM     19  C   UNL     1       9.623   1.477  -0.368  0.00  0.00    +0.080 A 
ATOM     20  C   UNL     1       8.428   2.163  -0.137  0.00  0.00    +0.017 A 
ATOM     21  C   UNL     1       8.417   3.541  -0.126  0.00  0.00    +0.001 A 
ATOM     22  C   UNL     1       9.587   4.250  -0.343  0.00  0.00    +0.004 A 
ATOM     23  C   UNL     1      10.775   3.586  -0.574  0.00  0.00    +0.046 A 
ATOM     24  C   UNL     1      10.805   2.199  -0.582  0.00  0.00    +0.129 A 
BRANCH  24  25
ATOM     25  O   UNL     1      11.973   1.544  -0.803  0.00  0.00    -0.506 OA
ATOM     26  H   UNL     1      12.151   1.360  -1.735  0.00  0.00    +0.292 HD
ENDBRANCH  24  25
ENDBRANCH  16  19
ENDBRANCH   2  15
BRANCH   1  27
ATOM     27  C   UNL     1       7.435  -4.252   0.051  0.00  0.00    +0.135 C 
BRANCH  27  28
ATOM     28  S   UNL     1       9.155  -4.825   0.075  0.00  0.00    -0.082 S 
BRANCH  28  29
ATOM     29  C   UNL     1       9.019  -6.573   0.254  0.00  0.00    +0.168 A 
ATOM     30  N   UNL     1      10.073  -7.439   0.326  0.00  0.00    -0.333 N 
ATOM     31  H   UNL     1      11.014  -7.206   0.289  0.00  0.00    +0.168 HD
ATOM     32  C   UNL     1       9.548  -8.714   0.463  0.00  0.00    +0.067 A 
ATOM     33  C   UNL     1      10.109  -9.977   0.582  0.00  0.00    +0.028 A 
ATOM     34  C   UNL     1       9.292 -11.082   0.706  0.00  0.00    +0.002 A 
ATOM     35  C   UNL     1       7.912 -10.939   0.711  0.00  0.00    +0.002 A 
ATOM     36  C   UNL     1       7.339  -9.693   0.594  0.00  0.00    +0.030 A 
ATOM     37  C   UNL     1       8.152  -8.563   0.468  0.00  0.00    +0.090 A 
ATOM     38  N   UNL     1       7.892  -7.236   0.343  0.00  0.00    -0.222 NA
ENDBRANCH  28  29
ENDBRANCH  27  28
ENDBRANCH   1  27
TORSDOF 8
