REMARK  Name = ZINC27570617
REMARK  12 active torsions:
REMARK  status: ('A' for Active; 'I' for Inactive)
REMARK    1  A    between atoms: C_1  and  C_2
REMARK    2  A    between atoms: C_2  and  C_3
REMARK    3  A    between atoms: C_2  and  C_4
REMARK    4  A    between atoms: C_4  and  C_6
REMARK    5  A    between atoms: C_4  and  N_25
REMARK    6  A    between atoms: N_8  and  C_9
REMARK    7  A    between atoms: C_9  and  C_10
REMARK    8  A    between atoms: C_10  and  C_12
REMARK    9  A    between atoms: C_10  and  N_20
REMARK   10  A    between atoms: C_17  and  O_18
REMARK   11  A    between atoms: O_18  and  C_19
REMARK   12  A    between atoms: C_26  and  C_28
REMARK                            x       y       z     vdW  Elec       q    Type
REMARK                         _______ _______ _______ _____ _____    ______ ____
ROOT
ATOM      1  C   UNL     1      -0.992  -0.815  -0.106  0.00  0.00    +0.234 C 
ATOM      2  O   UNL     1      -2.057  -0.324   0.203  0.00  0.00    -0.274 OA
ATOM      3  N   UNL     1       0.083  -0.025  -0.303  0.00  0.00    -0.315 N 
ATOM      4  H   UNL     1       1.027  -0.460  -0.663  0.00  0.00    +0.149 HD
ENDROOT
BRANCH   1   5
ATOM      5  C   UNL     1      -0.870  -2.308  -0.272  0.00  0.00    +0.162 C 
BRANCH   5   6
ATOM      6  N   UNL     1      -2.202  -2.889  -0.452  0.00  0.00    -0.300 N 
ATOM      7  C   UNL     1      -2.343  -4.063  -1.100  0.00  0.00    +0.250 C 
ATOM      8  O   UNL     1      -1.364  -4.638  -1.535  0.00  0.00    -0.270 OA
ATOM      9  H   UNL     1      -3.087  -2.369  -0.058  0.00  0.00    +0.150 HD
BRANCH   7  10
ATOM     10  C   UNL     1      -3.685  -4.649  -1.281  0.00  0.00    +0.107 A 
ATOM     11  C   UNL     1      -4.444  -4.331  -2.413  0.00  0.00    +0.138 A 
ATOM     12  C   UNL     1      -5.698  -4.889  -2.577  0.00  0.00    +0.039 A 
ATOM     13  C   UNL     1      -6.207  -5.750  -1.623  0.00  0.00    +0.006 A 
ATOM     14  C   UNL     1      -5.465  -6.065  -0.498  0.00  0.00    +0.039 A 
ATOM     15  C   UNL     1      -4.207  -5.521  -0.320  0.00  0.00    +0.138 A 
ATOM     16  F   UNL     1      -3.485  -5.830   0.779  0.00  0.00    -0.205 F 
ATOM     17  F   UNL     1      -3.951  -3.485  -3.344  0.00  0.00    -0.205 F 
ENDBRANCH   7  10
ENDBRANCH   5   6
BRANCH   5  19
ATOM     18  C   UNL     1      -1.112  -2.659   2.190  0.00  0.00    +0.009 C 
ATOM     19  C   UNL     1      -0.216  -2.907   0.975  0.00  0.00    +0.012 C 
ATOM     20  C   UNL     1      -0.028  -4.412   0.779  0.00  0.00    +0.009 C 
ENDBRANCH   5  19
ENDBRANCH   1   5
BRANCH   3  21
ATOM     21  C   UNL     1      -0.007   1.413  -0.038  0.00  0.00    +0.093 C 
BRANCH  21  22
ATOM     22  C   UNL     1       1.367   2.055  -0.238  0.00  0.00    -0.017 C 
BRANCH  22  23
ATOM     23  C   UNL     1       1.770   1.939  -1.685  0.00  0.00    -0.018 A 
ATOM     24  C   UNL     1       2.567   0.888  -2.099  0.00  0.00    +0.005 A 
ATOM     25  C   UNL     1       2.937   0.781  -3.426  0.00  0.00    +0.000 A 
ATOM     26  C   UNL     1       2.511   1.724  -4.344  0.00  0.00    +0.004 A 
ATOM     27  C   UNL     1       1.714   2.776  -3.935  0.00  0.00    +0.046 A 
ATOM     28  C   UNL     1       1.337   2.883  -2.604  0.00  0.00    +0.122 A 
BRANCH  28  29
ATOM     29  O   UNL     1       0.549   3.914  -2.201  0.00  0.00    -0.495 OA
ATOM     30  C   UNL     1       0.141   4.849  -3.202  0.00  0.00    +0.277 C 
ENDBRANCH  28  29
ENDBRANCH  22  23
BRANCH  22  31
ATOM     31  N   UNL     1       2.357   1.367   0.603  0.00  0.00    +0.385 N 
ATOM     32  C   UNL     1       3.698   1.989   0.464  0.00  0.00    -0.078 C 
ATOM     33  C   UNL     1       4.438   1.525   1.744  0.00  0.00    -0.020 C 
ATOM     34  C   UNL     1       3.328   1.565   2.819  0.00  0.00    -0.020 C 
ATOM     35  C   UNL     1       2.006   1.480   2.035  0.00  0.00    -0.078 C 
ATOM     36  H   UNL     1       2.355   0.319   0.269  0.00  0.00    -0.081 HD
ENDBRANCH  22  31
ENDBRANCH  21  22
ENDBRANCH   3  21
TORSDOF 9
