REMARK  Name = ZINC45639704
REMARK  7 active torsions:
REMARK  status: ('A' for Active; 'I' for Inactive)
REMARK    1  A    between atoms: C_1  and  C_2
REMARK    2  A    between atoms: C_6  and  C_25
REMARK    3  A    between atoms: C_8  and  N_11
REMARK    4  A    between atoms: N_14  and  N_15
REMARK    5  A    between atoms: C_16  and  C_18
REMARK    6  A    between atoms: C_25  and  C_26
REMARK    7  A    between atoms: C_25  and  C_27
REMARK                            x       y       z     vdW  Elec       q    Type
REMARK                         _______ _______ _______ _____ _____    ______ ____
ROOT
ATOM      1  N   UNL     1       2.763  -0.519   2.499  0.00  0.00    -0.295 N 
ATOM      2  C   UNL     1       2.509   0.086   3.676  0.00  0.00    +0.316 C 
ATOM      3  O   UNL     1       1.776   1.055   3.716  0.00  0.00    -0.251 OA
ATOM      4  N   UNL     1       3.069  -0.382   4.809  0.00  0.00    -0.218 N 
ATOM      5  H   UNL     1       3.348  -1.292   2.467  0.00  0.00    +0.151 HD
ATOM      6  H   UNL     1       2.886   0.054   5.656  0.00  0.00    +0.174 HD
ENDROOT
BRANCH   1  12
ATOM      7  C   UNL     1       0.055   1.507  -0.102  0.00  0.00    +0.007 C 
ATOM      8  C   UNL     1       0.095  -0.022  -0.147  0.00  0.00    -0.012 C 
ATOM      9  C   UNL     1       0.924  -0.474  -1.351  0.00  0.00    +0.004 C 
ATOM     10  C   UNL     1       2.348   0.070  -1.222  0.00  0.00    +0.006 C 
ATOM     11  C   UNL     1       2.984  -0.462   0.064  0.00  0.00    +0.012 C 
ATOM     12  C   UNL     1       2.155  -0.009   1.267  0.00  0.00    +0.078 C 
ATOM     13  C   UNL     1       0.730  -0.554   1.139  0.00  0.00    +0.026 C 
BRANCH  11  14
ATOM     14  C   UNL     1       4.408   0.082   0.192  0.00  0.00    -0.012 C 
ATOM     15  C   UNL     1       5.276  -0.490  -0.931  0.00  0.00    +0.007 C 
ATOM     16  C   UNL     1       4.382   1.608   0.089  0.00  0.00    +0.007 C 
ENDBRANCH  11  14
ENDBRANCH   1  12
BRANCH   4  17
ATOM     17  N   UNL     1       3.914  -1.498   4.763  0.00  0.00    -0.228 N 
ATOM     18  C   UNL     1       4.474  -1.967   5.896  0.00  0.00    +0.276 C 
ATOM     19  O   UNL     1       4.245  -1.420   6.959  0.00  0.00    -0.267 OA
ATOM     20  H   UNL     1       4.097  -1.934   3.916  0.00  0.00    +0.173 HD
BRANCH  18  21
ATOM     21  C   UNL     1       5.359  -3.135   5.848  0.00  0.00    +0.104 A 
ATOM     22  C   UNL     1       5.992  -3.723   6.923  0.00  0.00    +0.047 A 
ATOM     23  C   UNL     1       6.731  -4.802   6.426  0.00  0.00    +0.036 A 
ATOM     24  C   UNL     1       6.540  -4.853   5.085  0.00  0.00    +0.098 A 
ATOM     25  N   UNL     1       5.704  -3.848   4.723  0.00  0.00    -0.356 N 
ATOM     26  H   UNL     1       5.402  -3.662   3.820  0.00  0.00    +0.166 HD
ATOM     27 BR   UNL     1       7.805  -5.979   7.444  0.00  0.00    -0.049 Br
ENDBRANCH  18  21
ENDBRANCH   4  17
TORSDOF 4
