REMARK  Name = ZINC39691176
REMARK  8 active torsions:
REMARK  status: ('A' for Active; 'I' for Inactive)
REMARK    1  A    between atoms: C_1  and  C_2
REMARK    2  A    between atoms: C_7  and  C_8
REMARK    3  A    between atoms: C_8  and  C_9
REMARK    4  A    between atoms: C_9  and  N_10
REMARK    5  A    between atoms: C_11  and  C_13
REMARK    6  A    between atoms: C_24  and  C_26
REMARK    7  A    between atoms: C_26  and  O_27
REMARK    8  A    between atoms: O_27  and  C_28
REMARK                            x       y       z     vdW  Elec       q    Type
REMARK                         _______ _______ _______ _____ _____    ______ ____
ROOT
ATOM      1  C   UNL     1      -2.571   2.266   6.027  0.00  0.00    +0.100 C 
ATOM      2  C   UNL     1      -2.123   1.335   7.176  0.00  0.00    +0.121 C 
ATOM      3  N   UNL     1      -2.964   1.734   8.330  0.00  0.00    -0.297 N 
ATOM      4  C   UNL     1      -4.299   1.994   7.741  0.00  0.00    +0.115 C 
ATOM      5  C   UNL     1      -4.000   2.695   6.401  0.00  0.00    -0.004 C 
ATOM      6  C   UNL     1      -4.987   2.234   5.333  0.00  0.00    -0.010 C 
ATOM      7  C   UNL     1      -6.392   2.724   5.697  0.00  0.00    -0.082 C 
ATOM      8  N   UNL     1      -6.392   4.188   5.793  0.00  0.00    +0.379 N 
ATOM      9  C   UNL     1      -5.511   4.619   6.884  0.00  0.00    -0.082 C 
ATOM     10  C   UNL     1      -4.069   4.210   6.570  0.00  0.00    -0.010 C 
ATOM     11  C   UNL     1      -2.597   1.836   9.622  0.00  0.00    +0.253 C 
ATOM     12  O   UNL     1      -3.407   2.177  10.457  0.00  0.00    -0.272 OA
ATOM     13  H   UNL     1      -6.065   4.581   4.923  0.00  0.00    -0.086 HD
ATOM     14  H   UNL     1      -7.331   4.512   5.972  0.00  0.00    -0.086 HD
ENDROOT
BRANCH   1  16
ATOM     15  N   UNL     1      -2.362   2.182   3.563  0.00  0.00    -0.315 N 
ATOM     16  C   UNL     1      -2.574   1.519   4.718  0.00  0.00    +0.218 C 
ATOM     17  O   UNL     1      -2.767   0.322   4.702  0.00  0.00    -0.275 OA
ATOM     18  H   UNL     1      -2.207   3.140   3.575  0.00  0.00    +0.149 HD
BRANCH  15  19
ATOM     19  C   UNL     1      -2.364   1.457   2.291  0.00  0.00    +0.109 C 
BRANCH  19  20
ATOM     20  C   UNL     1      -2.101   2.436   1.145  0.00  0.00    +0.054 C 
BRANCH  20  27
ATOM     21  C   UNL     1      -4.594   1.932  -0.226  0.00  0.00    +0.044 C 
ATOM     22  C   UNL     1      -3.296   1.448  -0.820  0.00  0.00    -0.047 A 
ATOM     23  C   UNL     1      -3.297   0.768  -2.024  0.00  0.00    +0.003 A 
ATOM     24  C   UNL     1      -2.107   0.325  -2.569  0.00  0.00    +0.000 A 
ATOM     25  C   UNL     1      -0.915   0.562  -1.910  0.00  0.00    +0.000 A 
ATOM     26  C   UNL     1      -0.913   1.242  -0.707  0.00  0.00    +0.004 A 
ATOM     27  C   UNL     1      -2.103   1.689  -0.164  0.00  0.00    -0.043 A 
ENDBRANCH  20  27
ENDBRANCH  19  20
ENDBRANCH  15  19
ENDBRANCH   1  16
BRANCH  11  28
ATOM     28  C   UNL     1      -1.179   1.527  10.030  0.00  0.00    +0.324 C 
BRANCH  28  29
ATOM     29  O   UNL     1      -1.039   1.708  11.441  0.00  0.00    -0.483 OA
BRANCH  29  30
ATOM     30  C   UNL     1       0.187   1.468  11.975  0.00  0.00    +0.123 A 
ATOM     31  C   UNL     1       1.236   1.073  11.156  0.00  0.00    +0.046 A 
ATOM     32  C   UNL     1       2.482   0.830  11.701  0.00  0.00    +0.005 A 
ATOM     33  C   UNL     1       2.686   0.981  13.060  0.00  0.00    +0.020 A 
ATOM     34  C   UNL     1       1.642   1.374  13.879  0.00  0.00    +0.044 A 
ATOM     35  C   UNL     1       0.394   1.623  13.337  0.00  0.00    +0.065 A 
ATOM     36 CL   UNL     1       1.900   1.561  15.585  0.00  0.00    -0.083 Cl
ENDBRANCH  29  30
ENDBRANCH  28  29
ENDBRANCH  11  28
TORSDOF 7
