REMARK  Name = ZINC39605098
REMARK  11 active torsions:
REMARK  status: ('A' for Active; 'I' for Inactive)
REMARK    1  A    between atoms: C_1  and  C_2
REMARK    2  A    between atoms: C_2  and  C_3
REMARK    3  A    between atoms: C_2  and  O_4
REMARK    4  A    between atoms: O_4  and  C_5
REMARK    5  A    between atoms: C_5  and  C_6
REMARK    6  A    between atoms: C_6  and  C_7
REMARK    7  A    between atoms: C_7  and  N_8
REMARK    8  A    between atoms: C_9  and  C_11
REMARK    9  A    between atoms: C_22  and  C_24
REMARK   10  A    between atoms: C_27  and  O_30
REMARK   11  A    between atoms: O_30  and  C_31
REMARK                            x       y       z     vdW  Elec       q    Type
REMARK                         _______ _______ _______ _____ _____    ______ ____
ROOT
ATOM      1  C   UNL     1      -5.908  -5.829  -1.277  0.00  0.00    +0.100 C 
ATOM      2  C   UNL     1      -6.612  -6.007   0.087  0.00  0.00    +0.121 C 
ATOM      3  N   UNL     1      -7.548  -7.137  -0.119  0.00  0.00    -0.296 N 
ATOM      4  C   UNL     1      -6.793  -8.091  -0.967  0.00  0.00    +0.115 C 
ATOM      5  C   UNL     1      -6.029  -7.199  -1.965  0.00  0.00    -0.004 C 
ATOM      6  C   UNL     1      -4.643  -7.778  -2.235  0.00  0.00    -0.010 C 
ATOM      7  C   UNL     1      -4.787  -9.112  -2.972  0.00  0.00    -0.082 C 
ATOM      8  N   UNL     1      -5.506  -8.902  -4.234  0.00  0.00    +0.379 N 
ATOM      9  C   UNL     1      -6.870  -8.433  -3.961  0.00  0.00    -0.082 C 
ATOM     10  C   UNL     1      -6.814  -7.069  -3.266  0.00  0.00    -0.010 C 
ATOM     11  C   UNL     1      -8.802  -7.268   0.357  0.00  0.00    +0.247 C 
ATOM     12  O   UNL     1      -9.333  -6.340   0.934  0.00  0.00    -0.270 OA
ATOM     13  H   UNL     1      -5.019  -8.211  -4.786  0.00  0.00    -0.086 HD
ATOM     14  H   UNL     1      -5.547  -9.770  -4.746  0.00  0.00    -0.086 HD
ENDROOT
BRANCH  11  15
ATOM     15  C   UNL     1      -9.530  -8.539   0.176  0.00  0.00    +0.037 A 
ATOM     16  C   UNL     1      -8.827  -9.720  -0.075  0.00  0.00    +0.016 A 
ATOM     17  C   UNL     1      -9.511 -10.904  -0.242  0.00  0.00    +0.047 A 
ATOM     18  C   UNL     1     -10.898 -10.925  -0.162  0.00  0.00    +0.130 A 
ATOM     19  C   UNL     1     -11.601  -9.752   0.087  0.00  0.00    +0.047 A 
ATOM     20  C   UNL     1     -10.925  -8.566   0.262  0.00  0.00    +0.016 A 
BRANCH  18  21
ATOM     21  O   UNL     1     -11.568 -12.094  -0.328  0.00  0.00    -0.406 OA
BRANCH  21  22
ATOM     22  C   UNL     1     -12.993 -12.044  -0.234  0.00  0.00    +0.575 C 
ATOM     23  F   UNL     1     -13.495 -11.180  -1.213  0.00  0.00    -0.133 F 
ATOM     24  F   UNL     1     -13.518 -13.325  -0.429  0.00  0.00    -0.133 F 
ATOM     25  F   UNL     1     -13.360 -11.577   1.033  0.00  0.00    -0.133 F 
ENDBRANCH  21  22
ENDBRANCH  18  21
ENDBRANCH  11  15
BRANCH   1  27
ATOM     26  N   UNL     1      -3.822  -4.705  -1.988  0.00  0.00    -0.315 N 
ATOM     27  C   UNL     1      -4.459  -5.467  -1.077  0.00  0.00    +0.218 C 
ATOM     28  O   UNL     1      -3.866  -5.862  -0.095  0.00  0.00    -0.275 OA
ATOM     29  H   UNL     1      -4.297  -4.390  -2.773  0.00  0.00    +0.149 HD
BRANCH  26  30
ATOM     30  C   UNL     1      -2.414  -4.354  -1.794  0.00  0.00    +0.106 C 
BRANCH  30  31
ATOM     31  C   UNL     1      -1.937  -3.490  -2.963  0.00  0.00    +0.047 C 
BRANCH  31  32
ATOM     32  C   UNL     1      -0.466  -3.123  -2.760  0.00  0.00    +0.161 C 
BRANCH  32  33
ATOM     33  O   UNL     1      -0.021  -2.316  -3.852  0.00  0.00    -0.377 OA
BRANCH  33  35
ATOM     34  C   UNL     1       1.927  -1.751  -5.165  0.00  0.00    +0.037 C 
ATOM     35  C   UNL     1       1.348  -1.917  -3.759  0.00  0.00    +0.112 C 
ATOM     36  C   UNL     1       1.442  -0.586  -3.009  0.00  0.00    +0.037 C 
ENDBRANCH  33  35
ENDBRANCH  32  33
ENDBRANCH  31  32
ENDBRANCH  30  31
ENDBRANCH  26  30
ENDBRANCH   1  27
TORSDOF 9
