REMARK  Name = ZINC36685104
REMARK  13 active torsions:
REMARK  status: ('A' for Active; 'I' for Inactive)
REMARK    1  A    between atoms: C_1  and  C_2
REMARK    2  A    between atoms: C_2  and  C_3
REMARK    3  A    between atoms: C_2  and  C_4
REMARK    4  A    between atoms: C_4  and  C_6
REMARK    5  A    between atoms: C_4  and  N_20
REMARK    6  A    between atoms: N_8  and  C_9
REMARK    7  A    between atoms: C_9  and  C_10
REMARK    8  A    between atoms: C_10  and  C_12
REMARK    9  A    between atoms: C_10  and  N_17
REMARK   10  A    between atoms: N_17  and  C_18
REMARK   11  A    between atoms: N_17  and  C_19
REMARK   12  A    between atoms: N_20  and  S_21
REMARK   13  A    between atoms: S_21  and  C_24
REMARK                            x       y       z     vdW  Elec       q    Type
REMARK                         _______ _______ _______ _____ _____    ______ ____
ROOT
ATOM      1  C   UNL     1      -1.107  -0.415  -0.030  0.00  0.00    +0.165 C 
ENDROOT
BRANCH   1   2
ATOM      2  C   UNL     1      -2.359  -0.115  -0.813  0.00  0.00    +0.232 C 
ATOM      3  O   UNL     1      -2.962  -1.013  -1.361  0.00  0.00    -0.274 OA
ATOM      4  N   UNL     1      -2.809   1.153  -0.905  0.00  0.00    -0.315 N 
ATOM      5  H   UNL     1      -2.286   1.881  -0.535  0.00  0.00    +0.149 HD
BRANCH   4   6
ATOM      6  C   UNL     1      -4.088   1.430  -1.563  0.00  0.00    +0.094 C 
BRANCH   6   7
ATOM      7  C   UNL     1      -4.309   2.942  -1.631  0.00  0.00    -0.014 C 
BRANCH   7   8
ATOM      8  C   UNL     1      -4.444   3.493  -0.234  0.00  0.00    -0.022 A 
ATOM      9  C   UNL     1      -3.520   4.130   0.525  0.00  0.00    +0.009 A 
ATOM     10  C   UNL     1      -3.871   4.553   1.794  0.00  0.00    +0.008 A 
ATOM     11  C   UNL     1      -5.129   4.319   2.240  0.00  0.00    +0.045 A 
ATOM     12  S   UNL     1      -5.866   3.483   0.845  0.00  0.00    -0.103 S 
ENDBRANCH   7   8
BRANCH   7  13
ATOM     13  N   UNL     1      -5.535   3.225  -2.389  0.00  0.00    +0.382 N 
ATOM     14  C   UNL     1      -5.724   4.678  -2.492  0.00  0.00    -0.096 C 
ATOM     15  C   UNL     1      -5.421   2.650  -3.736  0.00  0.00    -0.096 C 
ATOM     16  H   UNL     1      -6.326   2.815  -1.915  0.00  0.00    -0.082 HD
ENDBRANCH   7  13
ENDBRANCH   6   7
ENDBRANCH   4   6
ENDBRANCH   1   2
BRANCH   1  18
ATOM     17  C   UNL     1       1.373  -0.114   0.033  0.00  0.00    +0.009 C 
ATOM     18  C   UNL     1       0.115   0.060  -0.820  0.00  0.00    +0.010 C 
ATOM     19  C   UNL     1       0.247  -0.767  -2.100  0.00  0.00    +0.009 C 
ENDBRANCH   1  18
BRANCH   1  20
ATOM     20  N   UNL     1      -1.009  -1.859   0.199  0.00  0.00    -0.178 NA
ATOM     21  H   UNL     1      -0.899  -2.463  -0.552  0.00  0.00    +0.149 HD
BRANCH  20  22
ATOM     22  S   UNL     1      -1.085  -2.459   1.740  0.00  0.00    +0.059 S 
ATOM     23  O   UNL     1      -1.079  -3.876   1.625  0.00  0.00    -0.153 OA
ATOM     24  O   UNL     1      -0.115  -1.752   2.500  0.00  0.00    -0.153 OA
BRANCH  22  25
ATOM     25  C   UNL     1      -2.660  -2.015   2.395  0.00  0.00    +0.105 A 
ATOM     26  C   UNL     1      -2.815  -0.817   3.067  0.00  0.00    +0.029 A 
ATOM     27  C   UNL     1      -4.050  -0.468   3.581  0.00  0.00    +0.017 A 
ATOM     28  C   UNL     1      -5.130  -1.317   3.421  0.00  0.00    +0.018 A 
ATOM     29  C   UNL     1      -4.974  -2.515   2.748  0.00  0.00    +0.017 A 
ATOM     30  C   UNL     1      -3.740  -2.861   2.231  0.00  0.00    +0.029 A 
ATOM     31 BR   UNL     1      -6.820  -0.840   4.124  0.00  0.00    -0.050 Br
ENDBRANCH  22  25
ENDBRANCH  20  22
ENDBRANCH   1  20
TORSDOF 9
