REMARK  Name = ZINC06721894
REMARK  6 active torsions:
REMARK  status: ('A' for Active; 'I' for Inactive)
REMARK    1  A    between atoms: C_1  and  C_2
REMARK    2  A    between atoms: C_2  and  O_3
REMARK    3  A    between atoms: O_3  and  C_4
REMARK    4  A    between atoms: C_4  and  C_6
REMARK    5  A    between atoms: C_12  and  N_17
REMARK    6  A    between atoms: C_13  and  C_15
REMARK                            x       y       z     vdW  Elec       q    Type
REMARK                         _______ _______ _______ _____ _____    ______ ____
ROOT
ATOM      1  C   UNL     1       2.387   1.350  -0.023  0.00  0.00    +0.075 A 
ATOM      2  C   UNL     1       1.169   2.031   0.002  0.00  0.00    -0.011 A 
ATOM      3  C   UNL     1      -0.016   1.322   0.009  0.00  0.00    +0.047 A 
ATOM      4  N   UNL     1       0.002  -0.004   0.002  0.00  0.00    -0.244 NA
ATOM      5  C   UNL     1       1.115  -0.694  -0.018  0.00  0.00    +0.112 A 
ATOM      6  C   UNL     1       2.388  -0.076  -0.034  0.00  0.00    +0.044 A 
ATOM      7  C   UNL     1       3.517  -0.987  -0.057  0.00  0.00    +0.060 A 
ATOM      8  C   UNL     1       3.266  -2.342  -0.060  0.00  0.00    +0.112 A 
ATOM      9  S   UNL     1       1.486  -2.431  -0.032  0.00  0.00    -0.056 S 
ATOM     10  C   UNL     1      -1.363   1.998   0.018  0.00  0.00    +0.056 C 
ATOM     11  C   UNL     1      -1.231   3.452   0.464  0.00  0.00    +0.006 C 
ATOM     12  C   UNL     1      -0.140   4.120  -0.381  0.00  0.00    +0.005 C 
ATOM     13  C   UNL     1       1.211   3.537   0.028  0.00  0.00    +0.038 C 
ENDROOT
BRANCH   7  14
ATOM     14  N   UNL     1       4.823  -0.503  -0.076  0.00  0.00    -0.356 N 
ATOM     15  H   UNL     1       5.569  -1.123  -0.091  0.00  0.00    +0.142 HD
ATOM     16  H   UNL     1       4.986   0.453  -0.074  0.00  0.00    +0.142 HD
ENDBRANCH   7  14
BRANCH   1  17
ATOM     17  C   UNL     1       3.661   2.098  -0.038  0.00  0.00    +0.340 C 
ATOM     18  O   UNL     1       4.167   2.413  -1.096  0.00  0.00    -0.245 OA
BRANCH  17  19
ATOM     19  O   UNL     1       4.261   2.430   1.121  0.00  0.00    -0.461 OA
BRANCH  19  21
ATOM     20  C   UNL     1       6.037   3.451   2.438  0.00  0.00    +0.048 C 
ATOM     21  C   UNL     1       5.510   3.165   1.030  0.00  0.00    +0.229 C 
ENDBRANCH  19  21
ENDBRANCH  17  19
ENDBRANCH   1  17
BRANCH   8  22
ATOM     22  C   UNL     1       4.209  -3.419  -0.081  0.00  0.00    +0.108 C 
ATOM     23  N   UNL     1       4.957  -4.274  -0.097  0.00  0.00    -0.190 NA
ENDBRANCH   8  22
TORSDOF 5
