REMARK  Name = ZINC36659580
REMARK  10 active torsions:
REMARK  status: ('A' for Active; 'I' for Inactive)
REMARK    1  A    between atoms: C_1  and  C_2
REMARK    2  A    between atoms: C_2  and  S_3
REMARK    3  A    between atoms: S_3  and  C_4
REMARK    4  A    between atoms: C_7  and  C_10
REMARK    5  A    between atoms: C_10  and  C_11
REMARK    6  A    between atoms: C_17  and  C_19
REMARK    7  A    between atoms: C_19  and  O_20
REMARK    8  A    between atoms: O_20  and  C_21
REMARK    9  A    between atoms: C_26  and  O_27
REMARK   10  A    between atoms: O_27  and  C_28
REMARK                            x       y       z     vdW  Elec       q    Type
REMARK                         _______ _______ _______ _____ _____    ______ ____
ROOT
ATOM      1  C   UNL     1       1.878  -7.095   0.183  0.00  0.00    +0.223 A 
ATOM      2  N   UNL     1       3.021  -7.443   0.697  0.00  0.00    -0.111 NA
ATOM      3  N   UNL     1       3.824  -7.800  -0.242  0.00  0.00    -0.092 NA
ATOM      4  C   UNL     1       3.216  -7.691  -1.397  0.00  0.00    +0.314 A 
ATOM      5  O   UNL     1       1.970  -7.247  -1.152  0.00  0.00    -0.409 OA
ATOM      6  N   UNL     1       3.756  -7.983  -2.641  0.00  0.00    -0.236 N 
ATOM      7  C   UNL     1       5.025  -8.427  -2.738  0.00  0.00    +0.258 C 
ATOM      8  O   UNL     1       5.695  -8.571  -1.738  0.00  0.00    -0.272 OA
ATOM      9  H   UNL     1       3.220  -7.867  -3.441  0.00  0.00    +0.159 HD
ENDROOT
BRANCH   1  10
ATOM     10  C   UNL     1       0.668  -6.614   0.943  0.00  0.00    +0.132 C 
BRANCH  10  14
ATOM     11  C   UNL     1       0.818  -2.359   1.317  0.00  0.00    +0.008 A 
ATOM     12  C   UNL     1       0.189  -2.940   0.223  0.00  0.00    +0.015 A 
ATOM     13  C   UNL     1       0.142  -4.315   0.105  0.00  0.00    +0.005 A 
ATOM     14  C   UNL     1       0.721  -5.114   1.075  0.00  0.00    -0.038 A 
ATOM     15  C   UNL     1       1.348  -4.539   2.166  0.00  0.00    +0.005 A 
ATOM     16  C   UNL     1       1.403  -3.165   2.287  0.00  0.00    +0.015 A 
BRANCH  11  17
ATOM     17  S   UNL     1       0.879  -0.605   1.472  0.00  0.00    -0.125 S 
BRANCH  17  19
ATOM     18  C   UNL     1      -0.019   1.526   0.010  0.00  0.00    +0.015 C 
ATOM     19  C   UNL     1       0.002  -0.004   0.002  0.00  0.00    +0.071 C 
ENDBRANCH  17  19
ENDBRANCH  11  17
ENDBRANCH  10  14
ENDBRANCH   1  10
BRANCH   7  20
ATOM     20  C   UNL     1       5.611  -8.744  -4.090  0.00  0.00    +0.325 C 
BRANCH  20  21
ATOM     21  O   UNL     1       6.958  -9.193  -3.932  0.00  0.00    -0.479 OA
BRANCH  21  22
ATOM     22  C   UNL     1       7.636  -9.523  -5.063  0.00  0.00    +0.163 A 
ATOM     23  C   UNL     1       7.019  -9.411  -6.299  0.00  0.00    +0.049 A 
ATOM     24  C   UNL     1       7.710  -9.746  -7.449  0.00  0.00    +0.004 A 
ATOM     25  C   UNL     1       9.016 -10.194  -7.369  0.00  0.00    +0.004 A 
ATOM     26  C   UNL     1       9.636 -10.308  -6.139  0.00  0.00    +0.049 A 
ATOM     27  C   UNL     1       8.952  -9.967  -4.983  0.00  0.00    +0.162 A 
BRANCH  27  28
ATOM     28  O   UNL     1       9.563 -10.073  -3.773  0.00  0.00    -0.491 OA
ATOM     29  C   UNL     1      10.915 -10.537  -3.767  0.00  0.00    +0.277 C 
ENDBRANCH  27  28
ENDBRANCH  21  22
ENDBRANCH  20  21
ENDBRANCH   7  20
TORSDOF 8
