REMARK  Name = ZINC10247015
REMARK  6 active torsions:
REMARK  status: ('A' for Active; 'I' for Inactive)
REMARK    1  A    between atoms: C_7  and  N_23
REMARK    2  A    between atoms: C_8  and  C_10
REMARK    3  A    between atoms: N_12  and  C_13
REMARK    4  A    between atoms: C_24  and  C_26
REMARK    5  A    between atoms: C_27  and  C_28
REMARK    6  A    between atoms: C_31  and  N_34
REMARK                            x       y       z     vdW  Elec       q    Type
REMARK                         _______ _______ _______ _____ _____    ______ ____
ROOT
ATOM      1  C   UNL     1       8.511  -5.276   1.243  0.00  0.00    +0.001 A 
ATOM      2  C   UNL     1       9.130  -4.036   1.164  0.00  0.00    +0.004 A 
ATOM      3  C   UNL     1       8.424  -2.920   0.769  0.00  0.00    +0.047 A 
ATOM      4  C   UNL     1       7.076  -3.033   0.447  0.00  0.00    +0.138 A 
ATOM      5  C   UNL     1       6.455  -4.291   0.529  0.00  0.00    +0.042 A 
ATOM      6  C   UNL     1       7.188  -5.409   0.930  0.00  0.00    +0.013 A 
ATOM      7  C   UNL     1       5.059  -4.075   0.130  0.00  0.00    +0.092 A 
ATOM      8  C   UNL     1       4.953  -2.740  -0.153  0.00  0.00    +0.212 A 
ATOM      9  O   UNL     1       6.152  -2.143   0.034  0.00  0.00    -0.448 OA
ENDROOT
BRANCH   8  10
ATOM     10  C   UNL     1       3.735  -2.066  -0.595  0.00  0.00    +0.285 C 
ATOM     11  O   UNL     1       2.684  -2.680  -0.649  0.00  0.00    -0.266 OA
ATOM     12  N   UNL     1       3.773  -0.764  -0.942  0.00  0.00    -0.279 N 
ATOM     13  H   UNL     1       4.620  -0.293  -0.964  0.00  0.00    +0.155 HD
BRANCH  12  14
ATOM     14  C   UNL     1       2.589  -0.092  -1.269  0.00  0.00    +0.037 A 
ATOM     15  C   UNL     1       2.431   1.244  -0.926  0.00  0.00    +0.027 A 
ATOM     16  C   UNL     1       1.263   1.907  -1.248  0.00  0.00    +0.051 A 
ATOM     17  C   UNL     1       0.245   1.242  -1.915  0.00  0.00    +0.162 A 
ATOM     18  C   UNL     1       0.401  -0.095  -2.262  0.00  0.00    +0.164 A 
ATOM     19  C   UNL     1       1.573  -0.760  -1.938  0.00  0.00    +0.072 A 
ATOM     20  O   UNL     1      -0.583  -0.762  -2.925  0.00  0.00    -0.485 OA
ATOM     21  C   UNL     1      -1.888  -0.173  -2.903  0.00  0.00    +0.270 C 
ATOM     22  C   UNL     1      -1.745   1.323  -3.216  0.00  0.00    +0.270 C 
ATOM     23  O   UNL     1      -0.903   1.910  -2.216  0.00  0.00    -0.485 OA
ENDBRANCH  12  14
ENDBRANCH   8  10
BRANCH   7  24
ATOM     24  N   UNL     1       4.053  -5.028   0.055  0.00  0.00    -0.278 N 
ATOM     25  C   UNL     1       4.343  -6.286  -0.333  0.00  0.00    +0.241 C 
ATOM     26  O   UNL     1       5.500  -6.612  -0.524  0.00  0.00    -0.270 OA
ATOM     27  H   UNL     1       3.140  -4.790   0.283  0.00  0.00    +0.155 HD
BRANCH  25  28
ATOM     28  C   UNL     1       3.267  -7.259  -0.526  0.00  0.00    +0.068 C 
ATOM     29  C   UNL     1       3.558  -8.517  -0.914  0.00  0.00    +0.013 C 
BRANCH  29  30
ATOM     30  C   UNL     1       2.476  -9.496  -1.108  0.00  0.00    -0.025 A 
ATOM     31  C   UNL     1       1.146  -9.127  -0.885  0.00  0.00    +0.010 A 
ATOM     32  C   UNL     1       0.137 -10.049  -1.073  0.00  0.00    +0.033 A 
ATOM     33  C   UNL     1       0.440 -11.339  -1.472  0.00  0.00    +0.126 A 
ATOM     34  C   UNL     1       1.754 -11.713  -1.690  0.00  0.00    +0.033 A 
ATOM     35  C   UNL     1       2.773 -10.802  -1.511  0.00  0.00    +0.010 A 
BRANCH  33  36
ATOM     36  N   UNL     1      -0.648 -12.324  -1.666  0.00  0.00    +0.056 N 
ATOM     37  O   UNL     1      -0.386 -13.460  -2.017  0.00  0.00    -0.126 OA
ATOM     38  O   UNL     1      -1.806 -11.997  -1.475  0.00  0.00    -0.126 OA
ENDBRANCH  33  36
ENDBRANCH  29  30
ENDBRANCH  25  28
ENDBRANCH   7  24
TORSDOF 6
