REMARK  Name = ZINC63291006
REMARK  7 active torsions:
REMARK  status: ('A' for Active; 'I' for Inactive)
REMARK    1  A    between atoms: C_1  and  O_2
REMARK    2  A    between atoms: O_2  and  C_3
REMARK    3  A    between atoms: C_8  and  S_13
REMARK    4  A    between atoms: S_13  and  C_14
REMARK    5  A    between atoms: C_14  and  C_15
REMARK    6  A    between atoms: N_17  and  C_18
REMARK    7  A    between atoms: C_24  and  N_28
REMARK                            x       y       z     vdW  Elec       q    Type
REMARK                         _______ _______ _______ _____ _____    ______ ____
ROOT
ATOM      1  C   UNL     1      -1.268  -4.442  -6.161  0.00  0.00    +0.225 C 
ATOM      2  O   UNL     1      -0.932  -5.438  -6.765  0.00  0.00    -0.275 OA
ATOM      3  N   UNL     1      -2.473  -3.886  -6.395  0.00  0.00    -0.288 N 
ATOM      4  H   UNL     1      -2.742  -3.089  -5.912  0.00  0.00    +0.151 HD
ENDROOT
BRANCH   3   5
ATOM      5  C   UNL     1      -3.377  -4.484  -7.381  0.00  0.00    +0.224 C 
ATOM      6  N   UNL     1      -4.500  -3.586  -7.682  0.00  0.00    -0.316 N 
ATOM      7  C   UNL     1      -5.785  -4.037  -7.380  0.00  0.00    +0.043 A 
ATOM      8  C   UNL     1      -6.975  -3.320  -7.596  0.00  0.00    +0.026 A 
ATOM      9  C   UNL     1      -8.198  -3.853  -7.261  0.00  0.00    +0.034 A 
ATOM     10  C   UNL     1      -8.299  -5.113  -6.700  0.00  0.00    +0.127 A 
ATOM     11  C   UNL     1      -7.143  -5.842  -6.476  0.00  0.00    +0.049 A 
ATOM     12  C   UNL     1      -5.919  -5.307  -6.812  0.00  0.00    +0.034 A 
ATOM     13  S   UNL     1      -4.259  -5.933  -6.674  0.00  0.00    -0.082 S 
ATOM     14  H   UNL     1      -4.354  -2.713  -8.077  0.00  0.00    +0.149 HD
BRANCH  10  15
ATOM     15  N   UNL     1      -9.621  -5.673  -6.345  0.00  0.00    +0.056 N 
ATOM     16  O   UNL     1     -10.625  -5.029  -6.544  0.00  0.00    -0.126 OA
ATOM     17  O   UNL     1      -9.699  -6.776  -5.855  0.00  0.00    -0.126 OA
ENDBRANCH  10  15
ENDBRANCH   3   5
BRANCH   1  18
ATOM     18  C   UNL     1      -0.339  -3.826  -5.147  0.00  0.00    +0.168 C 
BRANCH  18  19
ATOM     19  S   UNL     1       1.191  -4.797  -5.061  0.00  0.00    -0.106 S 
BRANCH  19  25
ATOM     20  C   UNL     1       0.605  -0.606  -1.054  0.00  0.00    +0.122 A 
ATOM     21  C   UNL     1       1.193   0.221  -2.099  0.00  0.00    +0.048 A 
ATOM     22  C   UNL     1       1.804  -0.317  -3.171  0.00  0.00    +0.031 A 
ATOM     23  C   UNL     1       1.890  -1.778  -3.307  0.00  0.00    +0.061 A 
ATOM     24  N   UNL     1       2.412  -2.544  -4.221  0.00  0.00    -0.355 N 
ATOM     25  C   UNL     1       2.188  -3.936  -3.814  0.00  0.00    +0.236 C 
ATOM     26  N   UNL     1       1.464  -3.883  -2.538  0.00  0.00    -0.355 N 
ATOM     27  C   UNL     1       1.289  -2.624  -2.240  0.00  0.00    +0.064 A 
ATOM     28  C   UNL     1       0.647  -1.960  -1.104  0.00  0.00    +0.073 A 
ATOM     29  H   UNL     1       2.866  -2.248  -5.026  0.00  0.00    +0.162 HD
ATOM     30  H   UNL     1       1.171  -4.644  -2.012  0.00  0.00    +0.162 HD
BRANCH  20  32
ATOM     31  C   UNL     1      -0.017   1.425   0.010  0.00  0.00    +0.277 C 
ATOM     32  O   UNL     1       0.002  -0.004   0.002  0.00  0.00    -0.495 OA
ENDBRANCH  20  32
ENDBRANCH  19  25
ENDBRANCH  18  19
ENDBRANCH   1  18
TORSDOF 6
