REMARK  Name = ZINC39466457
REMARK  6 active torsions:
REMARK  status: ('A' for Active; 'I' for Inactive)
REMARK    1  A    between atoms: C_4  and  C_7
REMARK    2  A    between atoms: C_7  and  C_8
REMARK    3  A    between atoms: P_17  and  C_33
REMARK    4  A    between atoms: C_25  and  C_26
REMARK    5  A    between atoms: C_26  and  C_27
REMARK    6  A    between atoms: C_33  and  C_34
REMARK                            x       y       z     vdW  Elec       q    Type
REMARK                         _______ _______ _______ _____ _____    ______ ____
ROOT
ATOM      1  C   UNL     1       4.050  -1.071   1.436  0.00  0.00    -0.043 C 
ATOM      2  C   UNL     1       3.811  -2.278   1.940  0.00  0.00    -0.019 C 
ATOM      3  C   UNL     1       4.337  -2.631   3.311  0.00  0.00    +0.016 C 
ATOM      4  C   UNL     1       3.385  -2.061   4.364  0.00  0.00    -0.003 C 
ATOM      5  C   UNL     1       3.947  -2.279   5.773  0.00  0.00    -0.020 C 
ATOM      6  C   UNL     1       2.937  -1.680   6.760  0.00  0.00    +0.156 C 
ATOM      7  O   UNL     1       3.390  -1.903   8.107  0.00  0.00    -0.319 OA
ATOM      8  P   UNL     1       4.921  -1.487   8.468  0.00  0.00    +0.262 P 
ATOM      9  O   UNL     1       5.392  -2.239   9.652  0.00  0.00    -0.274 OA
ATOM     10  N   UNL     1       5.806  -1.899   7.138  0.00  0.00    -0.291 NA
ATOM     11  N   UNL     1       5.258  -1.639   5.899  0.00  0.00    +0.397 N 
ATOM     12  C   UNL     1       6.200  -2.202   4.918  0.00  0.00    -0.046 C 
ATOM     13  C   UNL     1       5.720  -1.997   3.486  0.00  0.00    +0.005 C 
ATOM     14  C   UNL     1       5.637  -0.524   3.186  0.00  0.00    -0.021 C 
ATOM     15  C   UNL     1       4.819  -0.090   2.219  0.00  0.00    -0.044 C 
ATOM     16  H   UNL     1       6.682  -2.308   7.226  0.00  0.00    +0.111 HD
ATOM     17  H   UNL     1       5.165  -0.643   5.767  0.00  0.00    -0.055 HD
ENDROOT
BRANCH   1  18
ATOM     18  C   UNL     1       3.540  -0.711   0.064  0.00  0.00    +0.070 C 
BRANCH  18  22
ATOM     19  C   UNL     1       6.590  -1.459  -2.832  0.00  0.00    +0.000 A 
ATOM     20  C   UNL     1       5.760  -2.485  -2.421  0.00  0.00    +0.000 A 
ATOM     21  C   UNL     1       4.773  -2.243  -1.484  0.00  0.00    +0.004 A 
ATOM     22  C   UNL     1       4.617  -0.975  -0.957  0.00  0.00    -0.043 A 
ATOM     23  C   UNL     1       5.447   0.051  -1.367  0.00  0.00    +0.004 A 
ATOM     24  C   UNL     1       6.433  -0.190  -2.305  0.00  0.00    +0.000 A 
ENDBRANCH  18  22
ENDBRANCH   1  18
BRANCH  15  25
ATOM     25  C   UNL     1       4.703   1.382   1.916  0.00  0.00    +0.070 C 
BRANCH  25  26
ATOM     26  C   UNL     1       3.540   1.962   2.678  0.00  0.00    -0.043 A 
ATOM     27  C   UNL     1       2.303   2.077   2.071  0.00  0.00    +0.004 A 
ATOM     28  C   UNL     1       1.236   2.609   2.770  0.00  0.00    +0.000 A 
ATOM     29  C   UNL     1       1.406   3.026   4.077  0.00  0.00    +0.000 A 
ATOM     30  C   UNL     1       2.642   2.911   4.685  0.00  0.00    +0.000 A 
ATOM     31  C   UNL     1       3.708   2.375   3.987  0.00  0.00    +0.004 A 
ENDBRANCH  25  26
ENDBRANCH  15  25
BRANCH   8  32
ATOM     32  C   UNL     1       5.032   0.307   8.775  0.00  0.00    +0.147 C 
BRANCH  32  33
ATOM     33  C   UNL     1       4.137   0.675   9.930  0.00  0.00    -0.037 A 
ATOM     34  C   UNL     1       2.820   1.026   9.698  0.00  0.00    +0.004 A 
ATOM     35  C   UNL     1       1.998   1.364  10.758  0.00  0.00    +0.000 A 
ATOM     36  C   UNL     1       2.494   1.351  12.048  0.00  0.00    +0.000 A 
ATOM     37  C   UNL     1       3.811   1.000  12.279  0.00  0.00    +0.000 A 
ATOM     38  C   UNL     1       4.631   0.658  11.220  0.00  0.00    +0.004 A 
ENDBRANCH  32  33
ENDBRANCH   8  32
TORSDOF 6
