REMARK  Name = ZINC63530396
REMARK  7 active torsions:
REMARK  status: ('A' for Active; 'I' for Inactive)
REMARK    1  A    between atoms: C_1  and  C_2
REMARK    2  A    between atoms: C_2  and  C_4
REMARK    3  A    between atoms: C_2  and  C_26
REMARK    4  A    between atoms: C_4  and  N_5
REMARK    5  A    between atoms: C_6  and  C_8
REMARK    6  A    between atoms: C_10  and  S_18
REMARK    7  A    between atoms: S_18  and  C_19
REMARK                            x       y       z     vdW  Elec       q    Type
REMARK                         _______ _______ _______ _____ _____    ______ ____
ROOT
ATOM      1  C   UNL     1       4.216  -0.020  -2.254  0.00  0.00    +0.204 C 
ATOM      2  C   UNL     1       4.516   1.421  -2.600  0.00  0.00    +0.030 C 
ATOM      3  C   UNL     1       5.454   1.375  -3.627  0.00  0.00    +0.010 A 
ATOM      4  C   UNL     1       6.113   2.385  -4.362  0.00  0.00    +0.011 A 
ATOM      5  C   UNL     1       7.000   2.042  -5.331  0.00  0.00    +0.001 A 
ATOM      6  C   UNL     1       7.281   0.707  -5.625  0.00  0.00    +0.002 A 
ATOM      7  C   UNL     1       6.685  -0.313  -4.959  0.00  0.00    +0.026 A 
ATOM      8  C   UNL     1       5.748  -0.033  -3.933  0.00  0.00    +0.044 A 
ATOM      9  N   UNL     1       5.043  -0.833  -3.151  0.00  0.00    -0.369 N 
ATOM     10  H   UNL     1       5.069  -1.803  -3.167  0.00  0.00    +0.161 HD
ENDROOT
BRANCH   1  12
ATOM     11  N   UNL     1       1.843   0.034  -1.557  0.00  0.00    -0.313 N 
ATOM     12  C   UNL     1       2.756  -0.316  -2.485  0.00  0.00    +0.240 C 
ATOM     13  O   UNL     1       2.403  -0.869  -3.505  0.00  0.00    -0.273 OA
ATOM     14  H   UNL     1       2.126   0.475  -0.741  0.00  0.00    +0.149 HD
BRANCH  11  15
ATOM     15  C   UNL     1       0.424  -0.254  -1.781  0.00  0.00    +0.112 C 
BRANCH  15  17
ATOM     16  C   UNL     1      -0.296   1.766  -0.499  0.00  0.00    +0.014 C 
ATOM     17  C   UNL     1      -0.392   0.241  -0.585  0.00  0.00    +0.033 C 
BRANCH  17  18
ATOM     18  C   UNL     1      -1.833  -0.163  -0.758  0.00  0.00    -0.043 A 
ATOM     19  C   UNL     1      -2.546   0.274  -1.859  0.00  0.00    +0.004 A 
ATOM     20  C   UNL     1      -3.868  -0.096  -2.018  0.00  0.00    +0.000 A 
ATOM     21  C   UNL     1      -4.477  -0.905  -1.076  0.00  0.00    +0.000 A 
ATOM     22  C   UNL     1      -3.764  -1.343   0.024  0.00  0.00    +0.000 A 
ATOM     23  C   UNL     1      -2.441  -0.976   0.180  0.00  0.00    +0.004 A 
ENDBRANCH  17  18
ENDBRANCH  15  17
ENDBRANCH  11  15
ENDBRANCH   1  12
BRANCH   2  24
ATOM     24  S   UNL     1       3.862   2.777  -1.900  0.00  0.00    -0.091 S 
BRANCH  24  25
ATOM     25  C   UNL     1       4.515   2.769  -0.263  0.00  0.00    +0.013 A 
ATOM     26  C   UNL     1       5.475   1.832   0.099  0.00  0.00    +0.016 A 
ATOM     27  C   UNL     1       5.984   1.828   1.382  0.00  0.00    +0.021 A 
ATOM     28  C   UNL     1       5.539   2.756   2.308  0.00  0.00    +0.041 A 
ATOM     29  C   UNL     1       4.583   3.690   1.950  0.00  0.00    +0.021 A 
ATOM     30  C   UNL     1       4.074   3.703   0.666  0.00  0.00    +0.016 A 
ATOM     31 CL   UNL     1       6.181   2.747   3.921  0.00  0.00    -0.084 Cl
ENDBRANCH  24  25
ENDBRANCH   2  24
TORSDOF 6
