REMARK  Name = ZINC66679400
REMARK  5 active torsions:
REMARK  status: ('A' for Active; 'I' for Inactive)
REMARK    1  A    between atoms: C_1  and  N_2
REMARK    2  A    between atoms: N_2  and  C_3
REMARK    3  A    between atoms: C_3  and  C_4
REMARK    4  A    between atoms: N_17  and  C_18
REMARK    5  A    between atoms: C_22  and  C_24
REMARK                            x       y       z     vdW  Elec       q    Type
REMARK                         _______ _______ _______ _____ _____    ______ ____
ROOT
ATOM      1  C   UNL     1       0.008   1.433   0.027  0.00  0.00    +0.133 C 
ATOM      2  N   UNL     1      -0.162  -0.022  -0.002  0.00  0.00    -0.285 N 
ATOM      3  C   UNL     1      -0.169  -0.676  -1.181  0.00  0.00    +0.306 C 
ATOM      4  O   UNL     1      -0.310  -1.883  -1.205  0.00  0.00    -0.252 OA
ATOM      5  N   UNL     1      -0.020   0.009  -2.332  0.00  0.00    -0.269 N 
ATOM      6  H   UNL     1       0.015   0.978  -2.319  0.00  0.00    +0.156 HD
ENDROOT
BRANCH   5   7
ATOM      7  C   UNL     1       0.083  -0.679  -3.547  0.00  0.00    +0.035 A 
ATOM      8  C   UNL     1      -0.432  -0.119  -4.709  0.00  0.00    +0.023 A 
ATOM      9  C   UNL     1      -0.332  -0.795  -5.910  0.00  0.00    +0.002 A 
ATOM     10  C   UNL     1       0.280  -2.031  -5.962  0.00  0.00    +0.010 A 
ATOM     11  C   UNL     1       0.800  -2.601  -4.801  0.00  0.00    +0.004 A 
ATOM     12  C   UNL     1       0.705  -1.918  -3.592  0.00  0.00    +0.033 A 
BRANCH  11  13
ATOM     13  C   UNL     1       1.458  -3.930  -4.855  0.00  0.00    +0.091 A 
ATOM     14  C   UNL     1       1.562  -4.615  -6.088  0.00  0.00    +0.035 A 
ATOM     15  C   UNL     1       2.173  -5.834  -6.100  0.00  0.00    +0.073 A 
ATOM     16  C   UNL     1       2.666  -6.338  -4.876  0.00  0.00    +0.265 A 
ATOM     17  O   UNL     1       3.221  -7.424  -4.837  0.00  0.00    -0.266 OA
ATOM     18  N   UNL     1       2.520  -5.611  -3.752  0.00  0.00    -0.243 N 
ATOM     19  H   UNL     1       2.861  -5.962  -2.915  0.00  0.00    +0.192 HD
ATOM     20  N   UNL     1       1.946  -4.462  -3.760  0.00  0.00    -0.171 NA
ENDBRANCH  11  13
ENDBRANCH   5   7
BRANCH   2  21
ATOM     21  C   UNL     1      -0.323  -0.766   1.249  0.00  0.00    +0.157 C 
BRANCH  21  22
ATOM     22  C   UNL     1      -1.810  -0.856   1.601  0.00  0.00    +0.228 C 
ATOM     23  C   UNL     1      -1.978  -1.538   2.965  0.00  0.00    +0.275 C 
ATOM     24  O   UNL     1      -3.378  -1.618   3.256  0.00  0.00    -0.485 OA
ATOM     25  C   UNL     1      -4.186  -2.059   2.253  0.00  0.00    +0.162 A 
ATOM     26  C   UNL     1      -5.465  -2.503   2.555  0.00  0.00    +0.049 A 
ATOM     27  C   UNL     1      -6.299  -2.950   1.548  0.00  0.00    +0.004 A 
ATOM     28  C   UNL     1      -5.861  -2.955   0.236  0.00  0.00    +0.004 A 
ATOM     29  C   UNL     1      -4.588  -2.515  -0.071  0.00  0.00    +0.049 A 
ATOM     30  C   UNL     1      -3.745  -2.067   0.935  0.00  0.00    +0.163 A 
ATOM     31  O   UNL     1      -2.491  -1.644   0.618  0.00  0.00    -0.480 OA
ENDBRANCH  21  22
ENDBRANCH   2  21
TORSDOF 4
