REMARK  Name = ZINC10471894
REMARK  11 active torsions:
REMARK  status: ('A' for Active; 'I' for Inactive)
REMARK    1  A    between atoms: C_1  and  C_2
REMARK    2  A    between atoms: C_2  and  C_3
REMARK    3  A    between atoms: C_2  and  O_4
REMARK    4  A    between atoms: O_4  and  C_5
REMARK    5  A    between atoms: C_9  and  C_11
REMARK    6  A    between atoms: N_13  and  C_14
REMARK    7  A    between atoms: C_14  and  N_16
REMARK    8  A    between atoms: N_16  and  N_17
REMARK    9  A    between atoms: C_18  and  C_20
REMARK   10  A    between atoms: C_20  and  O_21
REMARK   11  A    between atoms: O_21  and  C_22
REMARK                            x       y       z     vdW  Elec       q    Type
REMARK                         _______ _______ _______ _____ _____    ______ ____
ROOT
ATOM      1  C   UNL     1       5.341  -4.047  -0.727  0.00  0.00    +0.153 C 
ATOM      2  S   UNL     1       6.905  -4.680  -1.018  0.00  0.00    -0.017 S 
ENDROOT
BRANCH   1   5
ATOM      3  C   UNL     1       4.502  -6.216  -0.523  0.00  0.00    +0.250 C 
ATOM      4  O   UNL     1       5.612  -6.665  -0.730  0.00  0.00    -0.270 OA
ATOM      5  N   UNL     1       4.306  -4.882  -0.511  0.00  0.00    -0.263 N 
ATOM      6  H   UNL     1       3.420  -4.524  -0.346  0.00  0.00    +0.157 HD
BRANCH   3  11
ATOM      7  C   UNL     1       2.498  -9.364  -0.075  0.00  0.00    +0.122 A 
ATOM      8  C   UNL     1       1.232  -8.845   0.161  0.00  0.00    +0.046 A 
ATOM      9  C   UNL     1       1.033  -7.477   0.173  0.00  0.00    +0.004 A 
ATOM     10  C   UNL     1       2.091  -6.618  -0.043  0.00  0.00    +0.013 A 
ATOM     11  C   UNL     1       3.367  -7.132  -0.286  0.00  0.00    +0.041 A 
ATOM     12  C   UNL     1       3.567  -8.513  -0.298  0.00  0.00    +0.058 A 
BRANCH   7  13
ATOM     13  O   UNL     1       2.688 -10.710  -0.086  0.00  0.00    -0.489 OA
BRANCH  13  15
ATOM     14  C   UNL     1       1.799 -12.898  -0.598  0.00  0.00    +0.051 C 
ATOM     15  C   UNL     1       1.524 -11.531   0.032  0.00  0.00    +0.167 C 
ATOM     16  C   UNL     1       1.175 -11.712   1.510  0.00  0.00    +0.051 C 
ENDBRANCH  13  15
ENDBRANCH   7  13
ENDBRANCH   3  11
ENDBRANCH   1   5
BRANCH   1  17
ATOM     17  N   UNL     1       5.146  -2.714  -0.715  0.00  0.00    -0.245 N 
ATOM     18  H   UNL     1       5.891  -2.113  -0.871  0.00  0.00    +0.172 HD
BRANCH  17  19
ATOM     19  N   UNL     1       3.866  -2.196  -0.477  0.00  0.00    -0.232 N 
ATOM     20  C   UNL     1       3.670  -0.863  -0.465  0.00  0.00    +0.267 C 
ATOM     21  O   UNL     1       4.602  -0.111  -0.659  0.00  0.00    -0.271 OA
ATOM     22  H   UNL     1       3.121  -2.797  -0.321  0.00  0.00    +0.173 HD
BRANCH  20  23
ATOM     23  C   UNL     1       2.293  -0.305  -0.209  0.00  0.00    +0.326 C 
BRANCH  23  24
ATOM     24  O   UNL     1       2.343   1.122  -0.246  0.00  0.00    -0.482 OA
BRANCH  24  25
ATOM     25  C   UNL     1       1.175   1.786  -0.033  0.00  0.00    +0.135 A 
ATOM     26  C   UNL     1       0.007   1.077   0.207  0.00  0.00    +0.048 A 
ATOM     27  C   UNL     1      -1.179   1.753   0.417  0.00  0.00    +0.023 A 
ATOM     28  C   UNL     1      -1.201   3.137   0.401  0.00  0.00    +0.042 A 
ATOM     29  C   UNL     1      -0.037   3.846   0.162  0.00  0.00    +0.039 A 
ATOM     30  C   UNL     1       1.151   3.173  -0.055  0.00  0.00    +0.061 A 
ATOM     31 BR   UNL     1       2.741   4.143  -0.382  0.00  0.00    -0.046 Br
ATOM     32 CL   UNL     1      -2.692   3.983   0.672  0.00  0.00    -0.084 Cl
ENDBRANCH  24  25
ENDBRANCH  23  24
ENDBRANCH  20  23
ENDBRANCH  17  19
ENDBRANCH   1  17
TORSDOF 9
