REMARK  Name = ZINC39695749
REMARK  9 active torsions:
REMARK  status: ('A' for Active; 'I' for Inactive)
REMARK    1  A    between atoms: C_1  and  C_2
REMARK    2  A    between atoms: C_2  and  C_3
REMARK    3  A    between atoms: C_3  and  C_5
REMARK    4  A    between atoms: C_3  and  C_6
REMARK    5  A    between atoms: C_10  and  C_19
REMARK    6  A    between atoms: N_21  and  C_22
REMARK    7  A    between atoms: C_22  and  C_24
REMARK    8  A    between atoms: C_22  and  C_25
REMARK    9  A    between atoms: C_31  and  C_35
REMARK                            x       y       z     vdW  Elec       q    Type
REMARK                         _______ _______ _______ _____ _____    ______ ____
ROOT
ATOM      1  C   UNL     1      -1.554  -1.766   0.031  0.00  0.00    +0.218 C 
ATOM      2  O   UNL     1      -0.449  -2.263  -0.019  0.00  0.00    -0.275 OA
ATOM      3  N   UNL     1      -2.649  -2.548  -0.037  0.00  0.00    -0.300 N 
ATOM      4  C   UNL     1      -4.070  -2.128   0.001  0.00  0.00    +0.121 C 
ATOM      5  C   UNL     1      -4.774  -3.039  -1.029  0.00  0.00    +0.100 C 
ATOM      6  C   UNL     1      -3.874  -4.283  -1.133  0.00  0.00    -0.004 C 
ATOM      7  C   UNL     1      -2.705  -4.024  -0.172  0.00  0.00    +0.115 C 
ATOM      8  C   UNL     1      -4.644  -5.529  -0.706  0.00  0.00    -0.010 C 
ATOM      9  C   UNL     1      -3.748  -6.759  -0.872  0.00  0.00    -0.082 C 
ATOM     10  N   UNL     1      -3.328  -6.875  -2.274  0.00  0.00    +0.379 N 
ATOM     11  C   UNL     1      -2.510  -5.716  -2.649  0.00  0.00    -0.082 C 
ATOM     12  C   UNL     1      -3.354  -4.441  -2.558  0.00  0.00    -0.010 C 
ATOM     13  H   UNL     1      -2.788  -7.719  -2.393  0.00  0.00    -0.086 HD
ATOM     14  H   UNL     1      -4.144  -6.915  -2.866  0.00  0.00    -0.086 HD
ENDROOT
BRANCH   5  15
ATOM     15  C   UNL     1      -4.870  -2.346  -2.364  0.00  0.00    +0.219 C 
ATOM     16  O   UNL     1      -4.020  -1.547  -2.695  0.00  0.00    -0.275 OA
ATOM     17  N   UNL     1      -5.901  -2.614  -3.190  0.00  0.00    -0.305 N 
ATOM     18  H   UNL     1      -6.581  -3.253  -2.925  0.00  0.00    +0.149 HD
BRANCH  17  19
ATOM     19  C   UNL     1      -5.995  -1.941  -4.487  0.00  0.00    +0.136 C 
ATOM     20  C   UNL     1      -5.161  -2.703  -5.519  0.00  0.00    +0.036 C 
BRANCH  19  21
ATOM     21  C   UNL     1      -7.434  -1.905  -4.932  0.00  0.00    +0.128 A 
ATOM     22  H   UNL     1      -7.490  -0.250  -6.202  0.00  0.00    +0.167 HD
ATOM     23  N   UNL     1      -8.352  -2.745  -4.553  0.00  0.00    -0.231 NA
ATOM     24  C   UNL     1      -9.534  -2.425  -5.141  0.00  0.00    +0.089 A 
ATOM     25  C   UNL     1     -10.817  -2.977  -5.089  0.00  0.00    +0.030 A 
ATOM     26  C   UNL     1     -11.830  -2.415  -5.813  0.00  0.00    +0.005 A 
ATOM     27  C   UNL     1     -11.600  -1.298  -6.602  0.00  0.00    -0.048 A 
ATOM     28  C   UNL     1     -10.342  -0.736  -6.669  0.00  0.00    +0.031 A 
ATOM     29  C   UNL     1      -9.301  -1.294  -5.941  0.00  0.00    +0.067 A 
ATOM     30  N   UNL     1      -7.964  -0.985  -5.782  0.00  0.00    -0.340 N 
ATOM     31  C   UNL     1     -12.732  -0.694  -7.393  0.00  0.00    +0.044 C 
ENDBRANCH  19  21
ENDBRANCH  17  19
ENDBRANCH   5  15
BRANCH   1  32
ATOM     32  C   UNL     1      -1.703  -0.272   0.168  0.00  0.00    +0.072 C 
ATOM     33  C   UNL     1      -2.466   0.048   1.455  0.00  0.00    +0.017 C 
BRANCH  32  35
ATOM     34  C   UNL     1      -0.466   1.898   0.236  0.00  0.00    +0.004 C 
ATOM     35  C   UNL     1      -0.317   0.375   0.222  0.00  0.00    +0.009 C 
ENDBRANCH  32  35
ENDBRANCH   1  32
TORSDOF 5
