REMARK  Name = ZINC39325225
REMARK  8 active torsions:
REMARK  status: ('A' for Active; 'I' for Inactive)
REMARK    1  A    between atoms: C_1  and  O_2
REMARK    2  A    between atoms: O_2  and  C_3
REMARK    3  A    between atoms: C_6  and  S_9
REMARK    4  A    between atoms: S_9  and  N_12
REMARK    5  A    between atoms: N_12  and  C_13
REMARK    6  A    between atoms: N_12  and  C_20
REMARK    7  A    between atoms: C_13  and  C_14
REMARK    8  A    between atoms: C_20  and  C_21
REMARK                            x       y       z     vdW  Elec       q    Type
REMARK                         _______ _______ _______ _____ _____    ______ ____
ROOT
ATOM      1  N   UNL     1       4.346  -2.911  -4.155  0.00  0.00    -0.171 NA
ENDROOT
BRANCH   1   2
ATOM      2  S   UNL     1       2.721  -2.642  -3.981  0.00  0.00    +0.061 S 
ATOM      3  O   UNL     1       2.084  -3.905  -4.117  0.00  0.00    -0.153 OA
ATOM      4  O   UNL     1       2.402  -1.534  -4.810  0.00  0.00    -0.153 OA
BRANCH   2   8
ATOM      5  C   UNL     1       2.037  -1.301   0.290  0.00  0.00    +0.120 A 
ATOM      6  C   UNL     1       2.296  -0.364  -0.699  0.00  0.00    +0.047 A 
ATOM      7  C   UNL     1       2.504  -0.776  -2.001  0.00  0.00    +0.032 A 
ATOM      8  C   UNL     1       2.455  -2.120  -2.319  0.00  0.00    +0.106 A 
ATOM      9  C   UNL     1       2.198  -3.057  -1.334  0.00  0.00    +0.032 A 
ATOM     10  C   UNL     1       1.994  -2.651  -0.030  0.00  0.00    +0.047 A 
BRANCH   5  12
ATOM     11  C   UNL     1       1.891   0.506   1.828  0.00  0.00    +0.277 C 
ATOM     12  O   UNL     1       1.832  -0.899   1.572  0.00  0.00    -0.495 OA
ENDBRANCH   5  12
ENDBRANCH   2   8
ENDBRANCH   1   2
BRANCH   1  13
ATOM     13  C   UNL     1       4.903  -4.238  -3.879  0.00  0.00    +0.144 C 
BRANCH  13  14
ATOM     14  C   UNL     1       4.970  -5.030  -5.159  0.00  0.00    -0.032 A 
ATOM     15  C   UNL     1       3.897  -5.810  -5.547  0.00  0.00    +0.005 A 
ATOM     16  C   UNL     1       3.959  -6.537  -6.721  0.00  0.00    +0.000 A 
ATOM     17  C   UNL     1       5.095  -6.484  -7.508  0.00  0.00    +0.000 A 
ATOM     18  C   UNL     1       6.168  -5.704  -7.120  0.00  0.00    +0.000 A 
ATOM     19  C   UNL     1       6.104  -4.974  -5.948  0.00  0.00    +0.005 A 
ENDBRANCH  13  14
ENDBRANCH   1  13
BRANCH   1  20
ATOM     20  C   UNL     1       5.227  -1.823  -4.585  0.00  0.00    +0.126 C 
BRANCH  20  21
ATOM     21  C   UNL     1       5.630  -0.983  -3.372  0.00  0.00    +0.114 C 
ATOM     22  C   UNL     1       6.309   0.273  -3.881  0.00  0.00    -0.003 C 
ATOM     23  C   UNL     1       7.580   0.512  -3.458  0.00  0.00    -0.003 A 
ATOM     24  C   UNL     1       8.307   1.701  -3.903  0.00  0.00    +0.059 A 
ATOM     25  C   UNL     1       9.576   1.913  -3.462  0.00  0.00    +0.163 A 
ATOM     26  C   UNL     1      10.201   1.006  -2.582  0.00  0.00    +0.164 A 
ATOM     27  C   UNL     1       9.559  -0.131  -2.135  0.00  0.00    +0.073 A 
ATOM     28  C   UNL     1       8.252  -0.426  -2.540  0.00  0.00    +0.044 A 
ATOM     29  N   UNL     1       7.650  -1.532  -2.095  0.00  0.00    -0.284 N 
ATOM     30  C   UNL     1       6.420  -1.870  -2.436  0.00  0.00    +0.225 C 
ATOM     31  O   UNL     1       5.924  -2.891  -1.998  0.00  0.00    -0.275 OA
ATOM     32  O   UNL     1      11.468   1.241  -2.144  0.00  0.00    -0.485 OA
ATOM     33  C   UNL     1      12.246   2.180  -2.890  0.00  0.00    +0.270 C 
ATOM     34  C   UNL     1      11.386   3.425  -3.145  0.00  0.00    +0.270 C 
ATOM     35  O   UNL     1      10.234   3.026  -3.895  0.00  0.00    -0.485 OA
ATOM     36  H   UNL     1       8.140  -2.115  -1.493  0.00  0.00    +0.155 HD
ENDBRANCH  20  21
ENDBRANCH   1  20
TORSDOF 7
