REMARK  Name = ZINC58913768
REMARK  12 active torsions:
REMARK  status: ('A' for Active; 'I' for Inactive)
REMARK    1  A    between atoms: C_1  and  C_2
REMARK    2  A    between atoms: C_2  and  O_3
REMARK    3  A    between atoms: O_3  and  C_4
REMARK    4  A    between atoms: C_9  and  N_10
REMARK    5  A    between atoms: C_11  and  C_13
REMARK    6  A    between atoms: N_15  and  N_16
REMARK    7  A    between atoms: C_17  and  C_18
REMARK    8  A    between atoms: C_20  and  C_32
REMARK    9  A    between atoms: N_21  and  C_24
REMARK   10  A    between atoms: C_22  and  C_23
REMARK   11  A    between atoms: C_27  and  C_31
REMARK   12  A    between atoms: C_29  and  C_30
REMARK                            x       y       z     vdW  Elec       q    Type
REMARK                         _______ _______ _______ _____ _____    ______ ____
ROOT
ATOM      1  C   UNL     1       3.322  -1.048  -5.421  0.00  0.00    +0.318 C 
ATOM      2  O   UNL     1       3.227   0.155  -5.276  0.00  0.00    -0.263 OA
ATOM      3  N   UNL     1       4.028  -1.548  -6.455  0.00  0.00    -0.199 N 
ATOM      4  H   UNL     1       4.103  -2.508  -6.571  0.00  0.00    +0.178 HD
ENDROOT
BRANCH   1   6
ATOM      5  N   UNL     1       1.952  -1.469  -3.424  0.00  0.00    -0.275 N 
ATOM      6  C   UNL     1       2.658  -1.970  -4.457  0.00  0.00    +0.305 C 
ATOM      7  O   UNL     1       2.753  -3.171  -4.602  0.00  0.00    -0.265 OA
ATOM      8  H   UNL     1       1.822  -0.511  -3.344  0.00  0.00    +0.155 HD
BRANCH   5  14
ATOM      9  C   UNL     1       1.340  -1.939  -1.130  0.00  0.00    +0.142 A 
ATOM     10  C   UNL     1       0.794  -2.795  -0.187  0.00  0.00    +0.047 A 
ATOM     11  C   UNL     1       0.324  -4.037  -0.571  0.00  0.00    +0.004 A 
ATOM     12  C   UNL     1       0.396  -4.430  -1.895  0.00  0.00    +0.002 A 
ATOM     13  C   UNL     1       0.939  -3.582  -2.842  0.00  0.00    +0.027 A 
ATOM     14  C   UNL     1       1.407  -2.331  -2.466  0.00  0.00    +0.076 A 
BRANCH   9  15
ATOM     15  O   UNL     1       1.804  -0.717  -0.754  0.00  0.00    -0.490 OA
BRANCH  15  17
ATOM     16  C   UNL     1       2.270   1.019   0.861  0.00  0.00    +0.048 C 
ATOM     17  C   UNL     1       1.702  -0.383   0.631  0.00  0.00    +0.226 C 
ENDBRANCH  15  17
ENDBRANCH   9  15
ENDBRANCH   5  14
ENDBRANCH   1   6
BRANCH   3  18
ATOM     18  N   UNL     1       4.652  -0.682  -7.362  0.00  0.00    -0.187 NA
ATOM     19  C   UNL     1       5.332  -1.164  -8.358  0.00  0.00    +0.140 C 
BRANCH  19  20
ATOM     20  C   UNL     1       5.989  -0.253  -9.312  0.00  0.00    +0.016 A 
ATOM     21  C   UNL     1       6.783  -0.631 -10.485  0.00  0.00    +0.032 A 
ATOM     22  C   UNL     1       7.185   0.516 -11.062  0.00  0.00    +0.022 A 
ATOM     23  N   UNL     1       6.702   1.569 -10.337  0.00  0.00    -0.317 N 
ATOM     24  C   UNL     1       5.974   1.113  -9.283  0.00  0.00    +0.030 A 
ATOM     25  C   UNL     1       5.275   1.968  -8.257  0.00  0.00    +0.064 C 
ATOM     26  C   UNL     1       8.031   0.623 -12.305  0.00  0.00    +0.064 C 
BRANCH  23  27
ATOM     27  C   UNL     1       6.920   2.920 -10.639  0.00  0.00    +0.049 A 
ATOM     28  C   UNL     1       6.032   3.601 -11.460  0.00  0.00    +0.026 A 
ATOM     29  C   UNL     1       6.250   4.933 -11.756  0.00  0.00    +0.005 A 
ATOM     30  C   UNL     1       7.351   5.587 -11.236  0.00  0.00    -0.050 A 
ATOM     31  C   UNL     1       8.238   4.911 -10.418  0.00  0.00    +0.008 A 
ATOM     32  C   UNL     1       8.022   3.581 -10.114  0.00  0.00    -0.026 A 
ATOM     33  C   UNL     1       8.985   2.846  -9.217  0.00  0.00    +0.046 C 
ATOM     34  C   UNL     1       7.586   7.040 -11.560  0.00  0.00    +0.044 C 
ENDBRANCH  23  27
ENDBRANCH  19  20
ENDBRANCH   3  18
TORSDOF 7
