REMARK  Name = ZINC38742038
REMARK  3 active torsions:
REMARK  status: ('A' for Active; 'I' for Inactive)
REMARK    1  A    between atoms: C_1  and  C_2
REMARK    2  A    between atoms: C_4  and  C_8
REMARK    3  A    between atoms: C_16  and  C_18
REMARK                            x       y       z     vdW  Elec       q    Type
REMARK                         _______ _______ _______ _____ _____    ______ ____
ROOT
ATOM      1  C   UNL     1      -0.964  -2.951   1.248  0.00  0.00    +0.206 C 
ATOM      2  N   UNL     1      -0.415  -2.295   2.459  0.00  0.00    -0.231 NA
ATOM      3  N   UNL     1       0.534  -3.248   3.058  0.00  0.00    -0.224 NA
ATOM      4  C   UNL     1       0.931  -4.087   1.909  0.00  0.00    +0.240 C 
ATOM      5  N   UNL     1      -0.394  -4.317   1.240  0.00  0.00    -0.206 N 
ATOM      6  N   UNL     1      -0.645  -5.640   0.947  0.00  0.00    -0.173 NA
ATOM      7  C   UNL     1       0.026  -6.622   1.476  0.00  0.00    +0.125 C 
ATOM      8  S   UNL     1       1.337  -5.794   2.432  0.00  0.00    -0.063 S 
ATOM      9  H   UNL     1      -1.151  -2.062   3.108  0.00  0.00    +0.143 HD
ATOM     10  H   UNL     1       1.332  -2.768   3.447  0.00  0.00    +0.144 HD
ENDROOT
BRANCH   7  11
ATOM     11  C   UNL     1      -0.212  -8.072   1.327  0.00  0.00    +0.009 A 
ATOM     12  C   UNL     1       0.626  -8.989   1.988  0.00  0.00    +0.011 A 
ATOM     13  C   UNL     1       0.428 -10.326   1.867  0.00  0.00    +0.009 A 
ATOM     14  C   UNL     1      -0.626 -10.812   1.072  0.00  0.00    -0.018 A 
ATOM     15  C   UNL     1      -0.851 -12.191   0.932  0.00  0.00    +0.008 A 
ATOM     16  C   UNL     1      -1.880 -12.632   0.156  0.00  0.00    +0.001 A 
ATOM     17  C   UNL     1      -2.716 -11.735  -0.504  0.00  0.00    +0.001 A 
ATOM     18  C   UNL     1      -2.530 -10.391  -0.393  0.00  0.00    +0.008 A 
ATOM     19  C   UNL     1      -1.478  -9.898   0.401  0.00  0.00    -0.017 A 
ATOM     20  C   UNL     1      -1.261  -8.520   0.542  0.00  0.00    +0.019 A 
ENDBRANCH   7  11
BRANCH   1  24
ATOM     21  C   UNL     1      -0.018   1.503   0.010  0.00  0.00    +0.067 C 
ATOM     22  C   UNL     1       0.002  -0.004   0.002  0.00  0.00    +0.058 C 
ATOM     23  C   UNL     1      -1.086  -0.777   0.003  0.00  0.00    +0.029 C 
ATOM     24  C   UNL     1      -0.531  -2.190  -0.007  0.00  0.00    +0.190 C 
ATOM     25  N   UNL     1       0.926  -1.973  -0.013  0.00  0.00    -0.177 NA
ATOM     26  N   UNL     1       1.125  -0.756  -0.013  0.00  0.00    -0.159 NA
ENDBRANCH   1  24
TORSDOF 2
