REMARK  Name = ZINC16958983
REMARK  14 active torsions:
REMARK  status: ('A' for Active; 'I' for Inactive)
REMARK    1  A    between atoms: N_3  and  C_9
REMARK    2  A    between atoms: C_9  and  C_10
REMARK    3  A    between atoms: C_10  and  C_11
REMARK    4  A    between atoms: C_11  and  C_12
REMARK    5  A    between atoms: C_12  and  C_13
REMARK    6  A    between atoms: C_13  and  C_14
REMARK    7  A    between atoms: C_14  and  O_15
REMARK    8  A    between atoms: O_15  and  C_16
REMARK    9  A    between atoms: N_18  and  CA_19
REMARK   10  A    between atoms: CA_19  and  CB_21
REMARK   11  A    between atoms: CA_19  and  C_28
REMARK   12  A    between atoms: CB_21  and  CG_22
REMARK   13  A    between atoms: CG_22  and  CD_23
REMARK   14  A    between atoms: CD_23  and  NE_24
REMARK                            x       y       z     vdW  Elec       q    Type
REMARK                         _______ _______ _______ _____ _____    ______ ____
ROOT
ATOM      1  C   UNK A   0       1.321   1.585  -0.476  0.00  0.00    +0.401 C 
ATOM      2  O   UNK A   0       2.390   1.010  -0.515  0.00  0.00    -0.226 OA
ATOM      3  N   ARG A   1       1.281   2.924  -0.331  0.00  0.00    -0.268 N 
ATOM      4  H   ARG A   1       0.312   3.445  -0.296  0.00  0.00    +0.153 HD
ENDROOT
BRANCH   1   5
ATOM      5  O   UNK A   0       0.175   0.884  -0.579  0.00  0.00    -0.450 OA
BRANCH   5   6
ATOM      6  C   UNK A   0       0.295  -0.555  -0.734  0.00  0.00    +0.234 C 
BRANCH   6   7
ATOM      7  C   UNK A   0      -1.101  -1.174  -0.833  0.00  0.00    +0.041 C 
BRANCH   7   8
ATOM      8  C   UNK A   0      -0.975  -2.690  -0.996  0.00  0.00    +0.003 C 
BRANCH   8   9
ATOM      9  C   UNK A   0      -2.371  -3.310  -1.095  0.00  0.00    +0.002 C 
BRANCH   9  10
ATOM     10  C   UNK A   0      -2.245  -4.826  -1.258  0.00  0.00    +0.022 C 
BRANCH  10  11
ATOM     11  C   UNK A   0      -3.641  -5.445  -1.357  0.00  0.00    +0.126 C 
BRANCH  11  14
ATOM     12  C   UNK A   0      -3.328  -8.784  -2.891  0.00  0.00    +0.061 A 
ATOM     13  C   UNK A   0      -3.444  -7.441  -2.760  0.00  0.00    +0.094 A 
ATOM     14  N   UNK A   0      -3.521  -6.897  -1.513  0.00  0.00    -0.299 N 
ATOM     15  C   UNK A   0      -3.492  -7.687  -0.424  0.00  0.00    +0.350 A 
ATOM     16  O   UNK A   0      -3.567  -7.184   0.684  0.00  0.00    -0.244 OA
ATOM     17  N   UNK A   0      -3.384  -9.010  -0.537  0.00  0.00    -0.178 NA
ATOM     18  C   UNK A   0      -3.301  -9.583  -1.730  0.00  0.00    +0.123 A 
ATOM     19  N   UNK A   0      -3.190 -10.950  -1.834  0.00  0.00    -0.343 N 
ATOM     20  H   UNK A   0      -3.170 -11.571  -0.926  0.00  0.00    +0.144 HD
ATOM     21  H   UNK A   0      -3.122 -11.423  -2.825  0.00  0.00    +0.144 HD
ENDBRANCH  11  14
ENDBRANCH  10  11
ENDBRANCH   9  10
ENDBRANCH   8   9
ENDBRANCH   7   8
ENDBRANCH   6   7
ENDBRANCH   5   6
ENDBRANCH   1   5
BRANCH   3  22
ATOM     22  CA  ARG A   1       2.527   3.686  -0.219  0.00  0.00    +0.189 C 
BRANCH  22  23
ATOM     23  C   ARG A   1       2.987   3.689   1.216  0.00  0.00    +0.376 C 
ATOM     24  O   ARG A   1       2.340   3.114   2.058  0.00  0.00    -0.244 OA
ATOM     25  OXT ARG A   1       4.115   4.331   1.557  0.00  0.00    -0.244 OA
ENDBRANCH  22  23
BRANCH  22  26
ATOM     26  CB  ARG A   1       2.287   5.125  -0.681  0.00  0.00    +0.036 C 
BRANCH  26  27
ATOM     27  CG  ARG A   1       1.941   5.132  -2.171  0.00  0.00    +0.023 C 
BRANCH  27  28
ATOM     28  CD  ARG A   1       1.702   6.571  -2.633  0.00  0.00    +0.115 C 
BRANCH  28  29
ATOM     29  NE  ARG A   1       1.370   6.577  -4.060  0.00  0.00    -0.358 N 
ATOM     30  CZ  ARG A   1       0.202   6.997  -4.456  0.00  0.00    +0.166 C 
ATOM     31  NH1 ARG A   1      -0.671   7.554  -3.551  0.00  0.00    -0.372 N 
ATOM     32  NH2 ARG A   1      -0.159   6.883  -5.778  0.00  0.00    -0.372 N 
ATOM     33 HH11 ARG A   1      -1.657   7.909  -3.885  0.00  0.00    +0.159 HD
ATOM     34 HH12 ARG A   1      -0.383   7.646  -2.494  0.00  0.00    +0.159 HD
ATOM     35 HH21 ARG A   1      -1.145   7.238  -6.112  0.00  0.00    +0.159 HD
ATOM     36 HH22 ARG A   1       0.540   6.437  -6.502  0.00  0.00    +0.159 HD
ATOM     37  HE  ARG A   1       2.107   6.227  -4.798  0.00  0.00    +0.162 HD
ENDBRANCH  28  29
ENDBRANCH  27  28
ENDBRANCH  26  27
ENDBRANCH  22  26
ENDBRANCH   3  22
TORSDOF 14
