REMARK  Name = ZINC36146503
REMARK  10 active torsions:
REMARK  status: ('A' for Active; 'I' for Inactive)
REMARK    1  A    between atoms: C_4  and  C_7
REMARK    2  A    between atoms: C_7  and  C_8
REMARK    3  A    between atoms: C_8  and  C_10
REMARK    4  A    between atoms: C_8  and  O_36
REMARK    5  A    between atoms: C_10  and  N_11
REMARK    6  A    between atoms: N_11  and  C_12
REMARK    7  A    between atoms: N_11  and  C_20
REMARK    8  A    between atoms: C_12  and  C_13
REMARK    9  A    between atoms: C_20  and  C_21
REMARK   10  A    between atoms: C_24  and  C_27
REMARK                            x       y       z     vdW  Elec       q    Type
REMARK                         _______ _______ _______ _____ _____    ______ ____
ROOT
ATOM      1  N   UNL     1       6.168  -1.768   2.835  0.00  0.00    +0.386 N 
ATOM      2  H   UNL     1       5.590  -2.376   3.397  0.00  0.00    -0.081 HD
ENDROOT
BRANCH   1   3
ATOM      3  C   UNL     1       5.665  -1.751   1.455  0.00  0.00    -0.046 C 
BRANCH   3   4
ATOM      4  C   UNL     1       4.182  -1.374   1.457  0.00  0.00    +0.102 C 
BRANCH   4   5
ATOM      5  O   UNL     1       3.441  -2.360   2.179  0.00  0.00    -0.393 OA
ATOM      6  H   UNL     1       3.509  -3.251   1.809  0.00  0.00    +0.210 HD
ENDBRANCH   4   5
BRANCH   4   7
ATOM      7  C   UNL     1       3.671  -1.306   0.017  0.00  0.00    +0.064 C 
BRANCH   7  11
ATOM      8  C   UNL     1      -0.368   0.083   0.001  0.00  0.00    +0.000 A 
ATOM      9  C   UNL     1       0.674   0.987  -0.080  0.00  0.00    +0.000 A 
ATOM     10  C   UNL     1       1.981   0.538  -0.074  0.00  0.00    +0.004 A 
ATOM     11  C   UNL     1       2.246  -0.816   0.012  0.00  0.00    -0.045 A 
ATOM     12  C   UNL     1       1.204  -1.720   0.093  0.00  0.00    +0.004 A 
ATOM     13  C   UNL     1      -0.103  -1.271   0.086  0.00  0.00    +0.000 A 
ENDBRANCH   7  11
ENDBRANCH   4   7
ENDBRANCH   3   4
ENDBRANCH   1   3
BRANCH   1  14
ATOM     14  C   UNL     1       6.129  -0.407   3.387  0.00  0.00    -0.043 C 
BRANCH  14  15
ATOM     15  C   UNL     1       6.973   0.505   2.535  0.00  0.00    -0.064 A 
ATOM     16  C   UNL     1       8.319   0.657   2.811  0.00  0.00    +0.004 A 
ATOM     17  C   UNL     1       9.095   1.493   2.030  0.00  0.00    +0.038 A 
ATOM     18  C   UNL     1       8.523   2.178   0.971  0.00  0.00    +0.123 A 
ATOM     19  C   UNL     1       7.175   2.024   0.695  0.00  0.00    +0.038 A 
ATOM     20  C   UNL     1       6.402   1.183   1.475  0.00  0.00    +0.004 A 
ATOM     21  F   UNL     1       9.280   2.995   0.206  0.00  0.00    -0.205 F 
ENDBRANCH  14  15
ENDBRANCH   1  14
BRANCH   1  22
ATOM     22  C   UNL     1       7.551  -2.262   2.846  0.00  0.00    -0.030 C 
BRANCH  22  23
ATOM     23  C   UNL     1       8.033  -2.398   4.292  0.00  0.00    +0.194 C 
ATOM     24  C   UNL     1       9.505  -2.871   4.343  0.00  0.00    +0.104 C 
ATOM     25  C   UNL     1       9.509  -3.807   5.537  0.00  0.00    +0.091 C 
ATOM     26  N   UNL     1       8.285  -4.098   5.827  0.00  0.00    -0.089 NA
ATOM     27  O   UNL     1       7.353  -3.478   4.963  0.00  0.00    -0.392 OA
BRANCH  25  28
ATOM     28  C   UNL     1      10.706  -4.300   6.245  0.00  0.00    +0.003 A 
ATOM     29  C   UNL     1      11.979  -3.901   5.830  0.00  0.00    +0.013 A 
ATOM     30  C   UNL     1      13.096  -4.363   6.493  0.00  0.00    +0.050 A 
ATOM     31  C   UNL     1      12.962  -5.224   7.573  0.00  0.00    +0.166 A 
ATOM     32  C   UNL     1      11.694  -5.626   7.992  0.00  0.00    +0.167 A 
ATOM     33  C   UNL     1      10.570  -5.162   7.336  0.00  0.00    +0.059 A 
ATOM     34  O   UNL     1      11.834  -6.463   9.062  0.00  0.00    -0.453 OA
ATOM     35  C   UNL     1      13.208  -6.893   9.036  0.00  0.00    +0.466 C 
ATOM     36  O   UNL     1      13.893  -5.809   8.380  0.00  0.00    -0.453 OA
ENDBRANCH  25  28
ENDBRANCH  22  23
ENDBRANCH   1  22
TORSDOF 10
