REMARK  Name = ZINC44714546
REMARK  8 active torsions:
REMARK  status: ('A' for Active; 'I' for Inactive)
REMARK    1  A    between atoms: C_1  and  C_2
REMARK    2  A    between atoms: C_3  and  C_14
REMARK    3  A    between atoms: C_6  and  C_12
REMARK    4  A    between atoms: C_14  and  C_15
REMARK    5  A    between atoms: C_15  and  N_16
REMARK    6  A    between atoms: C_17  and  C_19
REMARK    7  A    between atoms: C_30  and  C_32
REMARK    8  A    between atoms: N_36  and  C_37
REMARK                            x       y       z     vdW  Elec       q    Type
REMARK                         _______ _______ _______ _____ _____    ______ ____
ROOT
ATOM      1  C   UNL     1       1.990   1.397  -7.276  0.00  0.00    +0.100 C 
ATOM      2  C   UNL     1       1.463   2.846  -7.174  0.00  0.00    +0.121 C 
ATOM      3  N   UNL     1       2.646   3.647  -6.781  0.00  0.00    -0.295 N 
ATOM      4  C   UNL     1       3.764   3.060  -7.559  0.00  0.00    +0.115 C 
ATOM      5  C   UNL     1       3.499   1.542  -7.532  0.00  0.00    -0.004 C 
ATOM      6  C   UNL     1       3.870   0.917  -8.874  0.00  0.00    -0.010 C 
ATOM      7  C   UNL     1       5.383   1.022  -9.079  0.00  0.00    -0.082 C 
ATOM      8  N   UNL     1       6.077   0.330  -7.986  0.00  0.00    +0.379 N 
ATOM      9  C   UNL     1       5.788   0.994  -6.710  0.00  0.00    -0.082 C 
ATOM     10  C   UNL     1       4.292   0.889  -6.404  0.00  0.00    -0.010 C 
ATOM     11  C   UNL     1       2.695   4.677  -5.913  0.00  0.00    +0.263 C 
ATOM     12  O   UNL     1       3.700   5.360  -5.835  0.00  0.00    -0.268 OA
ATOM     13  H   UNL     1       5.762  -0.628  -7.944  0.00  0.00    -0.086 HD
ATOM     14  H   UNL     1       7.071   0.347  -8.156  0.00  0.00    -0.086 HD
ENDROOT
BRANCH  11  15
ATOM     15  C   UNL     1       1.538   4.975  -5.062  0.00  0.00    +0.104 A 
ATOM     16  C   UNL     1       0.496   4.119  -4.775  0.00  0.00    +0.032 A 
ATOM     17  C   UNL     1      -0.382   4.808  -3.932  0.00  0.00    +0.020 A 
ATOM     18  C   UNL     1       0.129   6.046  -3.723  0.00  0.00    +0.086 A 
ATOM     19  N   UNL     1       1.298   6.157  -4.400  0.00  0.00    -0.346 N 
ATOM     20  C   UNL     1       2.161   7.341  -4.425  0.00  0.00    +0.149 C 
ENDBRANCH  11  15
BRANCH   1  22
ATOM     21  N   UNL     1       1.532  -0.673  -6.000  0.00  0.00    -0.315 N 
ATOM     22  C   UNL     1       1.745   0.658  -5.985  0.00  0.00    +0.218 C 
ATOM     23  O   UNL     1       1.740   1.261  -4.933  0.00  0.00    -0.275 OA
ATOM     24  H   UNL     1       1.536  -1.155  -6.842  0.00  0.00    +0.149 HD
BRANCH  21  25
ATOM     25  C   UNL     1       1.294  -1.391  -4.746  0.00  0.00    +0.109 C 
BRANCH  25  26
ATOM     26  C   UNL     1       1.083  -2.877  -5.041  0.00  0.00    +0.056 C 
BRANCH  26  29
ATOM     27  C   UNL     1      -1.678  -3.377  -3.714  0.00  0.00    +0.063 C 
ATOM     28  C   UNL     1      -0.350  -3.837  -3.170  0.00  0.00    +0.017 A 
ATOM     29  C   UNL     1       0.839  -3.616  -3.751  0.00  0.00    -0.018 A 
ATOM     30  C   UNL     1       1.855  -4.231  -2.892  0.00  0.00    +0.004 A 
ATOM     31  C   UNL     1       3.242  -4.336  -2.958  0.00  0.00    +0.029 A 
ATOM     32  C   UNL     1       3.925  -5.006  -1.947  0.00  0.00    +0.052 A 
ATOM     33  C   UNL     1       3.218  -5.568  -0.875  0.00  0.00    +0.021 A 
ATOM     34  C   UNL     1       1.860  -5.467  -0.808  0.00  0.00    +0.027 A 
ATOM     35  C   UNL     1       1.156  -4.800  -1.809  0.00  0.00    +0.047 A 
ATOM     36  N   UNL     1      -0.179  -4.538  -2.007  0.00  0.00    -0.358 N 
ATOM     37  H   UNL     1      -0.894  -4.812  -1.411  0.00  0.00    +0.166 HD
BRANCH  32  38
ATOM     38  C   UNL     1       5.352  -5.121  -2.002  0.00  0.00    +0.099 C 
ATOM     39  N   UNL     1       6.483  -5.213  -2.046  0.00  0.00    -0.191 NA
ENDBRANCH  32  38
ENDBRANCH  26  29
ENDBRANCH  25  26
ENDBRANCH  21  25
ENDBRANCH   1  22
TORSDOF 6
