REMARK  Name = ZINC20208575
REMARK  9 active torsions:
REMARK  status: ('A' for Active; 'I' for Inactive)
REMARK    1  A    between atoms: C_1  and  C_2
REMARK    2  A    between atoms: C_2  and  S_3
REMARK    3  A    between atoms: S_3  and  C_6
REMARK    4  A    between atoms: C_12  and  C_13
REMARK    5  A    between atoms: C_15  and  C_28
REMARK    6  A    between atoms: N_16  and  C_19
REMARK    7  A    between atoms: C_17  and  C_18
REMARK    8  A    between atoms: C_22  and  O_26
REMARK    9  A    between atoms: O_26  and  C_27
REMARK                            x       y       z     vdW  Elec       q    Type
REMARK                         _______ _______ _______ _____ _____    ______ ____
ROOT
ATOM      1  C   UNL     1      -5.096  -4.684   0.842  0.00  0.00    +0.235 C 
ATOM      2  N   UNL     1      -4.412  -5.362   1.718  0.00  0.00    -0.145 NA
ATOM      3  N   UNL     1      -3.370  -6.180   1.335  0.00  0.00    -0.152 N 
ATOM      4  C   UNL     1      -2.626  -7.024   2.188  0.00  0.00    +0.132 C 
ATOM      5  N   UNL     1      -3.072  -7.456   3.338  0.00  0.00    -0.385 N 
ATOM      6  C   UNL     1      -1.283  -7.372   1.648  0.00  0.00    +0.079 C 
ATOM      7  C   UNL     1      -0.196  -7.570   2.476  0.00  0.00    +0.026 C 
ATOM      8  C   UNL     1      -1.174  -7.495   0.175  0.00  0.00    +0.273 C 
ATOM      9  O   UNL     1      -0.308  -8.187  -0.336  0.00  0.00    -0.268 OA
ATOM     10  N   UNL     1      -2.060  -6.820  -0.585  0.00  0.00    -0.152 NA
ATOM     11  C   UNL     1      -3.052  -6.192  -0.006  0.00  0.00    +0.182 C 
ATOM     12  S   UNL     1      -4.307  -5.145  -0.695  0.00  0.00    -0.015 S 
ATOM     13  H   UNL     1      -3.919  -7.132   3.683  0.00  0.00    +0.157 HD
ATOM     14  H   UNL     1      -2.556  -8.101   3.847  0.00  0.00    +0.157 HD
ENDROOT
BRANCH   7  15
ATOM     15  C   UNL     1      -0.296  -7.276   3.860  0.00  0.00    -0.003 A 
ATOM     16  C   UNL     1      -1.103  -6.218   4.485  0.00  0.00    +0.031 A 
ATOM     17  C   UNL     1      -0.891  -6.310   5.808  0.00  0.00    +0.022 A 
ATOM     18  N   UNL     1      -0.021  -7.336   6.054  0.00  0.00    -0.317 N 
ATOM     19  C   UNL     1       0.342  -7.931   4.901  0.00  0.00    +0.028 A 
ATOM     20  C   UNL     1       1.282  -9.101   4.766  0.00  0.00    +0.064 C 
ATOM     21  C   UNL     1      -1.513  -5.423   6.855  0.00  0.00    +0.064 C 
BRANCH  18  22
ATOM     22  C   UNL     1       0.425  -7.719   7.327  0.00  0.00    +0.048 A 
ATOM     23  C   UNL     1       1.765  -7.580   7.664  0.00  0.00    +0.030 A 
ATOM     24  C   UNL     1       2.205  -7.957   8.918  0.00  0.00    +0.049 A 
ATOM     25  C   UNL     1       1.308  -8.475   9.841  0.00  0.00    +0.138 A 
ATOM     26  C   UNL     1      -0.032  -8.615   9.505  0.00  0.00    +0.084 A 
ATOM     27  C   UNL     1      -0.473  -8.232   8.253  0.00  0.00    +0.049 A 
ATOM     28 CL   UNL     1      -1.154  -9.263  10.660  0.00  0.00    -0.080 Cl
BRANCH  25  29
ATOM     29  O   UNL     1       1.742  -8.847  11.075  0.00  0.00    -0.494 OA
ATOM     30  C   UNL     1       3.133  -8.676  11.352  0.00  0.00    +0.277 C 
ENDBRANCH  25  29
ENDBRANCH  18  22
ENDBRANCH   7  15
BRANCH   1  31
ATOM     31  S   UNL     1      -6.456  -3.595   1.104  0.00  0.00    +0.022 S 
ATOM     32  O   UNL     1      -6.977  -3.964   2.373  0.00  0.00    -0.167 OA
ATOM     33  O   UNL     1      -7.250  -3.718  -0.068  0.00  0.00    -0.167 OA
BRANCH  31  35
ATOM     34  C   UNL     1      -6.819  -0.902   1.416  0.00  0.00    +0.028 C 
ATOM     35  C   UNL     1      -5.718  -1.939   1.188  0.00  0.00    +0.171 C 
ENDBRANCH  31  35
ENDBRANCH   1  31
TORSDOF 5
