REMARK  Name = ZINC14920467
REMARK  9 active torsions:
REMARK  status: ('A' for Active; 'I' for Inactive)
REMARK    1  A    between atoms: C_1  and  C_2
REMARK    2  A    between atoms: C_7  and  O_8
REMARK    3  A    between atoms: O_8  and  C_9
REMARK    4  A    between atoms: C_9  and  C_10
REMARK    5  A    between atoms: N_12  and  N_13
REMARK    6  A    between atoms: C_14  and  C_15
REMARK    7  A    between atoms: C_16  and  C_25
REMARK    8  A    between atoms: C_18  and  O_23
REMARK    9  A    between atoms: C_20  and  O_21
REMARK                            x       y       z     vdW  Elec       q    Type
REMARK                         _______ _______ _______ _____ _____    ______ ____
ROOT
ATOM      1  N   UNL     1      -4.040   5.887   0.053  0.00  0.00    -0.187 NA
ATOM      2  C   UNL     1      -4.226   7.171   0.061  0.00  0.00    +0.142 C 
ENDROOT
BRANCH   2   3
ATOM      3  C   UNL     1      -5.594   7.717   0.070  0.00  0.00    +0.041 A 
ATOM      4  C   UNL     1      -5.798   9.100   0.085  0.00  0.00    -0.021 A 
ATOM      5  C   UNL     1      -7.080   9.607   0.088  0.00  0.00    +0.064 A 
ATOM      6  C   UNL     1      -8.172   8.747   0.088  0.00  0.00    +0.148 A 
ATOM      7  C   UNL     1      -7.980   7.372   0.080  0.00  0.00    +0.102 A 
ATOM      8  C   UNL     1      -6.697   6.852   0.071  0.00  0.00    +0.143 A 
ATOM      9 BR   UNL     1      -9.471   6.210   0.080  0.00  0.00    -0.043 Br
ATOM     10 BR   UNL     1      -7.353  11.478   0.099  0.00  0.00    -0.046 Br
ATOM     11  C   UNL     1      -4.617  10.036   0.091  0.00  0.00    +0.046 C 
BRANCH   8  12
ATOM     12  O   UNL     1      -6.508   5.507   0.062  0.00  0.00    -0.505 OA
ATOM     13  H   UNL     1      -6.448   5.112   0.943  0.00  0.00    +0.292 HD
ENDBRANCH   8  12
BRANCH   6  14
ATOM     14  O   UNL     1      -9.432   9.254   0.097  0.00  0.00    -0.504 OA
ATOM     15  H   UNL     1      -9.794   9.396   0.982  0.00  0.00    +0.292 HD
ENDBRANCH   6  14
ENDBRANCH   2   3
BRANCH   1  18
ATOM     16  C   UNL     1      -2.545   4.034   0.036  0.00  0.00    +0.270 C 
ATOM     17  O   UNL     1      -3.498   3.283   0.036  0.00  0.00    -0.270 OA
ATOM     18  N   UNL     1      -2.738   5.367   0.044  0.00  0.00    -0.204 N 
ATOM     19  H   UNL     1      -1.977   5.968   0.044  0.00  0.00    +0.177 HD
BRANCH  16  20
ATOM     20  C   UNL     1      -1.145   3.475   0.026  0.00  0.00    +0.326 C 
BRANCH  20  21
ATOM     21  O   UNL     1      -1.202   2.047   0.019  0.00  0.00    -0.482 OA
BRANCH  21  28
ATOM     22  C   UNL     1      -1.292  -0.776   0.010  0.00  0.00    +0.047 C 
ATOM     23  C   UNL     1       0.002  -0.004   0.002  0.00  0.00    -0.009 A 
ATOM     24  C   UNL     1       1.208  -0.677  -0.013  0.00  0.00    +0.007 A 
ATOM     25  C   UNL     1       2.396   0.030  -0.021  0.00  0.00    +0.000 A 
ATOM     26  C   UNL     1       2.380   1.413  -0.013  0.00  0.00    +0.004 A 
ATOM     27  C   UNL     1       1.177   2.091   0.002  0.00  0.00    +0.046 A 
ATOM     28  C   UNL     1      -0.017   1.383   0.010  0.00  0.00    +0.124 A 
ENDBRANCH  21  28
ENDBRANCH  20  21
ENDBRANCH  16  20
ENDBRANCH   1  18
TORSDOF 7
