REMARK  Name = ZINC21170253
REMARK  9 active torsions:
REMARK  status: ('A' for Active; 'I' for Inactive)
REMARK    1  A    between atoms: C_1  and  C_2
REMARK    2  A    between atoms: C_2  and  C_3
REMARK    3  A    between atoms: C_3  and  N_4
REMARK    4  A    between atoms: C_5  and  N_32
REMARK    5  A    between atoms: C_6  and  C_13
REMARK    6  A    between atoms: C_13  and  C_15
REMARK    7  A    between atoms: C_15  and  S_16
REMARK    8  A    between atoms: S_16  and  C_17
REMARK    9  A    between atoms: C_20  and  C_26
REMARK                            x       y       z     vdW  Elec       q    Type
REMARK                         _______ _______ _______ _____ _____    ______ ____
ROOT
ATOM      1  C   UNL     1       4.816   9.399  -0.032  0.00  0.00    +0.182 C 
ATOM      2  O   UNL     1       3.602   9.360  -0.003  0.00  0.00    -0.291 OA
ENDROOT
BRANCH   1   5
ATOM      3  N   UNL     1       5.456  13.029  -0.069  0.00  0.00    -0.281 N 
ATOM      4  C   UNL     1       4.767  11.850  -0.093  0.00  0.00    +0.116 A 
ATOM      5  C   UNL     1       5.482  10.643  -0.016  0.00  0.00    +0.120 A 
ATOM      6  C   UNL     1       6.946  10.717   0.075  0.00  0.00    +0.266 A 
ATOM      7  O   UNL     1       7.617   9.703   0.139  0.00  0.00    -0.267 OA
ATOM      8  N   UNL     1       7.532  11.932   0.086  0.00  0.00    -0.274 N 
ATOM      9  H   UNL     1       8.627  12.014   0.153  0.00  0.00    +0.173 HD
ATOM     10  C   UNL     1       6.795  13.053   0.015  0.00  0.00    +0.331 A 
ATOM     11  O   UNL     1       7.362  14.128   0.028  0.00  0.00    -0.246 OA
BRANCH   4  12
ATOM     12  N   UNL     1       3.409  11.844  -0.185  0.00  0.00    -0.344 N 
ATOM     13  H   UNL     1       2.863  10.890  -0.203  0.00  0.00    +0.144 HD
ATOM     14  H   UNL     1       2.858  12.794  -0.240  0.00  0.00    +0.144 HD
ENDBRANCH   4  12
BRANCH   3  15
ATOM     15  C   UNL     1       4.719  14.293  -0.143  0.00  0.00    +0.128 C 
BRANCH  15  17
ATOM     16  C   UNL     1       3.783  16.022  -1.685  0.00  0.00    +0.005 C 
ATOM     17  C   UNL     1       4.553  14.702  -1.608  0.00  0.00    +0.018 C 
ENDBRANCH  15  17
ENDBRANCH   3  15
ENDBRANCH   1   5
BRANCH   1  18
ATOM     18  C   UNL     1       5.610   8.119  -0.083  0.00  0.00    +0.155 C 
BRANCH  18  19
ATOM     19  S   UNL     1       4.478   6.706  -0.091  0.00  0.00    -0.097 S 
BRANCH  19  20
ATOM     20  C   UNL     1       5.640   5.383  -0.153  0.00  0.00    +0.109 A 
ATOM     21  C   UNL     1       5.193   4.031  -0.176  0.00  0.00    +0.040 A 
ATOM     22  C   UNL     1       3.844   3.503  -0.157  0.00  0.00    +0.029 A 
ATOM     23  C   UNL     1       3.664   2.160  -0.187  0.00  0.00    +0.022 A 
ATOM     24  S   UNL     1       5.328   1.521  -0.237  0.00  0.00    -0.069 S 
ATOM     25  C   UNL     1       6.215   3.056  -0.226  0.00  0.00    +0.113 A 
ATOM     26  N   UNL     1       7.489   3.398  -0.248  0.00  0.00    -0.228 NA
ATOM     27  C   UNL     1       7.841   4.669  -0.224  0.00  0.00    +0.223 A 
ATOM     28  N   UNL     1       6.940   5.633  -0.177  0.00  0.00    -0.229 NA
BRANCH  23  29
ATOM     29  C   UNL     1       2.393   1.405  -0.175  0.00  0.00    -0.011 A 
ATOM     30  C   UNL     1       1.175   2.085  -0.127  0.00  0.00    +0.009 A 
ATOM     31  C   UNL     1      -0.007   1.375  -0.117  0.00  0.00    +0.001 A 
ATOM     32  C   UNL     1       0.012  -0.008  -0.154  0.00  0.00    +0.000 A 
ATOM     33  C   UNL     1       1.216  -0.688  -0.200  0.00  0.00    +0.001 A 
ATOM     34  C   UNL     1       2.406   0.010  -0.211  0.00  0.00    +0.009 A 
ENDBRANCH  23  29
ENDBRANCH  19  20
ENDBRANCH  18  19
ENDBRANCH   1  18
TORSDOF 8
