REMARK  Name = ZINC13164217
REMARK  5 active torsions:
REMARK  status: ('A' for Active; 'I' for Inactive)
REMARK    1  A    between atoms: C_1  and  C_2
REMARK    2  A    between atoms: C_2  and  C_24
REMARK    3  A    between atoms: N_5  and  C_9
REMARK    4  A    between atoms: C_9  and  C_10
REMARK    5  A    between atoms: N_12  and  C_13
REMARK                            x       y       z     vdW  Elec       q    Type
REMARK                         _______ _______ _______ _____ _____    ______ ____
ROOT
ATOM      1  C   UNL     1       1.747  -1.221   1.242  0.00  0.00    +0.047 C 
ATOM      2  C   UNL     1       1.416  -0.407  -0.010  0.00  0.00    +0.136 C 
ATOM      3  C   UNL     1       2.164   0.911  -0.006  0.00  0.00    +0.251 C 
ATOM      4  O   UNL     1       3.366   1.071  -0.009  0.00  0.00    -0.272 OA
ATOM      5  N   UNL     1       1.216   1.869   0.000  0.00  0.00    -0.215 N 
ATOM      6  C   UNL     1      -0.015   1.344   0.001  0.00  0.00    +0.310 C 
ATOM      7  O   UNL     1      -1.032   2.009   0.002  0.00  0.00    -0.252 OA
ATOM      8  N   UNL     1      -0.000  -0.001  -0.004  0.00  0.00    -0.281 N 
ATOM      9  H   UNL     1      -0.772  -0.589  -0.005  0.00  0.00    +0.152 HD
ENDROOT
BRANCH   2  10
ATOM     10  C   UNL     1       1.736  -1.196  -1.253  0.00  0.00    +0.003 A 
ATOM     11  C   UNL     1       0.742  -1.471  -2.173  0.00  0.00    +0.009 A 
ATOM     12  C   UNL     1       1.036  -2.189  -3.316  0.00  0.00    +0.020 A 
ATOM     13  C   UNL     1       2.325  -2.643  -3.536  0.00  0.00    +0.042 A 
ATOM     14  C   UNL     1       3.320  -2.373  -2.613  0.00  0.00    +0.040 A 
ATOM     15  C   UNL     1       3.025  -1.649  -1.472  0.00  0.00    +0.048 A 
ATOM     16 CL   UNL     1       4.273  -1.310  -0.313  0.00  0.00    -0.083 Cl
ATOM     17 CL   UNL     1       2.694  -3.551  -4.969  0.00  0.00    -0.083 Cl
ENDBRANCH   2  10
BRANCH   5  18
ATOM     18  C   UNL     1       1.498   3.306   0.004  0.00  0.00    +0.214 C 
BRANCH  18  19
ATOM     19  C   UNL     1       1.599   3.794   1.427  0.00  0.00    +0.235 C 
ATOM     20  O   UNL     1       1.449   3.018   2.346  0.00  0.00    -0.274 OA
ATOM     21  N   UNL     1       1.854   5.094   1.677  0.00  0.00    -0.284 N 
ATOM     22  H   UNL     1       2.040   5.701   0.944  0.00  0.00    +0.155 HD
BRANCH  21  23
ATOM     23  C   UNL     1       1.852   5.567   2.995  0.00  0.00    +0.037 A 
ATOM     24  C   UNL     1       1.398   6.850   3.272  0.00  0.00    +0.027 A 
ATOM     25  C   UNL     1       1.389   7.315   4.573  0.00  0.00    +0.051 A 
ATOM     26  C   UNL     1       1.845   6.509   5.603  0.00  0.00    +0.173 A 
ATOM     27  C   UNL     1       2.306   5.224   5.328  0.00  0.00    +0.174 A 
ATOM     28  C   UNL     1       2.308   4.755   4.025  0.00  0.00    +0.073 A 
ATOM     29  O   UNL     1       2.694   4.639   6.499  0.00  0.00    -0.395 OA
ATOM     30  C   UNL     1       2.087   5.426   7.541  0.00  0.00    +0.589 C 
ATOM     31  O   UNL     1       1.945   6.730   6.947  0.00  0.00    -0.395 OA
ATOM     32  F   UNL     1       0.835   4.903   7.885  0.00  0.00    -0.125 F 
ATOM     33  F   UNL     1       2.920   5.481   8.664  0.00  0.00    -0.125 F 
ENDBRANCH  21  23
ENDBRANCH  18  19
ENDBRANCH   5  18
TORSDOF 4
