REMARK  Name = ZINC46696806
REMARK  9 active torsions:
REMARK  status: ('A' for Active; 'I' for Inactive)
REMARK    1  A    between atoms: C_1  and  C_2
REMARK    2  A    between atoms: C_5  and  C_8
REMARK    3  A    between atoms: C_8  and  N_9
REMARK    4  A    between atoms: C_11  and  C_15
REMARK    5  A    between atoms: C_12  and  C_14
REMARK    6  A    between atoms: C_16  and  C_17
REMARK    7  A    between atoms: N_19  and  C_20
REMARK    8  A    between atoms: C_24  and  C_27
REMARK    9  A    between atoms: C_25  and  C_26
REMARK                            x       y       z     vdW  Elec       q    Type
REMARK                         _______ _______ _______ _____ _____    ______ ____
ROOT
ATOM      1  C   UNL     1       5.801  -5.935  -0.918  0.00  0.00    +0.018 C 
ATOM      2  C   UNL     1       5.353  -6.739  -1.908  0.00  0.00    +0.068 C 
ENDROOT
BRANCH   1   5
ATOM      3  N   UNL     1       3.155  -4.822   1.295  0.00  0.00    -0.248 N 
ATOM      4  C   UNL     1       3.624  -5.035   0.053  0.00  0.00    +0.135 A 
ATOM      5  C   UNL     1       4.903  -5.551   0.178  0.00  0.00    +0.034 A 
ATOM      6  C   UNL     1       5.182  -5.639   1.563  0.00  0.00    +0.069 A 
ATOM      7  N   UNL     1       4.141  -5.199   2.213  0.00  0.00    -0.174 NA
ATOM      8  C   UNL     1       6.461  -6.147   2.178  0.00  0.00    +0.068 C 
ATOM      9 CL   UNL     1       2.782  -4.721  -1.432  0.00  0.00    -0.062 Cl
BRANCH   3  10
ATOM     10  C   UNL     1       1.835  -4.281   1.631  0.00  0.00    +0.180 C 
BRANCH  10  15
ATOM     11  C   UNL     1       2.138   1.480   1.955  0.00  0.00    +0.044 C 
ATOM     12  C   UNL     1       2.059  -0.022   1.870  0.00  0.00    -0.050 A 
ATOM     13  C   UNL     1       1.761  -0.632   0.666  0.00  0.00    +0.004 A 
ATOM     14  C   UNL     1       1.688  -2.010   0.589  0.00  0.00    +0.006 A 
ATOM     15  C   UNL     1       1.915  -2.779   1.715  0.00  0.00    -0.026 A 
ATOM     16  C   UNL     1       2.215  -2.169   2.919  0.00  0.00    +0.006 A 
ATOM     17  C   UNL     1       2.291  -0.791   2.996  0.00  0.00    +0.004 A 
ENDBRANCH  10  15
ENDBRANCH   3  10
ENDBRANCH   1   5
BRANCH   2  18
ATOM     18  C   UNL     1       6.218  -7.110  -2.967  0.00  0.00    +0.241 C 
ATOM     19  O   UNL     1       7.366  -6.704  -2.985  0.00  0.00    -0.270 OA
ATOM     20  N   UNL     1       5.771  -7.912  -3.954  0.00  0.00    -0.282 N 
ATOM     21  H   UNL     1       4.882  -8.296  -3.901  0.00  0.00    +0.155 HD
BRANCH  20  22
ATOM     22  C   UNL     1       6.590  -8.190  -5.053  0.00  0.00    +0.037 A 
ATOM     23  C   UNL     1       7.651  -7.346  -5.361  0.00  0.00    +0.023 A 
ATOM     24  C   UNL     1       8.463  -7.617  -6.447  0.00  0.00    +0.003 A 
ATOM     25  C   UNL     1       8.225  -8.726  -7.232  0.00  0.00    +0.013 A 
ATOM     26  C   UNL     1       7.162  -9.580  -6.932  0.00  0.00    +0.041 A 
ATOM     27  C   UNL     1       6.346  -9.310  -5.833  0.00  0.00    -0.017 A 
ATOM     28  C   UNL     1       5.201 -10.230  -5.498  0.00  0.00    +0.046 C 
BRANCH  26  29
ATOM     29  C   UNL     1       6.905 -10.769  -7.772  0.00  0.00    +0.242 C 
ATOM     30  O   UNL     1       5.909 -11.440  -7.587  0.00  0.00    -0.270 OA
ATOM     31  N   UNL     1       7.776 -11.109  -8.743  0.00  0.00    -0.325 N 
ATOM     32  H   UNL     1       8.571 -10.573  -8.890  0.00  0.00    +0.145 HD
ATOM     33  H   UNL     1       7.607 -11.889  -9.294  0.00  0.00    +0.145 HD
ENDBRANCH  26  29
ENDBRANCH  20  22
ENDBRANCH   2  18
TORSDOF 6
