REMARK  Name = ZINC09678658
REMARK  7 active torsions:
REMARK  status: ('A' for Active; 'I' for Inactive)
REMARK    1  A    between atoms: C_1  and  C_2
REMARK    2  A    between atoms: C_2  and  C_3
REMARK    3  A    between atoms: C_2  and  C_4
REMARK    4  A    between atoms: C_4  and  C_5
REMARK    5  A    between atoms: C_5  and  N_6
REMARK    6  A    between atoms: C_7  and  N_67
REMARK    7  A    between atoms: C_17  and  N_67
REMARK                            x       y       z     vdW  Elec       q    Type
REMARK                         _______ _______ _______ _____ _____    ______ ____
ROOT
ATOM      1  N   UNL     1      -0.698   1.558   1.213  0.00  0.00    -0.307 N 
ATOM      2  C   UNL     1      -1.774   0.851   1.918  0.00  0.00    +0.051 C 
ATOM      3  C   UNL     1      -2.156   1.722   3.088  0.00  0.00    -0.032 A 
ATOM      4  C   UNL     1      -3.086   1.594   4.094  0.00  0.00    +0.004 A 
ATOM      5  C   UNL     1      -3.208   2.586   5.053  0.00  0.00    +0.000 A 
ATOM      6  C   UNL     1      -2.398   3.706   5.002  0.00  0.00    +0.001 A 
ATOM      7  C   UNL     1      -1.462   3.844   3.998  0.00  0.00    +0.013 A 
ATOM      8  C   UNL     1      -1.333   2.848   3.028  0.00  0.00    +0.040 A 
ATOM      9  C   UNL     1      -0.442   2.709   1.860  0.00  0.00    +0.246 C 
ATOM     10  O   UNL     1       0.401   3.519   1.528  0.00  0.00    -0.270 OA
ENDROOT
BRANCH   2  11
ATOM     11  N   UNL     1      -1.286  -0.454   2.403  0.00  0.00    +0.396 N 
ATOM     12  H   UNL     1      -1.594  -0.591   3.373  0.00  0.00    -0.082 HD
ATOM     13  H   UNL     1      -0.260  -0.468   2.364  0.00  0.00    -0.082 HD
BRANCH  11  14
ATOM     14  C   UNL     1      -1.820  -1.544   1.564  0.00  0.00    -0.069 C 
ATOM     15  C   UNL     1      -3.207  -1.945   2.070  0.00  0.00    -0.016 C 
ATOM     16  C   UNL     1      -4.257  -1.588   1.016  0.00  0.00    -0.002 C 
ATOM     17  C   UNL     1      -5.101  -2.824   0.697  0.00  0.00    -0.000 C 
ATOM     18  C   UNL     1      -5.099  -3.067  -0.814  0.00  0.00    -0.000 C 
ATOM     19  C   UNL     1      -4.666  -4.506  -1.099  0.00  0.00    -0.000 C 
ATOM     20  C   UNL     1      -3.505  -4.502  -2.094  0.00  0.00    -0.000 C 
ATOM     21  C   UNL     1      -2.338  -5.309  -1.521  0.00  0.00    -0.000 C 
ATOM     22  C   UNL     1      -1.068  -4.458  -1.546  0.00  0.00    -0.000 C 
ATOM     23  C   UNL     1      -0.445  -4.430  -0.148  0.00  0.00    -0.000 C 
ATOM     24  C   UNL     1      -0.225  -2.979   0.284  0.00  0.00    -0.002 C 
ATOM     25  C   UNL     1      -0.879  -2.748   1.647  0.00  0.00    -0.016 C 
ENDBRANCH  11  14
ENDBRANCH   2  11
BRANCH   1  26
ATOM     26  C   UNL     1      -0.013   1.086   0.008  0.00  0.00    +0.107 C 
BRANCH  26  27
ATOM     27  C   UNL     1      -0.753   1.593  -1.232  0.00  0.00    +0.022 C 
BRANCH  27  29
ATOM     28  C   UNL     1      -0.124  -0.427  -2.562  0.00  0.00    +0.007 C 
ATOM     29  C   UNL     1      -0.037   1.099  -2.490  0.00  0.00    -0.016 C 
ATOM     30  C   UNL     1      -0.702   1.707  -3.727  0.00  0.00    +0.007 C 
ENDBRANCH  27  29
ENDBRANCH  26  27
ENDBRANCH   1  26
TORSDOF 5
