REMARK  Name = ZINC13607340
REMARK  12 active torsions:
REMARK  status: ('A' for Active; 'I' for Inactive)
REMARK    1  A    between atoms: C_1  and  C_2
REMARK    2  A    between atoms: C_2  and  O_3
REMARK    3  A    between atoms: O_3  and  C_4
REMARK    4  A    between atoms: C_4  and  C_6
REMARK    5  A    between atoms: C_6  and  C_7
REMARK    6  A    between atoms: C_7  and  C_8
REMARK    7  A    between atoms: C_9  and  C_33
REMARK    8  A    between atoms: N_20  and  C_23
REMARK    9  A    between atoms: C_25  and  C_31
REMARK   10  A    between atoms: C_25  and  C_32
REMARK   11  A    between atoms: C_27  and  C_29
REMARK   12  A    between atoms: C_27  and  C_30
REMARK                            x       y       z     vdW  Elec       q    Type
REMARK                         _______ _______ _______ _____ _____    ______ ____
ROOT
ATOM      1  C   UNL     1       1.957  -4.827  -3.510  0.00  0.00    +0.041 A 
ATOM      2  C   UNL     1       3.291  -5.087  -3.493  0.00  0.00    -0.030 A 
ATOM      3  C   UNL     1       3.916  -5.573  -4.724  0.00  0.00    +0.021 A 
ATOM      4  C   UNL     1       5.285  -5.861  -4.773  0.00  0.00    +0.015 A 
ATOM      5  C   UNL     1       5.841  -6.312  -5.933  0.00  0.00    +0.047 A 
ATOM      6  C   UNL     1       5.057  -6.490  -7.075  0.00  0.00    +0.130 A 
ATOM      7  C   UNL     1       3.702  -6.212  -7.043  0.00  0.00    +0.051 A 
ATOM      8  C   UNL     1       3.120  -5.750  -5.870  0.00  0.00    +0.147 A 
ATOM      9  O   UNL     1       1.800  -5.471  -5.821  0.00  0.00    -0.422 OA
ATOM     10  C   UNL     1       1.218  -5.033  -4.693  0.00  0.00    +0.341 A 
ATOM     11  O   UNL     1       0.022  -4.802  -4.694  0.00  0.00    -0.245 OA
ATOM     12  C   UNL     1       2.844  -6.407  -8.267  0.00  0.00    +0.130 C 
ATOM     13  N   UNL     1       3.697  -6.494  -9.460  0.00  0.00    -0.263 NA
ATOM     14  C   UNL     1       4.789  -7.456  -9.233  0.00  0.00    +0.319 C 
ATOM     15  O   UNL     1       5.647  -6.939  -8.214  0.00  0.00    -0.476 OA
ATOM     16  C   UNL     1       4.103  -4.881  -2.240  0.00  0.00    +0.045 C 
ENDROOT
BRANCH  13  17
ATOM     17  C   UNL     1       2.908  -6.861 -10.648  0.00  0.00    +0.058 C 
ATOM     18  C   UNL     1       2.387  -8.290 -10.483  0.00  0.00    +0.006 C 
ATOM     19  C   UNL     1       1.575  -8.690 -11.714  0.00  0.00    -0.072 C 
ATOM     20  N   UNL     1       2.326  -8.509 -12.948  0.00  0.00    +0.386 N 
ATOM     21  C   UNL     1       3.040  -7.255 -13.126  0.00  0.00    -0.072 C 
ATOM     22  C   UNL     1       3.807  -6.818 -11.883  0.00  0.00    +0.006 C 
ATOM     23  C   UNL     1       2.107  -6.131 -13.585  0.00  0.00    -0.010 C 
ATOM     24  C   UNL     1       4.078  -7.468 -14.254  0.00  0.00    -0.010 C 
ATOM     25  C   UNL     1       0.243  -7.942 -11.736  0.00  0.00    -0.010 C 
ATOM     26  C   UNL     1       1.253 -10.196 -11.581  0.00  0.00    -0.010 C 
ATOM     27  H   UNL     1       2.997  -9.276 -13.031  0.00  0.00    -0.084 HD
ATOM     28  H   UNL     1       1.683  -8.629 -13.735  0.00  0.00    -0.084 HD
ENDBRANCH  13  17
BRANCH   1  29
ATOM     29  C   UNL     1       1.268  -4.327  -2.266  0.00  0.00    +0.054 C 
BRANCH  29  30
ATOM     30  C   UNL     1       1.189  -2.800  -2.307  0.00  0.00    +0.125 C 
BRANCH  30  31
ATOM     31  C   UNL     1       0.500  -2.300  -1.063  0.00  0.00    +0.307 C 
ATOM     32  O   UNL     1       0.113  -3.084  -0.230  0.00  0.00    -0.251 OA
BRANCH  31  33
ATOM     33  O   UNL     1       0.318  -0.983  -0.881  0.00  0.00    -0.465 OA
BRANCH  33  35
ATOM     34  C   UNL     1      -0.459   0.946   0.352  0.00  0.00    +0.048 C 
ATOM     35  C   UNL     1      -0.343  -0.579   0.321  0.00  0.00    +0.229 C 
ENDBRANCH  33  35
ENDBRANCH  31  33
ENDBRANCH  30  31
ENDBRANCH  29  30
ENDBRANCH   1  29
TORSDOF 6
