REMARK  Name = ZINC05491223
REMARK  2 active torsions:
REMARK  status: ('A' for Active; 'I' for Inactive)
REMARK    1  A    between atoms: C_3  and  O_18
REMARK    2  A    between atoms: C_6  and  C_7
REMARK                            x       y       z     vdW  Elec       q    Type
REMARK                         _______ _______ _______ _____ _____    ______ ____
ROOT
ATOM      1  C   UNL     1      -1.267  -0.762   0.011  0.00  0.00    +0.139 A 
ATOM      2  N   UNL     1      -1.368  -2.127   0.010  0.00  0.00    -0.338 N 
ATOM      3  H   UNL     1      -0.632  -2.759   0.004  0.00  0.00    +0.167 HD
ATOM      4  C   UNL     1      -2.715  -2.437   0.019  0.00  0.00    +0.067 A 
ATOM      5  C   UNL     1      -3.428  -3.628   0.023  0.00  0.00    +0.029 A 
ATOM      6  C   UNL     1      -4.806  -3.603   0.033  0.00  0.00    +0.022 A 
ATOM      7  C   UNL     1      -5.489  -2.393   0.039  0.00  0.00    +0.043 A 
ATOM      8  C   UNL     1      -4.798  -1.202   0.035  0.00  0.00    +0.050 A 
ATOM      9  C   UNL     1      -3.400  -1.209   0.026  0.00  0.00    +0.091 A 
ATOM     10  N   UNL     1      -2.464  -0.229   0.026  0.00  0.00    -0.228 NA
ATOM     11 CL   UNL     1      -7.224  -2.383   0.051  0.00  0.00    -0.083 Cl
ENDROOT
BRANCH   1  17
ATOM     12  C   UNL     1      -0.017   1.392   0.010  0.00  0.00    +0.015 A 
ATOM     13  C   UNL     1       1.168   2.095   0.002  0.00  0.00    +0.046 A 
ATOM     14  C   UNL     1       2.380   1.417  -0.013  0.00  0.00    +0.117 A 
ATOM     15  C   UNL     1       2.403   0.028  -0.022  0.00  0.00    +0.046 A 
ATOM     16  C   UNL     1       1.222  -0.682  -0.014  0.00  0.00    +0.015 A 
ATOM     17  C   UNL     1       0.002  -0.004   0.002  0.00  0.00    +0.018 A 
BRANCH  14  18
ATOM     18  O   UNL     1       3.546   2.114  -0.021  0.00  0.00    -0.507 OA
ATOM     19  H   UNL     1       3.892   2.311   0.860  0.00  0.00    +0.292 HD
ENDBRANCH  14  18
ENDBRANCH   1  17
TORSDOF 2
