REMARK  Name = ZINC45541065
REMARK  10 active torsions:
REMARK  status: ('A' for Active; 'I' for Inactive)
REMARK    1  A    between atoms: C_1  and  C_2
REMARK    2  A    between atoms: C_2  and  C_3
REMARK    3  A    between atoms: C_3  and  C_5
REMARK    4  A    between atoms: C_3  and  C_6
REMARK    5  A    between atoms: C_6  and  C_7
REMARK    6  A    between atoms: C_8  and  C_35
REMARK    7  A    between atoms: C_16  and  S_18
REMARK    8  A    between atoms: S_18  and  C_19
REMARK    9  A    between atoms: C_19  and  C_20
REMARK   10  A    between atoms: N_25  and  C_26
REMARK                            x       y       z     vdW  Elec       q    Type
REMARK                         _______ _______ _______ _____ _____    ______ ____
ROOT
ATOM      1  S   UNL     1       7.570  -3.196  -2.586  0.00  0.00    -0.078 S 
ENDROOT
BRANCH   1  11
ATOM      2  C   UNL     1       1.656  -2.539  -2.369  0.00  0.00    -0.023 A 
ATOM      3  C   UNL     1       1.054  -2.860  -3.524  0.00  0.00    -0.007 A 
ATOM      4  S   UNL     1       2.407  -3.348  -4.576  0.00  0.00    -0.073 S 
ATOM      5  C   UNL     1       3.744  -3.107  -3.434  0.00  0.00    +0.117 A 
ATOM      6  C   UNL     1       3.101  -2.648  -2.269  0.00  0.00    +0.075 A 
ATOM      7  C   UNL     1       3.956  -2.361  -1.159  0.00  0.00    +0.261 A 
ATOM      8  O   UNL     1       3.488  -1.963  -0.106  0.00  0.00    -0.267 OA
ATOM      9  N   UNL     1       5.284  -2.536  -1.291  0.00  0.00    -0.301 N 
ATOM     10  H   UNL     1       5.867  -2.343  -0.540  0.00  0.00    +0.171 HD
ATOM     11  C   UNL     1       5.826  -2.982  -2.462  0.00  0.00    +0.170 A 
ATOM     12  N   UNL     1       5.061  -3.263  -3.497  0.00  0.00    -0.216 NA
ATOM     13  C   UNL     1      -0.417  -2.819  -3.852  0.00  0.00    +0.052 C 
BRANCH   2  14
ATOM     14  C   UNL     1       0.844  -2.065  -1.192  0.00  0.00    +0.040 C 
BRANCH  14  15
ATOM     15  C   UNL     1       0.703  -0.543  -1.249  0.00  0.00    -0.010 C 
ATOM     16  C   UNL     1      -0.110  -0.152  -2.485  0.00  0.00    +0.008 C 
BRANCH  15  18
ATOM     17  C   UNL     1      -0.043   1.481   0.013  0.00  0.00    +0.004 C 
ATOM     18  C   UNL     1      -0.013  -0.049   0.010  0.00  0.00    +0.000 C 
ENDBRANCH  15  18
ENDBRANCH  14  15
ENDBRANCH   2  14
ENDBRANCH   1  11
BRANCH   1  19
ATOM     19  C   UNL     1       7.820  -3.788  -4.282  0.00  0.00    +0.173 C 
BRANCH  19  20
ATOM     20  C   UNL     1       9.290  -4.014  -4.524  0.00  0.00    +0.231 C 
ATOM     21  O   UNL     1      10.091  -3.797  -3.639  0.00  0.00    -0.274 OA
ATOM     22  N   UNL     1       9.716  -4.457  -5.724  0.00  0.00    -0.239 N 
ATOM     23  C   UNL     1      11.030  -4.659  -5.940  0.00  0.00    +0.310 C 
ATOM     24  O   UNL     1      11.833  -4.442  -5.053  0.00  0.00    -0.252 OA
ATOM     25  N   UNL     1      11.456  -5.103  -7.139  0.00  0.00    -0.269 N 
ATOM     26  H   UNL     1       9.075  -4.630  -6.431  0.00  0.00    +0.159 HD
ATOM     27  H   UNL     1      10.812  -5.340  -7.825  0.00  0.00    +0.156 HD
BRANCH  25  28
ATOM     28  C   UNL     1      12.828  -5.221  -7.396  0.00  0.00    +0.038 A 
ATOM     29  C   UNL     1      13.323  -4.950  -8.665  0.00  0.00    +0.027 A 
ATOM     30  C   UNL     1      14.676  -5.066  -8.920  0.00  0.00    +0.051 A 
ATOM     31  C   UNL     1      15.543  -5.453  -7.911  0.00  0.00    +0.166 A 
ATOM     32  C   UNL     1      15.050  -5.725  -6.637  0.00  0.00    +0.168 A 
ATOM     33  C   UNL     1      13.694  -5.603  -6.381  0.00  0.00    +0.073 A 
ATOM     34  O   UNL     1      16.093  -6.082  -5.832  0.00  0.00    -0.453 OA
ATOM     35  C   UNL     1      17.170  -6.421  -6.726  0.00  0.00    +0.466 C 
ATOM     36  O   UNL     1      16.896  -5.639  -7.904  0.00  0.00    -0.453 OA
ENDBRANCH  25  28
ENDBRANCH  19  20
ENDBRANCH   1  19
TORSDOF 7
