REMARK  Name = ZINC24762423
REMARK  10 active torsions:
REMARK  status: ('A' for Active; 'I' for Inactive)
REMARK    1  A    between atoms: C_1  and  C_2
REMARK    2  A    between atoms: C_2  and  C_4
REMARK    3  A    between atoms: C_2  and  N_10
REMARK    4  A    between atoms: C_4  and  C_5
REMARK    5  A    between atoms: N_10  and  C_11
REMARK    6  A    between atoms: N_10  and  C_20
REMARK    7  A    between atoms: C_11  and  C_12
REMARK    8  A    between atoms: C_15  and  O_18
REMARK    9  A    between atoms: O_18  and  C_19
REMARK   10  A    between atoms: C_20  and  C_21
REMARK                            x       y       z     vdW  Elec       q    Type
REMARK                         _______ _______ _______ _____ _____    ______ ____
ROOT
ATOM      1  N   UNL     1      -0.555  -0.525   0.460  0.00  0.00    +0.389 N 
ATOM      2  H   UNL     1      -0.540   0.150   1.210  0.00  0.00    -0.080 HD
ENDROOT
BRANCH   1   4
ATOM      3  C   UNL     1       1.868  -0.204   0.313  0.00  0.00    -0.013 C 
ATOM      4  C   UNL     1       0.552  -0.254  -0.466  0.00  0.00    -0.066 C 
BRANCH   4   5
ATOM      5  C   UNL     1       0.623  -1.364  -1.516  0.00  0.00    +0.027 C 
BRANCH   5   6
ATOM      6  C   UNL     1      -0.136  -0.941  -2.747  0.00  0.00    -0.012 A 
ATOM      7  C   UNL     1       0.225  -0.059  -3.711  0.00  0.00    +0.011 A 
ATOM      8  C   UNL     1      -0.641   0.177  -4.763  0.00  0.00    +0.008 A 
ATOM      9  C   UNL     1      -1.825  -0.481  -4.799  0.00  0.00    +0.045 A 
ATOM     10  S   UNL     1      -1.740  -1.476  -3.319  0.00  0.00    -0.102 S 
ENDBRANCH   5   6
ENDBRANCH   4   5
ENDBRANCH   1   4
BRANCH   1  11
ATOM     11  C   UNL     1      -1.832  -0.427  -0.261  0.00  0.00    -0.042 C 
BRANCH  11  12
ATOM     12  C   UNL     1      -2.115   1.017  -0.586  0.00  0.00    -0.064 A 
ATOM     13  C   UNL     1      -2.707   1.834   0.360  0.00  0.00    +0.005 A 
ATOM     14  C   UNL     1      -2.968   3.158   0.065  0.00  0.00    +0.046 A 
ATOM     15  C   UNL     1      -2.637   3.667  -1.182  0.00  0.00    +0.120 A 
ATOM     16  C   UNL     1      -2.043   2.845  -2.130  0.00  0.00    +0.046 A 
ATOM     17  C   UNL     1      -1.779   1.524  -1.827  0.00  0.00    +0.005 A 
BRANCH  15  18
ATOM     18  O   UNL     1      -2.893   4.969  -1.476  0.00  0.00    -0.495 OA
ATOM     19  C   UNL     1      -2.526   5.425  -2.779  0.00  0.00    +0.277 C 
ENDBRANCH  15  18
ENDBRANCH  11  12
ENDBRANCH   1  11
BRANCH   1  20
ATOM     20  C   UNL     1      -0.409  -1.877   1.015  0.00  0.00    -0.002 C 
BRANCH  20  21
ATOM     21  C   UNL     1       0.320  -1.803   2.332  0.00  0.00    +0.095 A 
ATOM     22  N   UNL     1       0.588  -0.633   2.842  0.00  0.00    -0.197 NA
ATOM     23  C   UNL     1       1.233  -0.488   4.010  0.00  0.00    +0.282 A 
ATOM     24  O   UNL     1       1.467   0.624   4.457  0.00  0.00    -0.265 OA
ATOM     25  C   UNL     1       1.656  -1.700   4.747  0.00  0.00    +0.075 A 
ATOM     26  C   UNL     1       2.368  -1.790   6.031  0.00  0.00    -0.023 A 
ATOM     27  C   UNL     1       2.637  -3.024   6.489  0.00  0.00    -0.004 A 
ATOM     28  S   UNL     1       1.968  -4.123   5.262  0.00  0.00    -0.075 S 
ATOM     29  C   UNL     1       1.332  -2.912   4.137  0.00  0.00    +0.092 A 
ATOM     30  N   UNL     1       0.670  -2.949   2.952  0.00  0.00    -0.339 N 
ATOM     31  C   UNL     1       3.370  -2.995   7.803  0.00  0.00    +0.043 C 
ATOM     32  C   UNL     1       3.914  -1.553   7.912  0.00  0.00    +0.010 C 
ATOM     33  C   UNL     1       2.910  -0.774   7.040  0.00  0.00    +0.037 C 
ATOM     34  H   UNL     1       0.451  -3.803   2.547  0.00  0.00    +0.167 HD
ENDBRANCH  20  21
ENDBRANCH   1  20
TORSDOF 8
