REMARK  Name = ZINC02923002
REMARK  12 active torsions:
REMARK  status: ('A' for Active; 'I' for Inactive)
REMARK    1  A    between atoms: C_1  and  C_2
REMARK    2  A    between atoms: C_2  and  C_3
REMARK    3  A    between atoms: C_7  and  C_33
REMARK    4  A    between atoms: C_8  and  N_9
REMARK    5  A    between atoms: N_9  and  C_10
REMARK    6  A    between atoms: C_10  and  N_12
REMARK    7  A    between atoms: N_12  and  N_13
REMARK    8  A    between atoms: N_21  and  C_24
REMARK    9  A    between atoms: C_24  and  N_25
REMARK   10  A    between atoms: N_25  and  C_26
REMARK   11  A    between atoms: N_25  and  C_27
REMARK   12  A    between atoms: C_33  and  C_34
REMARK                            x       y       z     vdW  Elec       q    Type
REMARK                         _______ _______ _______ _____ _____    ______ ____
ROOT
ATOM      1  N   UNL     1      -3.469  -3.495  -5.084  0.00  0.00    -0.175 NA
ATOM      2  C   UNL     1      -3.129  -4.028  -6.233  0.00  0.00    +0.153 C 
ATOM      3  C   UNL     1      -3.776  -5.167  -6.925  0.00  0.00    +0.028 A 
ATOM      4  C   UNL     1      -4.861  -5.978  -6.615  0.00  0.00    +0.012 A 
ATOM      5  C   UNL     1      -5.234  -6.986  -7.482  0.00  0.00    +0.001 A 
ATOM      6  C   UNL     1      -4.528  -7.187  -8.656  0.00  0.00    +0.002 A 
ATOM      7  C   UNL     1      -3.454  -6.382  -8.977  0.00  0.00    +0.024 A 
ATOM      8  C   UNL     1      -3.061  -5.365  -8.114  0.00  0.00    +0.044 A 
ATOM      9  N   UNL     1      -2.027  -4.438  -8.187  0.00  0.00    -0.282 N 
ATOM     10  C   UNL     1      -2.016  -3.628  -7.115  0.00  0.00    +0.270 C 
ATOM     11  O   UNL     1      -1.227  -2.725  -6.908  0.00  0.00    -0.268 OA
ENDROOT
BRANCH   1  12
ATOM     12  N   UNL     1      -2.738  -2.417  -4.568  0.00  0.00    -0.217 N 
ATOM     13  H   UNL     1      -1.879  -2.017  -5.128  0.00  0.00    +0.176 HD
BRANCH  12  14
ATOM     14  C   UNL     1      -3.087  -1.869  -3.388  0.00  0.00    +0.154 C 
ATOM     15  S   UNL     1      -2.194  -0.551  -2.758  0.00  0.00    -0.017 S 
BRANCH  14  16
ATOM     16  N   UNL     1      -4.140  -2.358  -2.703  0.00  0.00    -0.295 N 
ATOM     17  H   UNL     1      -4.774  -3.136  -3.152  0.00  0.00    +0.154 HD
BRANCH  16  23
ATOM     18  C   UNL     1      -5.565  -1.114  -1.202  0.00  0.00    -0.026 A 
ATOM     19  C   UNL     1      -5.848  -0.646   0.066  0.00  0.00    +0.005 A 
ATOM     20  C   UNL     1      -4.990  -0.924   1.115  0.00  0.00    +0.001 A 
ATOM     21  C   UNL     1      -3.850  -1.677   0.899  0.00  0.00    +0.005 A 
ATOM     22  C   UNL     1      -3.566  -2.154  -0.366  0.00  0.00    -0.026 A 
ATOM     23  C   UNL     1      -4.425  -1.876  -1.421  0.00  0.00    +0.039 A 
BRANCH  18  25
ATOM     24  C   UNL     1      -7.485  -1.958  -2.525  0.00  0.00    +0.009 C 
ATOM     25  C   UNL     1      -6.497  -0.804  -2.345  0.00  0.00    +0.033 C 
ENDBRANCH  18  25
BRANCH  22  26
ATOM     26  C   UNL     1      -2.324  -2.975  -0.600  0.00  0.00    +0.033 C 
ATOM     27  C   UNL     1      -1.805  -3.509   0.737  0.00  0.00    +0.009 C 
ENDBRANCH  22  26
ENDBRANCH  16  23
ENDBRANCH  14  16
ENDBRANCH  12  14
ENDBRANCH   1  12
BRANCH   9  28
ATOM     28  C   UNL     1      -1.071  -4.355  -9.294  0.00  0.00    +0.039 C 
BRANCH  28  29
ATOM     29  N   UNL     1       0.088  -5.210  -9.005  0.00  0.00    +0.390 N 
ATOM     30  C   UNL     1      -0.201  -6.615  -9.326  0.00  0.00    -0.093 C 
ATOM     31  H   UNL     1       0.295  -5.146  -7.927  0.00  0.00    -0.079 HD
BRANCH  29  32
ATOM     32  C   UNL     1       1.281  -4.741  -9.723  0.00  0.00    -0.067 C 
ATOM     33  C   UNL     1       1.059  -4.886 -11.230  0.00  0.00    -0.015 C 
ATOM     34  C   UNL     1       2.302  -4.398 -11.977  0.00  0.00    -0.002 C 
ATOM     35  C   UNL     1       3.512  -5.234 -11.557  0.00  0.00    -0.000 C 
ATOM     36  C   UNL     1       3.733  -5.088 -10.050  0.00  0.00    -0.002 C 
ATOM     37  C   UNL     1       2.491  -5.577  -9.302  0.00  0.00    -0.015 C 
ENDBRANCH  29  32
ENDBRANCH  28  29
ENDBRANCH   9  28
TORSDOF 9
