REMARK  Name = ZINC04965566
REMARK  3 active torsions:
REMARK  status: ('A' for Active; 'I' for Inactive)
REMARK    1  A    between atoms: C_4  and  N_7
REMARK    2  A    between atoms: C_14  and  C_17
REMARK    3  A    between atoms: N_19  and  C_20
REMARK                            x       y       z     vdW  Elec       q    Type
REMARK                         _______ _______ _______ _____ _____    ______ ____
ROOT
ATOM      1  N   UNL     1       1.137   1.912   0.006  0.00  0.00    -0.296 N 
ATOM      2  C   UNL     1      -0.014   1.212   0.009  0.00  0.00    +0.302 C 
ATOM      3  O   UNL     1       0.013  -0.004  -0.002  0.00  0.00    -0.253 OA
ATOM      4  N   UNL     1      -1.197   1.859   0.018  0.00  0.00    -0.285 N 
ATOM      5  C   UNL     1      -1.249   3.324  -0.084  0.00  0.00    +0.109 C 
ATOM      6  C   UNL     1      -2.180   3.704  -1.240  0.00  0.00    +0.020 C 
ATOM      7  C   UNL     1      -3.542   3.039  -1.032  0.00  0.00    +0.016 C 
ATOM      8  C   UNL     1      -3.375   1.518  -1.028  0.00  0.00    +0.092 C 
ATOM      9  C   UNL     1      -2.458   1.112   0.124  0.00  0.00    +0.122 C 
ATOM     10  H   UNL     1       1.116   2.880  -0.059  0.00  0.00    +0.151 HD
ENDROOT
BRANCH   1  14
ATOM     11  C   UNL     1       5.192   1.082   1.042  0.00  0.00    +0.000 C 
ATOM     12  C   UNL     1       4.859   1.342  -0.428  0.00  0.00    +0.002 C 
ATOM     13  C   UNL     1       3.519   2.073  -0.527  0.00  0.00    +0.022 C 
ATOM     14  C   UNL     1       2.421   1.212   0.100  0.00  0.00    +0.074 C 
ATOM     15  C   UNL     1       2.753   0.952   1.571  0.00  0.00    +0.022 C 
ATOM     16  C   UNL     1       4.093   0.221   1.669  0.00  0.00    +0.002 C 
ENDBRANCH   1  14
BRANCH   8  17
ATOM     17  C   UNL     1      -4.721   0.864  -0.857  0.00  0.00    +0.218 C 
ATOM     18  O   UNL     1      -5.718   1.547  -0.749  0.00  0.00    -0.275 OA
ATOM     19  N   UNL     1      -4.818  -0.480  -0.824  0.00  0.00    -0.312 N 
ATOM     20  H   UNL     1      -4.021  -1.026  -0.911  0.00  0.00    +0.149 HD
BRANCH  19  21
ATOM     21  C   UNL     1      -6.128  -1.116  -0.658  0.00  0.00    +0.073 C 
ATOM     22  C   UNL     1      -6.452  -1.273   0.842  0.00  0.00    +0.022 C 
ATOM     23  C   UNL     1      -7.183  -2.636   0.932  0.00  0.00    +0.002 C 
ATOM     24  C   UNL     1      -6.415  -3.504  -0.095  0.00  0.00    +0.002 C 
ATOM     25  C   UNL     1      -6.104  -2.534  -1.254  0.00  0.00    +0.022 C 
ENDBRANCH  19  21
ENDBRANCH   8  17
TORSDOF 3
