REMARK  Name = ZINC13064758
REMARK  19 active torsions:
REMARK  status: ('A' for Active; 'I' for Inactive)
REMARK    1  A    between atoms: C_1  and  C_2
REMARK    2  A    between atoms: C_2  and  C_3
REMARK    3  A    between atoms: C_3  and  C_5
REMARK    4  A    between atoms: C_3  and  N_77
REMARK    5  A    between atoms: N_9  and  C_10
REMARK    6  A    between atoms: C_10  and  C_11
REMARK    7  A    between atoms: C_11  and  O_12
REMARK    8  A    between atoms: O_12  and  C_13
REMARK    9  A    between atoms: C_14  and  C_15
REMARK   10  A    between atoms: C_14  and  N_77
REMARK   11  A    between atoms: C_15  and  C_16
REMARK   12  A    between atoms: C_19  and  O_24
REMARK   13  A    between atoms: C_20  and  O_22
REMARK   14  A    between atoms: O_22  and  C_23
REMARK   15  A    between atoms: O_24  and  C_25
REMARK   16  A    between atoms: C_26  and  C_27
REMARK   17  A    between atoms: C_26  and  N_77
REMARK   18  A    between atoms: C_31  and  C_40
REMARK   19  A    between atoms: C_32  and  C_39
REMARK                            x       y       z     vdW  Elec       q    Type
REMARK                         _______ _______ _______ _____ _____    ______ ____
ROOT
ATOM      1  N   UNL     1      -5.608   4.361  -1.437  0.00  0.00    +0.389 N 
ATOM      2  H   UNL     1      -6.255   3.730  -1.924  0.00  0.00    -0.080 HD
ENDROOT
BRANCH   1   3
ATOM      3  C   UNL     1      -4.278   4.269  -2.074  0.00  0.00    +0.003 C 
BRANCH   3   4
ATOM      4  C   UNL     1      -4.436   3.606  -3.418  0.00  0.00    +0.138 A 
ATOM      5  N   UNL     1      -5.534   3.535  -4.130  0.00  0.00    -0.115 NA
ATOM      6  N   UNL     1      -5.265   2.891  -5.213  0.00  0.00    -0.023 NA
ATOM      7  N   UNL     1      -4.023   2.550  -5.210  0.00  0.00    -0.044 NA
ATOM      8  N   UNL     1      -3.477   2.978  -4.122  0.00  0.00    -0.229 N 
BRANCH   8   9
ATOM      9  C   UNL     1      -2.077   2.808  -3.726  0.00  0.00    +0.175 C 
BRANCH   9  10
ATOM     10  C   UNL     1      -1.925   1.506  -2.937  0.00  0.00    +0.183 C 
BRANCH  10  11
ATOM     11  O   UNL     1      -0.559   1.340  -2.550  0.00  0.00    -0.381 OA
ATOM     12  C   UNL     1      -0.307   0.148  -1.803  0.00  0.00    +0.194 C 
ENDBRANCH  10  11
ENDBRANCH   9  10
ENDBRANCH   8   9
ENDBRANCH   3   4
BRANCH   3  14
ATOM     13  C   UNL     1      -3.321   6.254  -0.896  0.00  0.00    +0.002 C 
ATOM     14  C   UNL     1      -3.683   5.666  -2.261  0.00  0.00    -0.011 C 
ENDBRANCH   3  14
ENDBRANCH   1   3
BRANCH   1  15
ATOM     15  C   UNL     1      -6.121   5.744  -1.536  0.00  0.00    -0.073 C 
BRANCH  15  16
ATOM     16  C   UNL     1      -6.516   6.020  -2.989  0.00  0.00    +0.017 C 
BRANCH  16  17
ATOM     17  C   UNL     1      -7.276   7.319  -3.065  0.00  0.00    -0.045 A 
ATOM     18  C   UNL     1      -8.652   7.321  -2.938  0.00  0.00    +0.007 A 
ATOM     19  C   UNL     1      -9.354   8.511  -3.001  0.00  0.00    +0.049 A 
ATOM     20  C   UNL     1      -8.678   9.703  -3.204  0.00  0.00    +0.161 A 
ATOM     21  C   UNL     1      -7.293   9.700  -3.337  0.00  0.00    +0.162 A 
ATOM     22  C   UNL     1      -6.595   8.505  -3.267  0.00  0.00    +0.053 A 
BRANCH  21  23
ATOM     23  O   UNL     1      -6.625  10.868  -3.535  0.00  0.00    -0.491 OA
ATOM     24  C   UNL     1      -5.204  10.790  -3.662  0.00  0.00    +0.277 C 
ENDBRANCH  21  23
BRANCH  20  25
ATOM     25  O   UNL     1      -9.367  10.874  -3.271  0.00  0.00    -0.491 OA
ATOM     26  C   UNL     1     -10.787  10.800  -3.126  0.00  0.00    +0.277 C 
ENDBRANCH  20  25
ENDBRANCH  16  17
ENDBRANCH  15  16
ENDBRANCH   1  15
BRANCH   1  27
ATOM     27  C   UNL     1      -5.519   3.956  -0.019  0.00  0.00    -0.037 C 
BRANCH  27  28
ATOM     28  C   UNL     1      -5.341   2.461   0.048  0.00  0.00    +0.001 A 
ATOM     29  C   UNL     1      -4.131   1.938   0.366  0.00  0.00    +0.017 A 
ATOM     30  C   UNL     1      -3.990   0.482   0.417  0.00  0.00    -0.001 A 
ATOM     31  C   UNL     1      -2.763  -0.116   0.724  0.00  0.00    +0.013 A 
ATOM     32  C   UNL     1      -2.664  -1.478   0.763  0.00  0.00    -0.047 A 
ATOM     33  C   UNL     1      -3.771  -2.274   0.502  0.00  0.00    -0.046 A 
ATOM     34  C   UNL     1      -4.990  -1.707   0.198  0.00  0.00    +0.030 A 
ATOM     35  C   UNL     1      -5.113  -0.322   0.147  0.00  0.00    +0.049 A 
ATOM     36  N   UNL     1      -6.319   0.272  -0.160  0.00  0.00    -0.322 N 
ATOM     37  H   UNL     1      -7.093  -0.283  -0.343  0.00  0.00    +0.169 HD
ATOM     38  C   UNL     1      -6.437   1.610  -0.210  0.00  0.00    +0.251 A 
ATOM     39  O   UNL     1      -7.519   2.101  -0.485  0.00  0.00    -0.268 OA
ATOM     40  C   UNL     1      -3.639  -3.774   0.551  0.00  0.00    +0.044 C 
ATOM     41  C   UNL     1      -1.342  -2.121   1.093  0.00  0.00    +0.044 C 
ENDBRANCH  27  28
ENDBRANCH   1  27
TORSDOF 13
