REMARK  Name = ZINC39246224
REMARK  5 active torsions:
REMARK  status: ('A' for Active; 'I' for Inactive)
REMARK    1  A    between atoms: C_1  and  C_2
REMARK    2  A    between atoms: C_2  and  N_3
REMARK    3  A    between atoms: C_5  and  C_8
REMARK    4  A    between atoms: C_19  and  C_29
REMARK    5  A    between atoms: C_21  and  C_25
REMARK                            x       y       z     vdW  Elec       q    Type
REMARK                         _______ _______ _______ _____ _____    ______ ____
ROOT
ATOM      1  C   UNL     1      -4.174  -2.485  -1.233  0.00  0.00    +0.125 C 
ATOM      2  C   UNL     1      -5.092  -1.636  -2.117  0.00  0.00    +0.147 C 
ATOM      3  C   UNL     1      -6.182  -2.584  -2.592  0.00  0.00    +0.042 C 
ATOM      4  C   UNL     1      -6.393  -2.691  -3.918  0.00  0.00    +0.056 A 
ATOM      5  C   UNL     1      -5.606  -2.013  -4.878  0.00  0.00    +0.082 A 
ATOM      6  N   UNL     1      -4.564  -1.255  -4.472  0.00  0.00    -0.179 NA
ATOM      7  C   UNL     1      -4.242  -1.006  -3.199  0.00  0.00    +0.248 C 
ATOM      8  O   UNL     1      -3.291  -0.305  -2.907  0.00  0.00    -0.273 OA
ATOM      9  C   UNL     1      -6.015  -2.213  -6.283  0.00  0.00    +0.034 A 
ATOM     10  C   UNL     1      -5.436  -1.625  -7.434  0.00  0.00    -0.037 A 
ATOM     11  C   UNL     1      -5.955  -1.934  -8.671  0.00  0.00    +0.036 A 
ATOM     12  C   UNL     1      -7.026  -2.807  -8.782  0.00  0.00    +0.145 A 
ATOM     13  N   UNL     1      -7.560  -3.351  -7.705  0.00  0.00    -0.235 NA
ATOM     14  C   UNL     1      -7.097  -3.084  -6.501  0.00  0.00    +0.112 A 
ATOM     15  S   UNL     1      -7.566  -3.621  -4.876  0.00  0.00    -0.066 S 
ATOM     16  C   UNL     1      -4.271  -0.677  -7.307  0.00  0.00    +0.044 C 
ATOM     17  N   UNL     1      -6.863  -3.308  -1.655  0.00  0.00    -0.271 N 
ATOM     18  C   UNL     1      -6.240  -3.599  -0.493  0.00  0.00    +0.304 C 
ATOM     19  O   UNL     1      -6.837  -4.233   0.355  0.00  0.00    -0.252 OA
ATOM     20  N   UNL     1      -4.980  -3.208  -0.249  0.00  0.00    -0.291 N 
ATOM     21  H   UNL     1      -7.771  -3.605  -1.821  0.00  0.00    +0.156 HD
ATOM     22  H   UNL     1      -4.588  -3.413   0.614  0.00  0.00    +0.151 HD
ENDROOT
BRANCH   1  25
ATOM     23  N   UNL     1      -1.372  -0.511   0.012  0.00  0.00    -0.271 N 
ATOM     24  C   UNL     1      -1.907  -1.373  -0.878  0.00  0.00    +0.113 A 
ATOM     25  C   UNL     1      -3.194  -1.589  -0.520  0.00  0.00    +0.011 A 
ATOM     26  C   UNL     1      -3.455  -0.834   0.628  0.00  0.00    +0.139 A 
ATOM     27  N   UNL     1      -2.361  -0.192   0.952  0.00  0.00    -0.179 NA
BRANCH  23  29
ATOM     28  C   UNL     1      -0.019   1.526   0.010  0.00  0.00    +0.029 C 
ATOM     29  C   UNL     1       0.002  -0.004   0.002  0.00  0.00    +0.140 C 
ENDBRANCH  23  29
ENDBRANCH   1  25
BRANCH  12  30
ATOM     30  C   UNL     1      -7.584  -3.137 -10.143  0.00  0.00    +0.434 C 
ATOM     31  F   UNL     1      -6.920  -4.253 -10.662  0.00  0.00    -0.164 F 
ATOM     32  F   UNL     1      -8.950  -3.417 -10.031  0.00  0.00    -0.164 F 
ATOM     33  F   UNL     1      -7.401  -2.046 -10.999  0.00  0.00    -0.164 F 
ENDBRANCH  12  30
TORSDOF 3
