REMARK  Name = ZINC58990534
REMARK  9 active torsions:
REMARK  status: ('A' for Active; 'I' for Inactive)
REMARK    1  A    between atoms: C_3  and  C_8
REMARK    2  A    between atoms: N_9  and  N_10
REMARK    3  A    between atoms: C_11  and  C_13
REMARK    4  A    between atoms: C_13  and  C_14
REMARK    5  A    between atoms: C_14  and  C_15
REMARK    6  A    between atoms: C_15  and  S_16
REMARK    7  A    between atoms: S_16  and  C_17
REMARK    8  A    between atoms: C_20  and  C_23
REMARK    9  A    between atoms: N_21  and  N_22
REMARK                            x       y       z     vdW  Elec       q    Type
REMARK                         _______ _______ _______ _____ _____    ______ ____
ROOT
ATOM      1  C   UNL     1      10.952   2.147  -0.093  0.00  0.00    +0.078 C 
ENDROOT
BRANCH   1   2
ATOM      2  C   UNL     1       9.636   1.367  -0.084  0.00  0.00    +0.020 C 
BRANCH   2   3
ATOM      3  C   UNL     1       8.462   2.347  -0.067  0.00  0.00    +0.098 C 
BRANCH   3   5
ATOM      4  N   UNL     1       5.990   2.239  -0.044  0.00  0.00    -0.207 N 
ATOM      5  C   UNL     1       7.165   1.579  -0.059  0.00  0.00    +0.232 C 
ATOM      6  O   UNL     1       7.179   0.366  -0.065  0.00  0.00    -0.274 OA
ATOM      7  H   UNL     1       5.979   3.209  -0.039  0.00  0.00    +0.177 HD
BRANCH   4   9
ATOM      8  C   UNL     1       3.654   2.160  -0.022  0.00  0.00    +0.138 C 
ATOM      9  N   UNL     1       4.785   1.524  -0.036  0.00  0.00    -0.188 NA
BRANCH   8  12
ATOM     10  C   UNL     1      -0.017   1.379   0.010  0.00  0.00    +0.002 A 
ATOM     11  C   UNL     1       1.167   2.089   0.002  0.00  0.00    +0.009 A 
ATOM     12  C   UNL     1       2.386   1.408  -0.013  0.00  0.00    -0.004 A 
ATOM     13  C   UNL     1       2.398   0.011  -0.021  0.00  0.00    +0.029 A 
ATOM     14  C   UNL     1       1.207  -0.687  -0.013  0.00  0.00    +0.042 A 
ATOM     15  C   UNL     1       0.002  -0.004   0.002  0.00  0.00    +0.020 A 
ATOM     16 CL   UNL     1       1.220  -2.422  -0.023  0.00  0.00    -0.084 Cl
ENDBRANCH   8  12
ENDBRANCH   4   9
ENDBRANCH   3   5
ENDBRANCH   2   3
ENDBRANCH   1   2
BRANCH   1  17
ATOM     17  S   UNL     1      12.344   0.985  -0.112  0.00  0.00    -0.084 S 
BRANCH  17  18
ATOM     18  C   UNL     1      13.767   2.024  -0.121  0.00  0.00    +0.209 A 
ATOM     19  N   UNL     1      13.773   3.338  -0.108  0.00  0.00    -0.121 NA
ATOM     20  N   UNL     1      14.982   3.774  -0.120  0.00  0.00    -0.127 NA
ATOM     21  C   UNL     1      15.822   2.766  -0.140  0.00  0.00    +0.182 A 
ATOM     22  N   UNL     1      15.070   1.613  -0.135  0.00  0.00    -0.224 N 
BRANCH  21  23
ATOM     23  C   UNL     1      17.297   2.852  -0.158  0.00  0.00    +0.021 A 
ATOM     24  C   UNL     1      18.061   1.733  -0.497  0.00  0.00    +0.013 A 
ATOM     25  C   UNL     1      19.437   1.820  -0.513  0.00  0.00    +0.016 A 
ATOM     26  C   UNL     1      20.062   3.013  -0.192  0.00  0.00    +0.018 A 
ATOM     27  C   UNL     1      19.311   4.126   0.145  0.00  0.00    +0.016 A 
ATOM     28  C   UNL     1      17.933   4.053   0.158  0.00  0.00    +0.013 A 
ATOM     29 BR   UNL     1      21.950   3.123  -0.215  0.00  0.00    -0.050 Br
ENDBRANCH  21  23
BRANCH  22  30
ATOM     30  N   UNL     1      15.530   0.327  -0.146  0.00  0.00    -0.295 N 
ATOM     31  H   UNL     1      15.643  -0.009  -1.091  0.00  0.00    +0.163 HD
ATOM     32  H   UNL     1      16.392   0.248   0.372  0.00  0.00    +0.163 HD
ENDBRANCH  22  30
ENDBRANCH  17  18
ENDBRANCH   1  17
TORSDOF 9
