REMARK  Name = ZINC20176124
REMARK  13 active torsions:
REMARK  status: ('A' for Active; 'I' for Inactive)
REMARK    1  A    between atoms: C_1  and  C_2
REMARK    2  A    between atoms: C_2  and  O_3
REMARK    3  A    between atoms: O_3  and  C_4
REMARK    4  A    between atoms: C_7  and  O_30
REMARK    5  A    between atoms: C_8  and  C_10
REMARK    6  A    between atoms: C_10  and  C_11
REMARK    7  A    between atoms: C_11  and  N_12
REMARK    8  A    between atoms: C_13  and  C_14
REMARK    9  A    between atoms: C_13  and  C_29
REMARK   10  A    between atoms: C_14  and  N_15
REMARK   11  A    between atoms: N_20  and  C_21
REMARK   12  A    between atoms: O_30  and  C_31
REMARK   13  A    between atoms: C_31  and  C_32
REMARK                            x       y       z     vdW  Elec       q    Type
REMARK                         _______ _______ _______ _____ _____    ______ ____
ROOT
ATOM      1  N   UNL     1      -2.375   1.020   0.019  0.00  0.00    -0.390 N 
ATOM      2  C   UNL     1      -1.182   1.730   0.017  0.00  0.00    +0.003 C 
ATOM      3  C   UNL     1      -1.203   3.237   0.025  0.00  0.00    +0.059 C 
ATOM      4  H   UNL     1      -2.360  -0.080   0.013  0.00  0.00    +0.159 HD
ENDROOT
BRANCH   1   5
ATOM      5  C   UNL     1      -3.654   1.735   0.029  0.00  0.00    +0.117 C 
BRANCH   5   6
ATOM      6  C   UNL     1      -4.803   0.725   0.029  0.00  0.00    +0.060 C 
BRANCH   6  11
ATOM      7  C   UNL     1      -7.976   2.378   1.245  0.00  0.00    +0.121 A 
ATOM      8  C   UNL     1      -8.536   2.814   0.053  0.00  0.00    +0.049 A 
ATOM      9  C   UNL     1      -7.888   2.575  -1.143  0.00  0.00    +0.049 A 
ATOM     10  C   UNL     1      -6.675   1.902  -1.152  0.00  0.00    +0.124 A 
ATOM     11  C   UNL     1      -6.118   1.460   0.039  0.00  0.00    -0.001 A 
ATOM     12  C   UNL     1      -6.766   1.700   1.235  0.00  0.00    +0.053 A 
BRANCH   7  13
ATOM     13  O   UNL     1      -8.614   2.614   2.422  0.00  0.00    -0.492 OA
BRANCH  13  15
ATOM     14  C   UNL     1     -10.420   3.488   3.770  0.00  0.00    +0.048 C 
ATOM     15  C   UNL     1      -9.856   3.317   2.357  0.00  0.00    +0.225 C 
ENDBRANCH  13  15
ENDBRANCH   7  13
BRANCH  10  16
ATOM     16  O   UNL     1      -6.034   1.671  -2.329  0.00  0.00    -0.492 OA
BRANCH  16  17
ATOM     17  C   UNL     1      -6.665   2.153  -3.517  0.00  0.00    +0.225 C 
ATOM     18  C   UNL     1      -5.803   1.802  -4.731  0.00  0.00    +0.048 C 
ENDBRANCH  16  17
ENDBRANCH  10  16
ENDBRANCH   6  11
ENDBRANCH   5   6
ENDBRANCH   1   5
BRANCH   2  19
ATOM     19  C   UNL     1      -0.013   1.076   0.008  0.00  0.00    +0.151 C 
BRANCH  19  20
ATOM     20  N   UNL     1       1.155   1.771   0.001  0.00  0.00    -0.318 N 
ATOM     21  C   UNL     1       2.299   1.131  -0.014  0.00  0.00    +0.164 C 
ATOM     22  N   UNL     1       3.672   1.398  -0.032  0.00  0.00    -0.200 NA
ATOM     23  C   UNL     1       4.490   0.310  -0.039  0.00  0.00    +0.198 C 
ATOM     24  S   UNL     1       2.924  -0.533  -0.029  0.00  0.00    -0.015 S 
ATOM     25  N   UNL     1       5.827   0.017  -0.054  0.00  0.00    -0.221 NA
ATOM     26  H   UNL     1       1.140   2.871   0.006  0.00  0.00    +0.148 HD
BRANCH  25  27
ATOM     27  C   UNL     1       6.770   1.050  -0.057  0.00  0.00    +0.086 A 
ATOM     28  C   UNL     1       6.351   2.374  -0.045  0.00  0.00    +0.049 A 
ATOM     29  C   UNL     1       7.285   3.392  -0.048  0.00  0.00    +0.043 A 
ATOM     30  C   UNL     1       8.636   3.094  -0.062  0.00  0.00    +0.021 A 
ATOM     31  C   UNL     1       9.057   1.777  -0.075  0.00  0.00    +0.023 A 
ATOM     32  C   UNL     1       8.128   0.753  -0.067  0.00  0.00    +0.066 A 
ATOM     33 CL   UNL     1       8.656  -0.900  -0.075  0.00  0.00    -0.081 Cl
ATOM     34 CL   UNL     1       6.763   5.048  -0.032  0.00  0.00    -0.083 Cl
ENDBRANCH  25  27
ENDBRANCH  19  20
ENDBRANCH   2  19
TORSDOF 10
