REMARK  Name = ZINC64046760
REMARK  6 active torsions:
REMARK  status: ('A' for Active; 'I' for Inactive)
REMARK    1  A    between atoms: C_4  and  C_18
REMARK    2  A    between atoms: C_5  and  C_7
REMARK    3  A    between atoms: C_7  and  S_8
REMARK    4  A    between atoms: S_8  and  C_9
REMARK    5  A    between atoms: N_20  and  N_21
REMARK    6  A    between atoms: C_22  and  C_24
REMARK                            x       y       z     vdW  Elec       q    Type
REMARK                         _______ _______ _______ _____ _____    ______ ____
ROOT
ATOM      1  C   UNL     1       3.528  -0.874   0.498  0.00  0.00    +0.260 C 
ATOM      2  O   UNL     1       3.434  -2.081   0.599  0.00  0.00    -0.269 OA
ATOM      3  N   UNL     1       4.730  -0.278   0.622  0.00  0.00    -0.230 N 
ATOM      4  H   UNL     1       4.805   0.686   0.541  0.00  0.00    +0.173 HD
ENDROOT
BRANCH   1   8
ATOM      5  C   UNL     1       0.064   1.470  -0.247  0.00  0.00    +0.000 A 
ATOM      6  C   UNL     1       1.275   2.091   0.004  0.00  0.00    +0.001 A 
ATOM      7  C   UNL     1       2.403   1.336   0.247  0.00  0.00    +0.013 A 
ATOM      8  C   UNL     1       2.322  -0.058   0.239  0.00  0.00    +0.042 A 
ATOM      9  C   UNL     1       1.098  -0.678  -0.015  0.00  0.00    -0.025 A 
ATOM     10  C   UNL     1      -0.023   0.089  -0.257  0.00  0.00    +0.005 A 
BRANCH   9  11
ATOM     11  C   UNL     1       1.001  -2.182  -0.026  0.00  0.00    +0.114 C 
BRANCH  11  12
ATOM     12  S   UNL     1       0.807  -2.788   1.673  0.00  0.00    -0.062 S 
BRANCH  12  13
ATOM     13  C   UNL     1       0.709  -4.538   1.493  0.00  0.00    +0.258 A 
ATOM     14  N   UNL     1       0.776  -5.180   0.353  0.00  0.00    -0.203 NA
ATOM     15  C   UNL     1       0.666  -6.514   0.598  0.00  0.00    +0.110 A 
ATOM     16  C   UNL     1       0.670  -7.647  -0.218  0.00  0.00    +0.031 A 
ATOM     17  C   UNL     1       0.535  -8.896   0.347  0.00  0.00    +0.002 A 
ATOM     18  C   UNL     1       0.394  -9.034   1.719  0.00  0.00    +0.004 A 
ATOM     19  C   UNL     1       0.388  -7.922   2.537  0.00  0.00    +0.048 A 
ATOM     20  C   UNL     1       0.524  -6.658   1.986  0.00  0.00    +0.156 A 
ATOM     21  O   UNL     1       0.560  -5.410   2.506  0.00  0.00    -0.431 OA
ENDBRANCH  12  13
ENDBRANCH  11  12
ENDBRANCH   9  11
ENDBRANCH   1   8
BRANCH   3  22
ATOM     22  N   UNL     1       5.873  -1.051   0.868  0.00  0.00    -0.230 N 
ATOM     23  C   UNL     1       7.075  -0.456   0.991  0.00  0.00    +0.258 C 
ATOM     24  O   UNL     1       7.169   0.753   0.890  0.00  0.00    -0.269 OA
ATOM     25  H   UNL     1       5.798  -2.015   0.948  0.00  0.00    +0.173 HD
BRANCH  23  26
ATOM     26  C   UNL     1       8.271  -1.265   1.248  0.00  0.00    +0.044 C 
ATOM     27  C   UNL     1       9.563  -0.813   1.405  0.00  0.00    +0.008 A 
ATOM     28  C   UNL     1      10.143   0.480   1.376  0.00  0.00    +0.010 A 
ATOM     29  C   UNL     1      11.471   0.636   1.565  0.00  0.00    +0.001 A 
ATOM     30  C   UNL     1      12.331  -0.450   1.796  0.00  0.00    +0.002 A 
ATOM     31  C   UNL     1      11.881  -1.722   1.843  0.00  0.00    +0.026 A 
ATOM     32  C   UNL     1      10.446  -1.981   1.647  0.00  0.00    +0.043 A 
ATOM     33  N   UNL     1       9.754  -3.085   1.642  0.00  0.00    -0.380 N 
ATOM     34  C   UNL     1       8.342  -2.768   1.403  0.00  0.00    +0.154 C 
ATOM     35  H   UNL     1      10.114  -3.975   1.778  0.00  0.00    +0.160 HD
ENDBRANCH  23  26
ENDBRANCH   3  22
TORSDOF 6
