REMARK  Name = ZINC09080341
REMARK  13 active torsions:
REMARK  status: ('A' for Active; 'I' for Inactive)
REMARK    1  A    between atoms: C_1  and  C_2
REMARK    2  A    between atoms: C_5  and  S_8
REMARK    3  A    between atoms: S_8  and  C_11
REMARK    4  A    between atoms: C_11  and  C_13
REMARK    5  A    between atoms: C_11  and  C_29
REMARK    6  A    between atoms: C_13  and  N_14
REMARK    7  A    between atoms: C_15  and  C_17
REMARK    8  A    between atoms: N_19  and  C_20
REMARK    9  A    between atoms: C_20  and  C_22
REMARK   10  A    between atoms: C_20  and  C_23
REMARK   11  A    between atoms: C_32  and  N_35
REMARK   12  A    between atoms: N_35  and  C_36
REMARK   13  A    between atoms: N_35  and  C_37
REMARK                            x       y       z     vdW  Elec       q    Type
REMARK                         _______ _______ _______ _____ _____    ______ ____
ROOT
ATOM      1  C   UNL     1       6.035   1.907  -0.043  0.00  0.00    +0.183 C 
ENDROOT
BRANCH   1   2
ATOM      2  C   UNL     1       7.350   1.172  -0.060  0.00  0.00    -0.021 A 
ATOM      3  C   UNL     1       7.654   0.325  -1.110  0.00  0.00    +0.007 A 
ATOM      4  C   UNL     1       8.861  -0.345  -1.132  0.00  0.00    +0.023 A 
ATOM      5  C   UNL     1       9.766  -0.177  -0.091  0.00  0.00    +0.029 A 
ATOM      6  C   UNL     1       9.456   0.671   0.965  0.00  0.00    +0.023 A 
ATOM      7  C   UNL     1       8.249   1.342   0.977  0.00  0.00    +0.007 A 
BRANCH   5   8
ATOM      8  N   UNL     1      10.985  -0.858  -0.107  0.00  0.00    -0.336 N 
ATOM      9  C   UNL     1      11.990  -0.586   0.923  0.00  0.00    +0.129 C 
ATOM     10  C   UNL     1      11.259  -1.845  -1.155  0.00  0.00    +0.129 C 
ENDBRANCH   5   8
ENDBRANCH   1   2
BRANCH   1  11
ATOM     11  S   UNL     1       5.918   2.972  -1.506  0.00  0.00    +0.005 S 
ATOM     12  O   UNL     1       6.062   2.197  -2.688  0.00  0.00    -0.169 OA
ATOM     13  O   UNL     1       4.836   3.882  -1.364  0.00  0.00    -0.169 OA
BRANCH  11  18
ATOM     14  C   UNL     1      10.866   6.420  -1.314  0.00  0.00    +0.044 C 
ATOM     15  C   UNL     1       9.630   5.559  -1.363  0.00  0.00    -0.050 A 
ATOM     16  C   UNL     1       9.657   4.347  -2.026  0.00  0.00    +0.005 A 
ATOM     17  C   UNL     1       8.524   3.557  -2.070  0.00  0.00    +0.027 A 
ATOM     18  C   UNL     1       7.363   3.979  -1.450  0.00  0.00    +0.089 A 
ATOM     19  C   UNL     1       7.334   5.194  -0.791  0.00  0.00    +0.027 A 
ATOM     20  C   UNL     1       8.468   5.982  -0.744  0.00  0.00    +0.005 A 
ENDBRANCH  11  18
ENDBRANCH   1  11
BRANCH   1  21
ATOM     21  C   UNL     1       4.886   0.896  -0.054  0.00  0.00    +0.136 C 
BRANCH  21  22
ATOM     22  N   UNL     1       3.607   1.611  -0.037  0.00  0.00    -0.305 N 
ATOM     23  C   UNL     1       2.450   0.920  -0.044  0.00  0.00    +0.299 C 
ATOM     24  O   UNL     1       2.467  -0.293  -0.063  0.00  0.00    -0.265 OA
ATOM     25  H   UNL     1       3.593   2.580  -0.022  0.00  0.00    +0.149 HD
BRANCH  23  26
ATOM     26  C   UNL     1       1.145   1.649  -0.026  0.00  0.00    +0.299 C 
ATOM     27  O   UNL     1       1.128   2.862  -0.007  0.00  0.00    -0.265 OA
ATOM     28  N   UNL     1      -0.013   0.959  -0.033  0.00  0.00    -0.301 N 
ATOM     29  H   UNL     1       0.001  -0.011  -0.048  0.00  0.00    +0.150 HD
BRANCH  28  30
ATOM     30  C   UNL     1      -1.292   1.673  -0.022  0.00  0.00    +0.101 C 
ATOM     31  C   UNL     1      -1.677   2.008   1.420  0.00  0.00    +0.033 C 
BRANCH  30  32
ATOM     32  C   UNL     1      -2.358   0.803  -0.637  0.00  0.00    -0.027 A 
ATOM     33  C   UNL     1      -2.382  -0.553  -0.371  0.00  0.00    +0.005 A 
ATOM     34  C   UNL     1      -3.363  -1.349  -0.932  0.00  0.00    +0.000 A 
ATOM     35  C   UNL     1      -4.313  -0.792  -1.766  0.00  0.00    +0.000 A 
ATOM     36  C   UNL     1      -4.285   0.564  -2.037  0.00  0.00    +0.000 A 
ATOM     37  C   UNL     1      -3.308   1.361  -1.473  0.00  0.00    +0.005 A 
ENDBRANCH  30  32
ENDBRANCH  28  30
ENDBRANCH  23  26
ENDBRANCH  21  22
ENDBRANCH   1  21
TORSDOF 9
