REMARK  Name = ZINC38605566
REMARK  10 active torsions:
REMARK  status: ('A' for Active; 'I' for Inactive)
REMARK    1  A    between atoms: C_1  and  C_2
REMARK    2  A    between atoms: C_2  and  O_3
REMARK    3  A    between atoms: O_3  and  C_4
REMARK    4  A    between atoms: C_4  and  C_6
REMARK    5  A    between atoms: C_8  and  N_17
REMARK    6  A    between atoms: C_18  and  C_20
REMARK    7  A    between atoms: C_20  and  C_22
REMARK    8  A    between atoms: C_20  and  N_23
REMARK    9  A    between atoms: N_26  and  C_29
REMARK   10  A    between atoms: C_29  and  C_30
REMARK                            x       y       z     vdW  Elec       q    Type
REMARK                         _______ _______ _______ _____ _____    ______ ____
ROOT
ATOM      1  N   UNL     1       0.050  -1.239  -4.173  0.00  0.00    -0.288 N 
ATOM      2  C   UNL     1      -0.838  -1.305  -5.185  0.00  0.00    +0.203 C 
ATOM      3  O   UNL     1      -1.321  -2.371  -5.499  0.00  0.00    -0.277 OA
ATOM      4  H   UNL     1       0.370  -0.377  -3.864  0.00  0.00    +0.155 HD
ENDROOT
BRANCH   1   6
ATOM      5  C   UNL     1       0.248  -3.804  -4.041  0.00  0.00    +0.234 C 
ATOM      6  C   UNL     1       0.499  -2.384  -3.585  0.00  0.00    +0.053 C 
ATOM      7  C   UNL     1       1.279  -2.488  -2.446  0.00  0.00    +0.020 A 
ATOM      8  C   UNL     1       1.832  -1.517  -1.575  0.00  0.00    +0.050 A 
ATOM      9  C   UNL     1       2.574  -1.914  -0.511  0.00  0.00    +0.124 A 
ATOM     10  C   UNL     1       2.811  -3.268  -0.247  0.00  0.00    +0.040 A 
ATOM     11  C   UNL     1       2.313  -4.249  -1.038  0.00  0.00    +0.029 A 
ATOM     12  C   UNL     1       1.527  -3.913  -2.170  0.00  0.00    +0.045 A 
ATOM     13  N   UNL     1       0.939  -4.668  -3.079  0.00  0.00    -0.367 N 
ATOM     14  F   UNL     1       3.097  -0.980   0.313  0.00  0.00    -0.205 F 
ATOM     15  H   UNL     1       0.960  -5.637  -3.106  0.00  0.00    +0.161 HD
BRANCH   5  16
ATOM     16  C   UNL     1       0.811  -4.012  -5.423  0.00  0.00    +0.336 C 
ATOM     17  O   UNL     1       1.942  -4.414  -5.561  0.00  0.00    -0.248 OA
BRANCH  16  18
ATOM     18  O   UNL     1       0.056  -3.751  -6.502  0.00  0.00    -0.463 OA
BRANCH  18  20
ATOM     19  C   UNL     1      -0.350  -3.621  -8.881  0.00  0.00    +0.048 C 
ATOM     20  C   UNL     1       0.654  -3.971  -7.781  0.00  0.00    +0.229 C 
ENDBRANCH  18  20
ENDBRANCH  16  18
ENDBRANCH   5  16
ENDBRANCH   1   6
BRANCH   2  21
ATOM     21  C   UNL     1      -1.230  -0.052  -5.925  0.00  0.00    +0.016 C 
ATOM     22  C   UNL     1      -1.975   0.889  -4.976  0.00  0.00    -0.004 C 
BRANCH  21  23
ATOM     23  N   UNL     1      -2.105  -0.403  -7.052  0.00  0.00    +0.389 N 
ATOM     24  C   UNL     1      -2.368   0.795  -7.859  0.00  0.00    -0.062 C 
ATOM     25  C   UNL     1      -3.263   0.426  -9.044  0.00  0.00    +0.066 C 
ATOM     26  N   UNL     1      -4.526  -0.135  -8.544  0.00  0.00    -0.302 NA
ATOM     27  C   UNL     1      -4.277  -1.322  -7.713  0.00  0.00    +0.066 C 
ATOM     28  C   UNL     1      -3.373  -0.938  -6.539  0.00  0.00    -0.062 C 
ATOM     29  H   UNL     1      -1.652  -1.101  -7.624  0.00  0.00    -0.081 HD
BRANCH  26  30
ATOM     30  C   UNL     1      -5.437  -0.450  -9.652  0.00  0.00    +0.119 C 
BRANCH  30  31
ATOM     31  C   UNL     1      -6.799  -0.788  -9.102  0.00  0.00    -0.030 A 
ATOM     32  C   UNL     1      -7.106  -2.096  -8.775  0.00  0.00    +0.009 A 
ATOM     33  C   UNL     1      -8.353  -2.411  -8.270  0.00  0.00    +0.050 A 
ATOM     34  C   UNL     1      -9.300  -1.415  -8.090  0.00  0.00    +0.166 A 
ATOM     35  C   UNL     1      -8.991  -0.098  -8.419  0.00  0.00    +0.167 A 
ATOM     36  C   UNL     1      -7.737   0.211  -8.919  0.00  0.00    +0.054 A 
ATOM     37  O   UNL     1     -10.077   0.684  -8.153  0.00  0.00    -0.453 OA
ATOM     38  C   UNL     1     -11.188  -0.225  -8.043  0.00  0.00    +0.466 C 
ATOM     39  O   UNL     1     -10.580  -1.458  -7.618  0.00  0.00    -0.453 OA
ENDBRANCH  30  31
ENDBRANCH  26  30
ENDBRANCH  21  23
ENDBRANCH   2  21
TORSDOF 8
