REMARK  Name = ZINC09914150
REMARK  12 active torsions:
REMARK  status: ('A' for Active; 'I' for Inactive)
REMARK    1  A    between atoms: C_1  and  C_2
REMARK    2  A    between atoms: C_9  and  N_18
REMARK    3  A    between atoms: C_10  and  C_11
REMARK    4  A    between atoms: C_14  and  O_16
REMARK    5  A    between atoms: O_16  and  C_17
REMARK    6  A    between atoms: C_19  and  C_21
REMARK    7  A    between atoms: C_21  and  C_22
REMARK    8  A    between atoms: C_22  and  C_23
REMARK    9  A    between atoms: C_23  and  S_24
REMARK   10  A    between atoms: S_24  and  C_27
REMARK   11  A    between atoms: C_30  and  O_33
REMARK   12  A    between atoms: O_33  and  C_34
REMARK                            x       y       z     vdW  Elec       q    Type
REMARK                         _______ _______ _______ _____ _____    ______ ____
ROOT
ATOM      1  C   UNL     1       1.096  16.105   4.961  0.00  0.00    +0.008 C 
ATOM      2  C   UNL     1       1.407  14.647   5.303  0.00  0.00    -0.009 C 
ATOM      3  C   UNL     1       0.588  14.219   6.524  0.00  0.00    +0.008 C 
ATOM      4  C   UNL     1       1.069  12.855   7.022  0.00  0.00    +0.037 C 
ATOM      5  C   UNL     1       1.074  11.880   5.851  0.00  0.00    -0.023 A 
ATOM      6  C   UNL     1       1.056  12.324   4.576  0.00  0.00    -0.004 A 
ATOM      7  S   UNL     1       1.076  10.856   3.586  0.00  0.00    -0.077 S 
ATOM      8  C   UNL     1       1.099   9.668   4.846  0.00  0.00    +0.084 A 
ATOM      9  C   UNL     1       1.097  10.435   6.004  0.00  0.00    +0.069 A 
ATOM     10  C   UNL     1       1.031  13.749   4.116  0.00  0.00    +0.046 C 
ENDROOT
BRANCH   9  11
ATOM     11  C   UNL     1       1.119   9.811   7.329  0.00  0.00    +0.255 C 
ATOM     12  O   UNL     1       2.181   9.568   7.870  0.00  0.00    -0.270 OA
ATOM     13  N   UNL     1      -0.038   9.506   7.949  0.00  0.00    -0.217 N 
ATOM     14  C   UNL     1      -0.019   8.931   9.168  0.00  0.00    +0.407 C 
ATOM     15  O   UNL     1       1.042   8.689   9.708  0.00  0.00    -0.226 OA
ATOM     16  H   UNL     1      -0.885   9.699   7.518  0.00  0.00    +0.161 HD
BRANCH  14  17
ATOM     17  O   UNL     1      -1.175   8.627   9.787  0.00  0.00    -0.453 OA
ATOM     18  C   UNL     1      -1.077   8.010  11.098  0.00  0.00    +0.282 C 
ENDBRANCH  14  17
ENDBRANCH   9  11
BRANCH   8  19
ATOM     19  N   UNL     1       1.119   8.287   4.728  0.00  0.00    -0.279 N 
ATOM     20  C   UNL     1       1.116   7.715   3.507  0.00  0.00    +0.218 C 
ATOM     21  O   UNL     1       1.096   8.409   2.513  0.00  0.00    -0.275 OA
ATOM     22  H   UNL     1       1.135   7.732   5.523  0.00  0.00    +0.155 HD
BRANCH  20  23
ATOM     23  C   UNL     1       1.138   6.214   3.379  0.00  0.00    +0.098 C 
BRANCH  23  24
ATOM     24  C   UNL     1       1.130   5.829   1.898  0.00  0.00    +0.032 C 
BRANCH  24  25
ATOM     25  C   UNL     1       1.153   4.304   1.767  0.00  0.00    +0.172 C 
BRANCH  25  26
ATOM     26  S   UNL     1       1.143   3.848   0.012  0.00  0.00    -0.003 S 
ATOM     27  O   UNL     1       2.366   4.233  -0.601  0.00  0.00    -0.169 OA
ATOM     28  O   UNL     1      -0.103   4.194  -0.577  0.00  0.00    -0.169 OA
BRANCH  26  29
ATOM     29  C   UNL     1       1.171   2.086   0.002  0.00  0.00    +0.088 A 
ATOM     30  C   UNL     1      -0.017   1.377   0.010  0.00  0.00    +0.030 A 
ATOM     31  C   UNL     1       0.002  -0.004   0.002  0.00  0.00    +0.047 A 
ATOM     32  C   UNL     1       1.213  -0.680  -0.013  0.00  0.00    +0.120 A 
ATOM     33  C   UNL     1       2.403   0.033  -0.021  0.00  0.00    +0.047 A 
ATOM     34  C   UNL     1       2.379   1.415  -0.013  0.00  0.00    +0.030 A 
BRANCH  32  35
ATOM     35  O   UNL     1       1.234  -2.039  -0.020  0.00  0.00    -0.495 OA
ATOM     36  C   UNL     1       2.518  -2.668  -0.036  0.00  0.00    +0.277 C 
ENDBRANCH  32  35
ENDBRANCH  26  29
ENDBRANCH  25  26
ENDBRANCH  24  25
ENDBRANCH  23  24
ENDBRANCH  20  23
ENDBRANCH   8  19
TORSDOF 9
