REMARK  Name = ZINC13457915
REMARK  7 active torsions:
REMARK  status: ('A' for Active; 'I' for Inactive)
REMARK    1  A    between atoms: C_1  and  O_2
REMARK    2  A    between atoms: O_2  and  C_3
REMARK    3  A    between atoms: C_4  and  C_10
REMARK    4  A    between atoms: C_8  and  O_9
REMARK    5  A    between atoms: C_23  and  C_24
REMARK    6  A    between atoms: C_26  and  C_27
REMARK    7  A    between atoms: C_26  and  N_56
REMARK                            x       y       z     vdW  Elec       q    Type
REMARK                         _______ _______ _______ _____ _____    ______ ____
ROOT
ATOM      1  C   UNL     1      -3.595  -2.095   0.263  0.00  0.00    +0.015 C 
ATOM      2  C   UNL     1      -2.437  -2.777   0.216  0.00  0.00    -0.038 C 
ATOM      3  C   UNL     1      -2.410  -4.292   0.227  0.00  0.00    -0.040 C 
ATOM      4  C   UNL     1      -0.015  -4.313   0.607  0.00  0.00    -0.039 C 
ATOM      5  C   UNL     1       0.042  -2.833   0.349  0.00  0.00    -0.024 A 
ATOM      6  C   UNL     1      -1.132  -2.081   0.151  0.00  0.00    +0.068 A 
ATOM      7  N   UNL     1      -1.102  -0.782  -0.085  0.00  0.00    -0.247 NA
ATOM      8  C   UNL     1       0.038  -0.094  -0.151  0.00  0.00    +0.072 A 
ATOM      9  C   UNL     1       0.037   1.291  -0.405  0.00  0.00    +0.028 A 
ATOM     10  C   UNL     1       1.217   1.967  -0.466  0.00  0.00    +0.002 A 
ATOM     11  C   UNL     1       2.432   1.310  -0.281  0.00  0.00    +0.001 A 
ATOM     12  C   UNL     1       2.471  -0.030  -0.033  0.00  0.00    +0.011 A 
ATOM     13  C   UNL     1       1.278  -0.756   0.036  0.00  0.00    +0.015 A 
ATOM     14  C   UNL     1       1.273  -2.196   0.299  0.00  0.00    +0.076 A 
ATOM     15  N   UNL     1      -1.329  -4.697   1.157  0.00  0.00    +0.388 N 
ATOM     16  H   UNL     1      -1.466  -4.218   2.055  0.00  0.00    -0.080 HD
ENDROOT
BRANCH   1  18
ATOM     17  C   UNL     1      -5.991  -2.370   0.887  0.00  0.00    +0.168 A 
ATOM     18  C   UNL     1      -4.877  -2.813   0.162  0.00  0.00    +0.021 A 
ATOM     19  C   UNL     1      -4.987  -3.943  -0.653  0.00  0.00    +0.012 A 
ATOM     20  C   UNL     1      -6.188  -4.612  -0.745  0.00  0.00    +0.004 A 
ATOM     21  C   UNL     1      -7.291  -4.171  -0.033  0.00  0.00    +0.049 A 
ATOM     22  C   UNL     1      -7.197  -3.052   0.779  0.00  0.00    +0.159 A 
BRANCH  17  24
ATOM     23  C   UNL     1      -6.188  -0.010   1.093  0.00  0.00    +0.277 C 
ATOM     24  O   UNL     1      -5.894  -1.276   1.688  0.00  0.00    -0.491 OA
ENDBRANCH  17  24
BRANCH  22  25
ATOM     25  O   UNL     1      -8.285  -2.624   1.475  0.00  0.00    -0.503 OA
ATOM     26  H   UNL     1      -8.365  -3.014   2.357  0.00  0.00    +0.292 HD
ENDBRANCH  22  25
ENDBRANCH   1  18
BRANCH  14  27
ATOM     27  C   UNL     1       2.531  -2.942   0.505  0.00  0.00    +0.387 C 
ATOM     28  O   UNL     1       3.105  -3.438  -0.444  0.00  0.00    -0.241 OA
ATOM     29  O   UNL     1       3.042  -3.073   1.745  0.00  0.00    -0.241 OA
ENDBRANCH  14  27
BRANCH  15  30
ATOM     30  C   UNL     1      -1.376  -6.157   1.379  0.00  0.00    -0.042 C 
BRANCH  30  31
ATOM     31  C   UNL     1      -1.083  -6.898   0.100  0.00  0.00    -0.064 A 
ATOM     32  C   UNL     1      -2.116  -7.247  -0.749  0.00  0.00    +0.002 A 
ATOM     33  C   UNL     1      -1.847  -7.923  -1.924  0.00  0.00    +0.000 A 
ATOM     34  C   UNL     1      -0.545  -8.257  -2.247  0.00  0.00    +0.000 A 
ATOM     35  C   UNL     1       0.488  -7.912  -1.395  0.00  0.00    +0.000 A 
ATOM     36  C   UNL     1       0.219  -7.233  -0.222  0.00  0.00    +0.002 A 
ENDBRANCH  30  31
ENDBRANCH  15  30
TORSDOF 6
