REMARK  Name = ZINC06781195
REMARK  4 active torsions:
REMARK  status: ('A' for Active; 'I' for Inactive)
REMARK    1  A    between atoms: N_9  and  C_22
REMARK    2  A    between atoms: C_12  and  C_15
REMARK    3  A    between atoms: C_18  and  O_21
REMARK    4  A    between atoms: C_22  and  C_23
REMARK                            x       y       z     vdW  Elec       q    Type
REMARK                         _______ _______ _______ _____ _____    ______ ____
ROOT
ATOM      1  C   UNL     1      -5.095   5.144   1.837  0.00  0.00    +0.001 A 
ATOM      2  C   UNL     1      -3.754   4.976   1.528  0.00  0.00    +0.002 A 
ATOM      3  C   UNL     1      -3.289   3.766   1.052  0.00  0.00    +0.027 A 
ATOM      4  C   UNL     1      -4.168   2.707   0.881  0.00  0.00    +0.064 A 
ATOM      5  C   UNL     1      -5.527   2.877   1.193  0.00  0.00    +0.064 A 
ATOM      6  C   UNL     1      -5.984   4.103   1.672  0.00  0.00    +0.015 A 
ATOM      7  C   UNL     1      -6.443   1.737   1.004  0.00  0.00    +0.263 A 
ATOM      8  O   UNL     1      -7.626   1.846   1.263  0.00  0.00    -0.267 OA
ATOM      9  N   UNL     1      -5.947   0.573   0.537  0.00  0.00    -0.272 N 
ATOM     10  C   UNL     1      -4.604   0.440   0.239  0.00  0.00    +0.240 A 
ATOM     11  N   UNL     1      -3.732   1.478   0.405  0.00  0.00    -0.260 N 
ATOM     12  C   UNL     1      -2.502   1.005   0.019  0.00  0.00    +0.170 A 
ATOM     13  N   UNL     1      -2.673  -0.244  -0.353  0.00  0.00    -0.127 NA
ATOM     14  N   UNL     1      -3.906  -0.578  -0.219  0.00  0.00    -0.110 NA
ENDROOT
BRANCH  12  15
ATOM     15  C   UNL     1      -1.230   1.758   0.017  0.00  0.00    +0.020 A 
ATOM     16  C   UNL     1      -0.490   1.879  -1.160  0.00  0.00    +0.015 A 
ATOM     17  C   UNL     1       0.693   2.587  -1.159  0.00  0.00    +0.046 A 
ATOM     18  C   UNL     1       1.150   3.176   0.012  0.00  0.00    +0.117 A 
ATOM     19  C   UNL     1       0.419   3.054   1.187  0.00  0.00    +0.046 A 
ATOM     20  C   UNL     1      -0.764   2.348   1.194  0.00  0.00    +0.015 A 
BRANCH  18  21
ATOM     21  O   UNL     1       2.316   3.873   0.009  0.00  0.00    -0.507 OA
ATOM     22  H   UNL     1       2.211   4.814  -0.190  0.00  0.00    +0.292 HD
ENDBRANCH  18  21
ENDBRANCH  12  15
BRANCH   9  23
ATOM     23  C   UNL     1      -6.845  -0.568   0.344  0.00  0.00    +0.163 C 
BRANCH  23  24
ATOM     24  C   UNL     1      -7.406  -0.534  -1.055  0.00  0.00    -0.027 A 
ATOM     25  C   UNL     1      -8.588   0.137  -1.308  0.00  0.00    +0.008 A 
ATOM     26  C   UNL     1      -9.101   0.173  -2.591  0.00  0.00    +0.038 A 
ATOM     27  C   UNL     1      -8.437  -0.472  -3.620  0.00  0.00    +0.123 A 
ATOM     28  C   UNL     1      -7.256  -1.148  -3.364  0.00  0.00    +0.038 A 
ATOM     29  C   UNL     1      -6.742  -1.178  -2.082  0.00  0.00    +0.008 A 
ATOM     30  F   UNL     1      -8.940  -0.441  -4.873  0.00  0.00    -0.205 F 
ENDBRANCH  23  24
ENDBRANCH   9  23
TORSDOF 4
