REMARK  Name = ZINC20082752
REMARK  10 active torsions:
REMARK  status: ('A' for Active; 'I' for Inactive)
REMARK    1  A    between atoms: C_1  and  C_2
REMARK    2  A    between atoms: C_7  and  C_14
REMARK    3  A    between atoms: C_14  and  C_16
REMARK    4  A    between atoms: C_14  and  N_28
REMARK    5  A    between atoms: N_20  and  C_21
REMARK    6  A    between atoms: C_21  and  C_22
REMARK    7  A    between atoms: N_28  and  C_29
REMARK    8  A    between atoms: N_28  and  C_36
REMARK    9  A    between atoms: C_29  and  C_30
REMARK   10  A    between atoms: C_36  and  C_37
REMARK                            x       y       z     vdW  Elec       q    Type
REMARK                         _______ _______ _______ _____ _____    ______ ____
ROOT
ATOM      1  C   UNL     1       3.469   3.332  -2.344  0.00  0.00    +0.163 C 
ENDROOT
BRANCH   1   8
ATOM      2  C   UNL     1       1.864  -4.467  -1.869  0.00  0.00    +0.044 C 
ATOM      3  C   UNL     1       2.389  -3.055  -1.916  0.00  0.00    -0.048 A 
ATOM      4  C   UNL     1       3.742  -2.818  -1.716  0.00  0.00    +0.004 A 
ATOM      5  C   UNL     1       4.238  -1.546  -1.755  0.00  0.00    +0.010 A 
ATOM      6  C   UNL     1       3.375  -0.472  -1.998  0.00  0.00    -0.001 A 
ATOM      7  C   UNL     1       3.873   0.903  -2.052  0.00  0.00    +0.021 A 
ATOM      8  C   UNL     1       2.989   1.904  -2.287  0.00  0.00    +0.042 A 
ATOM      9  C   UNL     1       1.622   1.613  -2.484  0.00  0.00    +0.254 A 
ATOM     10  O   UNL     1       0.845   2.527  -2.698  0.00  0.00    -0.268 OA
ATOM     11  N   UNL     1       1.156   0.353  -2.441  0.00  0.00    -0.322 N 
ATOM     12  H   UNL     1       0.085   0.157  -2.598  0.00  0.00    +0.169 HD
ATOM     13  C   UNL     1       2.002  -0.709  -2.201  0.00  0.00    +0.049 A 
ATOM     14  C   UNL     1       1.520  -2.013  -2.157  0.00  0.00    +0.029 A 
ENDBRANCH   1   8
BRANCH   1  15
ATOM     15  C   UNL     1       3.287   3.867  -3.741  0.00  0.00    +0.173 A 
ATOM     16  N   UNL     1       2.157   4.223  -4.301  0.00  0.00    -0.111 NA
ATOM     17  N   UNL     1       2.416   4.628  -5.497  0.00  0.00    -0.023 NA
ATOM     18  N   UNL     1       3.681   4.532  -5.716  0.00  0.00    -0.044 NA
ATOM     19  N   UNL     1       4.252   4.067  -4.657  0.00  0.00    -0.225 N 
BRANCH  19  20
ATOM     20  C   UNL     1       5.683   3.805  -4.485  0.00  0.00    +0.179 C 
BRANCH  20  21
ATOM     21  C   UNL     1       5.994   2.370  -4.915  0.00  0.00    +0.140 C 
ATOM     22  C   UNL     1       7.476   2.047  -4.629  0.00  0.00    +0.035 C 
ATOM     23  C   UNL     1       7.876   1.206  -5.872  0.00  0.00    +0.031 C 
ATOM     24  C   UNL     1       7.019   1.881  -6.972  0.00  0.00    +0.160 C 
ATOM     25  O   UNL     1       5.785   2.229  -6.325  0.00  0.00    -0.375 OA
ENDBRANCH  20  21
ENDBRANCH  19  20
ENDBRANCH   1  15
BRANCH   1  26
ATOM     26  N   UNL     1       2.691   4.148  -1.402  0.00  0.00    -0.280 NA
BRANCH  26  27
ATOM     27  C   UNL     1       3.084   5.561  -1.481  0.00  0.00    +0.121 C 
BRANCH  27  28
ATOM     28  C   UNL     1       2.000   6.418  -0.879  0.00  0.00    -0.033 A 
ATOM     29  C   UNL     1       0.939   6.838  -1.658  0.00  0.00    +0.005 A 
ATOM     30  C   UNL     1      -0.058   7.620  -1.105  0.00  0.00    +0.000 A 
ATOM     31  C   UNL     1       0.012   7.990   0.225  0.00  0.00    +0.000 A 
ATOM     32  C   UNL     1       1.077   7.574   1.003  0.00  0.00    +0.000 A 
ATOM     33  C   UNL     1       2.070   6.788   0.451  0.00  0.00    +0.005 A 
ENDBRANCH  27  28
ENDBRANCH  26  27
BRANCH  26  34
ATOM     34  C   UNL     1       2.827   3.640  -0.030  0.00  0.00    +0.128 C 
BRANCH  34  35
ATOM     35  C   UNL     1       4.268   3.732   0.400  0.00  0.00    +0.004 A 
ATOM     36  C   UNL     1       4.933   4.783   0.938  0.00  0.00    +0.012 A 
ATOM     37  C   UNL     1       6.270   4.638   1.258  0.00  0.00    +0.008 A 
ATOM     38  C   UNL     1       6.876   3.448   1.025  0.00  0.00    +0.045 A 
ATOM     39  S   UNL     1       5.543   2.484   0.332  0.00  0.00    -0.100 S 
ENDBRANCH  34  35
ENDBRANCH  26  34
ENDBRANCH   1  26
TORSDOF 9
