REMARK  Name = ZINC02408530
REMARK  12 active torsions:
REMARK  status: ('A' for Active; 'I' for Inactive)
REMARK    1  A    between atoms: C_1  and  C_2
REMARK    2  A    between atoms: C_2  and  N_3
REMARK    3  A    between atoms: N_3  and  C_4
REMARK    4  A    between atoms: N_3  and  C_6
REMARK    5  A    between atoms: C_4  and  C_5
REMARK    6  A    between atoms: C_6  and  C_7
REMARK    7  A    between atoms: C_7  and  C_8
REMARK    8  A    between atoms: C_8  and  N_9
REMARK    9  A    between atoms: C_20  and  C_25
REMARK   10  A    between atoms: C_22  and  C_24
REMARK   11  A    between atoms: C_28  and  C_30
REMARK   12  A    between atoms: C_28  and  C_31
REMARK                            x       y       z     vdW  Elec       q    Type
REMARK                         _______ _______ _______ _____ _____    ______ ____
ROOT
ATOM      1  N   UNL     1       2.211  -4.060  -4.032  0.00  0.00    -0.328 N 
ATOM      2  C   UNL     1       2.374  -5.362  -4.471  0.00  0.00    +0.133 A 
ATOM      3  C   UNL     1       3.226  -5.648  -5.574  0.00  0.00    +0.051 A 
ATOM      4  C   UNL     1       4.017  -4.725  -6.386  0.00  0.00    -0.020 A 
ATOM      5  C   UNL     1       4.749  -5.260  -7.387  0.00  0.00    +0.021 A 
ATOM      6  S   UNL     1       4.435  -7.000  -7.310  0.00  0.00    -0.071 S 
ATOM      7  C   UNL     1       3.317  -7.009  -5.933  0.00  0.00    +0.116 A 
ATOM      8  N   UNL     1       2.650  -7.941  -5.280  0.00  0.00    -0.203 NA
ATOM      9  C   UNL     1       1.871  -7.614  -4.261  0.00  0.00    +0.254 A 
ATOM     10  N   UNL     1       1.744  -6.354  -3.866  0.00  0.00    -0.195 NA
ATOM     11  N   UNL     1       1.173  -8.616  -3.585  0.00  0.00    -0.202 N 
ATOM     12  C   UNL     1       1.210  -9.946  -3.864  0.00  0.00    +0.045 A 
ATOM     13  C   UNL     1       0.398 -10.572  -2.982  0.00  0.00    +0.048 A 
ATOM     14  C   UNL     1      -0.152  -9.600  -2.137  0.00  0.00    +0.061 A 
ATOM     15  N   UNL     1       0.315  -8.432  -2.493  0.00  0.00    -0.169 NA
ATOM     16  C   UNL     1      -1.115  -9.858  -1.007  0.00  0.00    +0.067 C 
ATOM     17  C   UNL     1       2.010 -10.603  -4.959  0.00  0.00    +0.066 C 
ATOM     18  C   UNL     1       5.627  -4.510  -8.341  0.00  0.00    +0.203 C 
ATOM     19  O   UNL     1       5.316  -3.113  -8.221  0.00  0.00    -0.368 OA
ATOM     20  C   UNL     1       5.278  -2.651  -6.868  0.00  0.00    +0.068 C 
ATOM     21  C   UNL     1       4.049  -3.217  -6.152  0.00  0.00    +0.071 C 
ATOM     22  C   UNL     1       5.214  -1.122  -6.856  0.00  0.00    +0.041 C 
ATOM     23  C   UNL     1       6.544  -3.108  -6.141  0.00  0.00    +0.041 C 
ATOM     24  H   UNL     1       2.613  -3.328  -4.526  0.00  0.00    +0.147 HD
ENDROOT
BRANCH   1  25
ATOM     25  C   UNL     1       1.431  -3.787  -2.822  0.00  0.00    +0.101 C 
BRANCH  25  26
ATOM     26  C   UNL     1       1.407  -2.280  -2.561  0.00  0.00    +0.000 C 
BRANCH  26  27
ATOM     27  C   UNL     1       0.593  -1.994  -1.297  0.00  0.00    -0.077 C 
BRANCH  27  28
ATOM     28  N   UNL     1       0.677  -0.564  -0.973  0.00  0.00    +0.379 N 
ATOM     29  H   UNL     1       1.646  -0.292  -0.899  0.00  0.00    -0.082 HD
BRANCH  28  31
ATOM     30  C   UNL     1       0.225   1.710  -1.761  0.00  0.00    -0.017 C 
ATOM     31  C   UNL     1       0.029   0.218  -2.035  0.00  0.00    -0.082 C 
ENDBRANCH  28  31
BRANCH  28  32
ATOM     32  C   UNL     1      -0.002  -0.311   0.305  0.00  0.00    -0.082 C 
ATOM     33  C   UNL     1       0.767  -0.999   1.435  0.00  0.00    -0.017 C 
ENDBRANCH  28  32
ENDBRANCH  27  28
ENDBRANCH  26  27
ENDBRANCH  25  26
ENDBRANCH   1  25
TORSDOF 6
