REMARK  Name = ZINC43222412
REMARK  9 active torsions:
REMARK  status: ('A' for Active; 'I' for Inactive)
REMARK    1  A    between atoms: C_1  and  C_2
REMARK    2  A    between atoms: C_5  and  C_8
REMARK    3  A    between atoms: C_8  and  C_9
REMARK    4  A    between atoms: C_9  and  N_10
REMARK    5  A    between atoms: C_11  and  C_13
REMARK    6  A    between atoms: C_18  and  C_20
REMARK    7  A    between atoms: N_22  and  C_23
REMARK    8  A    between atoms: C_23  and  C_25
REMARK    9  A    between atoms: C_23  and  C_26
REMARK                            x       y       z     vdW  Elec       q    Type
REMARK                         _______ _______ _______ _____ _____    ______ ____
ROOT
ATOM      1  C   UNL     1       2.885  -8.174   0.003  0.00  0.00    +0.068 C 
ATOM      2  C   UNL     1       2.207  -8.642  -1.302  0.00  0.00    -0.069 C 
ATOM      3  N   UNL     1       3.332  -8.902  -2.237  0.00  0.00    +0.380 N 
ATOM      4  C   UNL     1       4.373  -9.536  -1.387  0.00  0.00    -0.069 C 
ATOM      5  C   UNL     1       4.311  -8.762  -0.051  0.00  0.00    +0.068 C 
ATOM      6  H   UNL     1       3.043  -9.533  -2.970  0.00  0.00    -0.086 HD
ATOM      7  H   UNL     1       3.673  -8.037  -2.628  0.00  0.00    -0.086 HD
ENDROOT
BRANCH   1   9
ATOM      8  N   UNL     1       1.800  -5.952   0.074  0.00  0.00    -0.315 N 
ATOM      9  C   UNL     1       2.942  -6.668   0.052  0.00  0.00    +0.215 C 
ATOM     10  O   UNL     1       4.014  -6.102   0.072  0.00  0.00    -0.276 OA
ATOM     11  H   UNL     1       0.943  -6.405   0.058  0.00  0.00    +0.149 HD
BRANCH   8  12
ATOM     12  C   UNL     1       1.855  -4.489   0.122  0.00  0.00    +0.109 C 
BRANCH  12  13
ATOM     13  C   UNL     1       0.433  -3.925   0.138  0.00  0.00    +0.054 C 
BRANCH  13  18
ATOM     14  C   UNL     1       0.645   1.846   0.328  0.00  0.00    +0.044 C 
ATOM     15  C   UNL     1       0.590   0.341   0.278  0.00  0.00    -0.050 A 
ATOM     16  C   UNL     1       0.567  -0.310  -0.941  0.00  0.00    +0.003 A 
ATOM     17  C   UNL     1       0.517  -1.691  -0.986  0.00  0.00    +0.004 A 
ATOM     18  C   UNL     1       0.489  -2.420   0.188  0.00  0.00    -0.046 A 
ATOM     19  C   UNL     1       0.513  -1.769   1.407  0.00  0.00    +0.004 A 
ATOM     20  C   UNL     1       0.568  -0.389   1.452  0.00  0.00    +0.003 A 
ENDBRANCH  13  18
ENDBRANCH  12  13
ENDBRANCH   8  12
ENDBRANCH   1   9
BRANCH   5  21
ATOM     21  C   UNL     1       4.535  -9.697   1.109  0.00  0.00    +0.215 C 
ATOM     22  O   UNL     1       3.648  -9.888   1.914  0.00  0.00    -0.276 OA
ATOM     23  N   UNL     1       5.720 -10.322   1.252  0.00  0.00    -0.309 N 
ATOM     24  H   UNL     1       6.430 -10.169   0.609  0.00  0.00    +0.149 HD
BRANCH  23  25
ATOM     25  C   UNL     1       5.938 -11.231   2.380  0.00  0.00    +0.101 C 
ATOM     26  C   UNL     1       6.433 -10.435   3.589  0.00  0.00    +0.033 C 
BRANCH  25  27
ATOM     27  C   UNL     1       6.969 -12.263   2.002  0.00  0.00    -0.020 A 
ATOM     28  C   UNL     1       7.913 -11.974   1.064  0.00  0.00    +0.006 A 
ATOM     29  C   UNL     1       8.875 -12.915   0.702  0.00  0.00    +0.001 A 
ATOM     30  C   UNL     1       8.898 -14.150   1.273  0.00  0.00    +0.008 A 
ATOM     31  C   UNL     1       7.939 -14.485   2.244  0.00  0.00    -0.018 A 
ATOM     32  C   UNL     1       6.965 -13.525   2.618  0.00  0.00    -0.013 A 
ATOM     33  C   UNL     1       6.009 -13.858   3.594  0.00  0.00    +0.009 A 
ATOM     34  C   UNL     1       6.036 -15.090   4.170  0.00  0.00    +0.001 A 
ATOM     35  C   UNL     1       6.998 -16.032   3.807  0.00  0.00    +0.001 A 
ATOM     36  C   UNL     1       7.930 -15.750   2.856  0.00  0.00    +0.008 A 
ENDBRANCH  25  27
ENDBRANCH  23  25
ENDBRANCH   5  21
TORSDOF 7
