REMARK  Name = ZINC29993810
REMARK  4 active torsions:
REMARK  status: ('A' for Active; 'I' for Inactive)
REMARK    1  A    between atoms: C_1  and  C_2
REMARK    2  A    between atoms: C_9  and  N_14
REMARK    3  A    between atoms: C_15  and  C_17
REMARK    4  A    between atoms: C_17  and  C_18
REMARK                            x       y       z     vdW  Elec       q    Type
REMARK                         _______ _______ _______ _____ _____    ______ ____
ROOT
ATOM      1  N   UNL     1       0.119  -5.854   2.336  0.00  0.00    -0.285 N 
ATOM      2  C   UNL     1       1.167  -6.555   2.812  0.00  0.00    +0.218 C 
ATOM      3  O   UNL     1       2.208  -5.989   3.070  0.00  0.00    -0.275 OA
ATOM      4  H   UNL     1      -0.737  -6.290   2.203  0.00  0.00    +0.155 HD
ENDROOT
BRANCH   1  12
ATOM      5  C   UNL     1       2.082   1.446   0.679  0.00  0.00    +0.062 C 
ATOM      6  C   UNL     1       1.997   0.080   1.363  0.00  0.00    +0.256 C 
ATOM      7  C   UNL     1       3.046  -0.837   0.785  0.00  0.00    +0.258 C 
ATOM      8  O   UNL     1       4.077  -0.378   0.341  0.00  0.00    -0.271 OA
ATOM      9  N   UNL     1       2.833  -2.170   0.766  0.00  0.00    -0.279 N 
ATOM     10  C   UNL     1       1.618  -2.672   1.255  0.00  0.00    +0.077 A 
ATOM     11  C   UNL     1       1.478  -4.017   1.552  0.00  0.00    +0.050 A 
ATOM     12  C   UNL     1       0.266  -4.493   2.034  0.00  0.00    +0.035 A 
ATOM     13  C   UNL     1      -0.801  -3.623   2.217  0.00  0.00    +0.027 A 
ATOM     14  C   UNL     1      -0.661  -2.280   1.920  0.00  0.00    +0.049 A 
ATOM     15  C   UNL     1       0.546  -1.800   1.440  0.00  0.00    +0.143 A 
ATOM     16  O   UNL     1       0.699  -0.480   1.147  0.00  0.00    -0.478 OA
ATOM     17  H   UNL     1       3.510  -2.772   0.419  0.00  0.00    +0.155 HD
ENDBRANCH   1  12
BRANCH   2  18
ATOM     18  C   UNL     1       1.044  -8.042   3.025  0.00  0.00    +0.103 C 
BRANCH  18  19
ATOM     19  C   UNL     1       2.365  -8.590   3.568  0.00  0.00    -0.019 C 
ATOM     20  C   UNL     1       2.691  -7.910   4.899  0.00  0.00    +0.011 C 
ATOM     21  C   UNL     1       4.012  -8.458   5.443  0.00  0.00    -0.009 C 
ATOM     22  C   UNL     1       3.887  -9.967   5.659  0.00  0.00    +0.007 C 
ATOM     23  C   UNL     1       3.561 -10.648   4.328  0.00  0.00    -0.009 C 
ATOM     24  C   UNL     1       2.240 -10.100   3.784  0.00  0.00    +0.011 C 
ATOM     25  C   UNL     1       4.681 -10.367   3.324  0.00  0.00    +0.021 C 
ATOM     26  C   UNL     1       4.806  -8.857   3.108  0.00  0.00    +0.027 C 
ATOM     27  C   UNL     1       5.132  -8.177   4.439  0.00  0.00    +0.021 C 
ATOM     28  C   UNL     1       3.485  -8.309   2.564  0.00  0.00    +0.025 C 
ATOM     29 BR   UNL     1       6.245  -8.497   1.817  0.00  0.00    -0.084 Br
ENDBRANCH  18  19
ENDBRANCH   2  18
TORSDOF 3
