REMARK  Name = ZINC08858936
REMARK  13 active torsions:
REMARK  status: ('A' for Active; 'I' for Inactive)
REMARK    1  A    between atoms: C_1  and  C_2
REMARK    2  A    between atoms: C_2  and  C_3
REMARK    3  A    between atoms: C_2  and  C_4
REMARK    4  A    between atoms: C_2  and  C_5
REMARK    5  A    between atoms: C_8  and  N_9
REMARK    6  A    between atoms: C_8  and  N_16
REMARK    7  A    between atoms: N_9  and  C_10
REMARK    8  A    between atoms: N_16  and  N_17
REMARK    9  A    between atoms: C_18  and  C_19
REMARK   10  A    between atoms: C_29  and  C_32
REMARK   11  A    between atoms: C_32  and  C_33
REMARK   12  A    between atoms: C_32  and  C_34
REMARK   13  A    between atoms: C_32  and  C_35
REMARK                            x       y       z     vdW  Elec       q    Type
REMARK                         _______ _______ _______ _____ _____    ______ ____
ROOT
ATOM      1  C   UNL     1       0.819  -0.102  -1.053  0.00  0.00    +0.006 C 
ATOM      2  C   UNL     1       1.194   0.682  -2.099  0.00  0.00    +0.019 C 
ATOM      3  C   UNL     1       1.770   0.100  -3.242  0.00  0.00    +0.013 C 
ATOM      4  C   UNL     1       2.161   0.915  -4.333  0.00  0.00    +0.115 C 
ATOM      5  C   UNL     1       1.957  -1.292  -3.303  0.00  0.00    +0.019 C 
ATOM      6  C   UNL     1       1.582  -2.075  -2.255  0.00  0.00    +0.006 C 
ATOM      7  C   UNL     1       1.012  -1.492  -1.111  0.00  0.00    +0.186 C 
ATOM      8  O   UNL     1       0.678  -2.197  -0.166  0.00  0.00    -0.287 OA
ENDROOT
BRANCH   1  10
ATOM      9  C   UNL     1       0.016   2.023  -0.058  0.00  0.00    +0.015 C 
ATOM     10  C   UNL     1       0.203   0.522   0.173  0.00  0.00    -0.009 C 
ATOM     11  C   UNL     1       1.123   0.302   1.375  0.00  0.00    +0.015 C 
ATOM     12  C   UNL     1      -1.157  -0.125   0.446  0.00  0.00    +0.015 C 
ENDBRANCH   1  10
BRANCH   6  13
ATOM     13  C   UNL     1       1.782  -3.567  -2.320  0.00  0.00    -0.009 C 
ATOM     14  C   UNL     1       2.420  -3.938  -3.659  0.00  0.00    +0.015 C 
ATOM     15  C   UNL     1       2.700  -4.008  -1.178  0.00  0.00    +0.015 C 
ATOM     16  C   UNL     1       0.429  -4.270  -2.187  0.00  0.00    +0.015 C 
ENDBRANCH   6  13
BRANCH   4  17
ATOM     17  N   UNL     1       2.616   0.344  -5.480  0.00  0.00    -0.301 N 
ATOM     18  H   UNL     1       2.057  -0.282  -5.965  0.00  0.00    +0.153 HD
BRANCH  17  19
ATOM     19  C   UNL     1       3.890   0.660  -5.960  0.00  0.00    +0.032 A 
ATOM     20  C   UNL     1       4.754   1.427  -5.189  0.00  0.00    +0.023 A 
ATOM     21  C   UNL     1       6.013   1.737  -5.666  0.00  0.00    +0.002 A 
ATOM     22  C   UNL     1       6.413   1.285  -6.910  0.00  0.00    +0.000 A 
ATOM     23  C   UNL     1       5.556   0.521  -7.680  0.00  0.00    +0.002 A 
ATOM     24  C   UNL     1       4.298   0.203  -7.207  0.00  0.00    +0.023 A 
ENDBRANCH  17  19
ENDBRANCH   4  17
BRANCH   4  25
ATOM     25  N   UNL     1       2.081   2.261  -4.233  0.00  0.00    -0.224 N 
ATOM     26  H   UNL     1       1.832   2.671  -3.390  0.00  0.00    +0.176 HD
BRANCH  25  27
ATOM     27  N   UNL     1       2.359   3.064  -5.347  0.00  0.00    -0.189 NA
ATOM     28  C   UNL     1       2.377   4.357  -5.228  0.00  0.00    +0.138 C 
BRANCH  28  29
ATOM     29  C   UNL     1       2.559   5.205  -6.419  0.00  0.00    -0.002 A 
ATOM     30  C   UNL     1       2.602   4.626  -7.691  0.00  0.00    +0.013 A 
ATOM     31  C   UNL     1       2.773   5.421  -8.804  0.00  0.00    +0.050 A 
ATOM     32  C   UNL     1       2.902   6.796  -8.667  0.00  0.00    +0.166 A 
ATOM     33  C   UNL     1       2.861   7.380  -7.401  0.00  0.00    +0.167 A 
ATOM     34  C   UNL     1       2.684   6.590  -6.282  0.00  0.00    +0.059 A 
ATOM     35  O   UNL     1       3.010   8.730  -7.539  0.00  0.00    -0.453 OA
ATOM     36  C   UNL     1       3.552   8.924  -8.858  0.00  0.00    +0.466 C 
ATOM     37  O   UNL     1       3.078   7.782  -9.595  0.00  0.00    -0.453 OA
ENDBRANCH  28  29
ENDBRANCH  25  27
ENDBRANCH   4  25
TORSDOF 7
