REMARK  Name = ZINC05674188
REMARK  9 active torsions:
REMARK  status: ('A' for Active; 'I' for Inactive)
REMARK    1  A    between atoms: C_1  and  C_2
REMARK    2  A    between atoms: C_2  and  C_3
REMARK    3  A    between atoms: C_6  and  C_11
REMARK    4  A    between atoms: C_8  and  C_9
REMARK    5  A    between atoms: C_8  and  C_10
REMARK    6  A    between atoms: C_11  and  C_12
REMARK    7  A    between atoms: N_14  and  C_15
REMARK    8  A    between atoms: C_15  and  N_17
REMARK    9  A    between atoms: N_17  and  C_18
REMARK                            x       y       z     vdW  Elec       q    Type
REMARK                         _______ _______ _______ _____ _____    ______ ____
ROOT
ATOM      1  C   UNL     1       1.138   1.667  -0.061  0.00  0.00    +0.137 C 
ATOM      2  S   UNL     1       1.092   3.368  -0.251  0.00  0.00    -0.018 S 
ENDROOT
BRANCH   1   5
ATOM      3  C   UNL     1       3.471   1.732  -0.048  0.00  0.00    +0.219 C 
ATOM      4  O   UNL     1       3.439   2.937  -0.182  0.00  0.00    -0.275 OA
ATOM      5  N   UNL     1       2.322   1.030   0.021  0.00  0.00    -0.268 N 
ATOM      6  H   UNL     1       2.348   0.067   0.128  0.00  0.00    +0.156 HD
BRANCH   3   7
ATOM      7  C   UNL     1       4.796   1.019   0.043  0.00  0.00    +0.100 C 
BRANCH   7  10
ATOM      8  C   UNL     1       7.326   1.483   1.435  0.00  0.00    -0.005 C 
ATOM      9  C   UNL     1       6.336   2.651   1.291  0.00  0.00    +0.008 C 
ATOM     10  C   UNL     1       5.932   2.039  -0.060  0.00  0.00    +0.004 C 
ATOM     11  C   UNL     1       7.330   1.401  -0.101  0.00  0.00    -0.029 C 
ATOM     12  C   UNL     1       7.336  -0.031  -0.638  0.00  0.00    +0.011 C 
ATOM     13  C   UNL     1       8.389   2.287  -0.760  0.00  0.00    +0.011 C 
BRANCH   8  15
ATOM     14  C   UNL     1       8.599   1.821   3.558  0.00  0.00    +0.004 C 
ATOM     15  C   UNL     1       8.675   1.891   2.031  0.00  0.00    +0.001 C 
ENDBRANCH   8  15
ENDBRANCH   7  10
ENDBRANCH   3   7
ENDBRANCH   1   5
BRANCH   1  16
ATOM     16  N   UNL     1      -0.011   0.966   0.007  0.00  0.00    -0.321 N 
ATOM     17  H   UNL     1       0.014  -0.003   0.038  0.00  0.00    +0.148 HD
BRANCH  16  18
ATOM     18  C   UNL     1      -1.297   1.667   0.028  0.00  0.00    +0.034 C 
ATOM     19  C   UNL     1      -2.430   0.649   0.179  0.00  0.00    +0.029 C 
ATOM     20  C   UNL     1      -3.773   1.381   0.201  0.00  0.00    -0.008 C 
ATOM     21  C   UNL     1      -3.954   2.156  -1.107  0.00  0.00    +0.007 C 
ATOM     22  C   UNL     1      -2.821   3.173  -1.257  0.00  0.00    -0.008 C 
ATOM     23  C   UNL     1      -1.478   2.441  -1.279  0.00  0.00    +0.029 C 
ATOM     24  C   UNL     1      -2.852   4.148  -0.078  0.00  0.00    +0.007 C 
ATOM     25  C   UNL     1      -2.671   3.373   1.229  0.00  0.00    -0.008 C 
ATOM     26  C   UNL     1      -3.804   2.356   1.379  0.00  0.00    +0.007 C 
ATOM     27  C   UNL     1      -1.328   2.642   1.207  0.00  0.00    +0.029 C 
ENDBRANCH  16  18
ENDBRANCH   1  16
TORSDOF 6
