REMARK  Name = ZINC20691002
REMARK  7 active torsions:
REMARK  status: ('A' for Active; 'I' for Inactive)
REMARK    1  A    between atoms: C_1  and  C_2
REMARK    2  A    between atoms: C_2  and  N_3
REMARK    3  A    between atoms: C_4  and  C_6
REMARK    4  A    between atoms: C_19  and  C_22
REMARK    5  A    between atoms: C_25  and  O_29
REMARK    6  A    between atoms: C_26  and  O_28
REMARK    7  A    between atoms: O_29  and  C_30
REMARK                            x       y       z     vdW  Elec       q    Type
REMARK                         _______ _______ _______ _____ _____    ______ ____
ROOT
ATOM      1  C   UNL     1      -3.629   4.586   0.194  0.00  0.00    +0.037 A 
ATOM      2  C   UNL     1      -3.623   5.230  -1.047  0.00  0.00    +0.015 A 
ATOM      3  C   UNL     1      -2.517   5.130  -1.858  0.00  0.00    +0.024 A 
ATOM      4  C   UNL     1      -1.410   4.391  -1.446  0.00  0.00    +0.031 A 
ATOM      5  C   UNL     1      -1.405   3.749  -0.214  0.00  0.00    -0.019 A 
ATOM      6  C   UNL     1      -2.517   3.849   0.602  0.00  0.00    +0.019 A 
ATOM      7  C   UNL     1      -0.233   2.953   0.269  0.00  0.00    +0.049 C 
ATOM      8  C   UNL     1      -0.501   1.470   0.173  0.00  0.00    -0.023 C 
ATOM      9  C   UNL     1       0.595   0.832  -0.159  0.00  0.00    -0.030 C 
ATOM     10  C   UNL     1       1.744   1.805  -0.333  0.00  0.00    +0.033 C 
ATOM     11  C   UNL     1       1.030   3.164  -0.589  0.00  0.00    +0.029 C 
ATOM     12  C   UNL     1       0.650   3.208  -2.072  0.00  0.00    +0.105 C 
ATOM     13  N   UNL     1      -0.302   4.302  -2.287  0.00  0.00    -0.336 N 
ATOM     14  H   UNL     1      -0.134   5.028  -3.096  0.00  0.00    +0.147 HD
ENDROOT
BRANCH  12  15
ATOM     15  C   UNL     1       0.016   1.901  -2.470  0.00  0.00    -0.023 A 
ATOM     16  C   UNL     1      -1.353   1.737  -2.360  0.00  0.00    +0.009 A 
ATOM     17  C   UNL     1      -1.940   0.539  -2.724  0.00  0.00    +0.050 A 
ATOM     18  C   UNL     1      -1.157  -0.500  -3.199  0.00  0.00    +0.161 A 
ATOM     19  C   UNL     1       0.221  -0.335  -3.310  0.00  0.00    +0.159 A 
ATOM     20  C   UNL     1       0.802   0.869  -2.948  0.00  0.00    +0.054 A 
BRANCH  19  21
ATOM     21  O   UNL     1       0.993  -1.353  -3.776  0.00  0.00    -0.503 OA
ATOM     22  H   UNL     1       2.082  -1.221  -3.863  0.00  0.00    +0.292 HD
ENDBRANCH  19  21
BRANCH  18  23
ATOM     23  O   UNL     1      -1.733  -1.679  -3.556  0.00  0.00    -0.491 OA
ATOM     24  C   UNL     1      -3.151  -1.777  -3.416  0.00  0.00    +0.277 C 
ENDBRANCH  18  23
ENDBRANCH  12  15
BRANCH   1  26
ATOM     25  N   UNL     1      -5.885   5.398   0.677  0.00  0.00    -0.312 N 
ATOM     26  C   UNL     1      -4.811   4.686   1.072  0.00  0.00    +0.244 C 
ATOM     27  O   UNL     1      -4.816   4.125   2.151  0.00  0.00    -0.270 OA
ATOM     28  H   UNL     1      -5.880   5.905  -0.299  0.00  0.00    +0.149 HD
BRANCH  25  30
ATOM     29  C   UNL     1      -8.127   6.356   0.870  0.00  0.00    +0.024 C 
ATOM     30  C   UNL     1      -7.058   5.497   1.549  0.00  0.00    +0.101 C 
ENDBRANCH  25  30
ENDBRANCH   1  26
TORSDOF 5
