REMARK  Name = ZINC39583578
REMARK  6 active torsions:
REMARK  status: ('A' for Active; 'I' for Inactive)
REMARK    1  A    between atoms: C_9  and  C_11
REMARK    2  A    between atoms: C_11  and  S_12
REMARK    3  A    between atoms: S_12  and  C_13
REMARK    4  A    between atoms: C_17  and  C_26
REMARK    5  A    between atoms: N_19  and  C_20
REMARK    6  A    between atoms: C_20  and  C_21
REMARK                            x       y       z     vdW  Elec       q    Type
REMARK                         _______ _______ _______ _____ _____    ______ ____
ROOT
ATOM      1  C   UNL     1       5.050  -5.339  -1.613  0.00  0.00    +0.201 C 
ATOM      2  N   UNL     1       4.334  -6.347  -0.789  0.00  0.00    -0.229 NA
ATOM      3  N   UNL     1       5.394  -7.210  -0.262  0.00  0.00    -0.233 NA
ATOM      4  C   UNL     1       6.640  -6.417  -0.278  0.00  0.00    +0.178 C 
ATOM      5  N   UNL     1       6.289  -5.086  -0.830  0.00  0.00    -0.250 NA
ATOM      6  H   UNL     1       3.683  -6.875  -1.349  0.00  0.00    +0.143 HD
ATOM      7  H   UNL     1       5.176  -7.522   0.673  0.00  0.00    +0.143 HD
ENDROOT
BRANCH   4   8
ATOM      8  C   UNL     1       7.178  -6.274   1.123  0.00  0.00    +0.022 A 
ATOM      9  C   UNL     1       7.091  -7.138   2.164  0.00  0.00    +0.014 A 
ATOM     10  C   UNL     1       7.668  -6.792   3.372  0.00  0.00    +0.008 A 
ATOM     11  C   UNL     1       8.303  -5.600   3.479  0.00  0.00    +0.045 A 
ATOM     12  S   UNL     1       8.104  -4.925   1.839  0.00  0.00    -0.099 S 
ENDBRANCH   4   8
BRANCH   1  13
ATOM     13  S   UNL     1       4.069  -3.821  -1.768  0.00  0.00    -0.117 S 
BRANCH  13  14
ATOM     14  C   UNL     1       3.757  -3.322  -0.052  0.00  0.00    +0.146 C 
BRANCH  14  23
ATOM     15  C   UNL     1      -0.017   1.374   0.010  0.00  0.00    +0.002 A 
ATOM     16  C   UNL     1       1.170   2.094   0.002  0.00  0.00    +0.002 A 
ATOM     17  C   UNL     1       2.375   1.450  -0.013  0.00  0.00    +0.030 A 
ATOM     18  C   UNL     1       2.418   0.054  -0.021  0.00  0.00    +0.089 A 
ATOM     19  C   UNL     1       1.217  -0.675  -0.013  0.00  0.00    +0.066 A 
ATOM     20  C   UNL     1       0.002  -0.004   0.002  0.00  0.00    +0.028 A 
ATOM     21  N   UNL     1       1.580  -2.007  -0.024  0.00  0.00    -0.341 N 
ATOM     22  H   UNL     1       0.977  -2.767  -0.022  0.00  0.00    +0.167 HD
ATOM     23  C   UNL     1       2.939  -2.056  -0.038  0.00  0.00    +0.118 A 
ATOM     24  N   UNL     1       3.430  -0.852  -0.036  0.00  0.00    -0.232 NA
ENDBRANCH  14  23
ENDBRANCH  13  14
ENDBRANCH   1  13
BRANCH   5  25
ATOM     25  C   UNL     1       7.361  -4.570  -1.692  0.00  0.00    +0.163 C 
BRANCH  25  26
ATOM     26  C   UNL     1       7.021  -3.169  -2.131  0.00  0.00    +0.119 A 
ATOM     27  C   UNL     1       7.362  -2.038  -1.487  0.00  0.00    +0.046 A 
ATOM     28  C   UNL     1       6.843  -0.963  -2.244  0.00  0.00    +0.041 A 
ATOM     29  C   UNL     1       6.216  -1.501  -3.306  0.00  0.00    +0.195 A 
ATOM     30  O   UNL     1       6.333  -2.837  -3.235  0.00  0.00    -0.467 OA
ENDBRANCH  25  26
ENDBRANCH   5  25
TORSDOF 6
