REMARK  Name = ZINC11759224
REMARK  9 active torsions:
REMARK  status: ('A' for Active; 'I' for Inactive)
REMARK    1  A    between atoms: C_1  and  C_2
REMARK    2  A    between atoms: C_7  and  C_8
REMARK    3  A    between atoms: C_8  and  C_9
REMARK    4  A    between atoms: C_9  and  N_68
REMARK    5  A    between atoms: C_12  and  C_15
REMARK    6  A    between atoms: C_15  and  N_16
REMARK    7  A    between atoms: N_16  and  C_17
REMARK    8  A    between atoms: C_22  and  C_24
REMARK    9  A    between atoms: C_24  and  C_25
REMARK                            x       y       z     vdW  Elec       q    Type
REMARK                         _______ _______ _______ _____ _____    ______ ____
ROOT
ATOM      1  N   UNL     1       7.394  -3.526  -0.818  0.00  0.00    -0.298 N 
ATOM      2  C   UNL     1       7.090  -4.807  -1.107  0.00  0.00    +0.218 C 
ATOM      3  O   UNL     1       6.705  -5.102  -2.219  0.00  0.00    -0.276 OA
ENDROOT
BRANCH   1   4
ATOM      4  C   UNL     1       7.797  -3.159   0.542  0.00  0.00    +0.076 C 
ATOM      5  C   UNL     1       9.131  -3.846   0.901  0.00  0.00    +0.022 C 
ATOM      6  C   UNL     1       8.976  -4.213   2.399  0.00  0.00    +0.002 C 
ATOM      7  C   UNL     1       7.491  -4.639   2.496  0.00  0.00    +0.002 C 
ATOM      8  C   UNL     1       6.755  -3.663   1.556  0.00  0.00    +0.022 C 
ENDBRANCH   1   4
BRANCH   1   9
ATOM      9  C   UNL     1       7.320  -2.502  -1.862  0.00  0.00    +0.111 C 
BRANCH   9  12
ATOM     10  C   UNL     1       4.276  -0.493  -0.626  0.00  0.00    -0.078 C 
ATOM     11  C   UNL     1       5.659  -1.147  -0.573  0.00  0.00    -0.014 C 
ATOM     12  C   UNL     1       5.915  -1.896  -1.884  0.00  0.00    +0.003 C 
ATOM     13  C   UNL     1       5.799  -0.915  -3.054  0.00  0.00    -0.014 C 
ATOM     14  C   UNL     1       4.412  -0.268  -3.035  0.00  0.00    -0.078 C 
ATOM     15  N   UNL     1       4.238   0.457  -1.758  0.00  0.00    +0.380 N 
ATOM     16  H   UNL     1       5.003   1.133  -1.652  0.00  0.00    -0.082 HD
BRANCH  15  17
ATOM     17  C   UNL     1       2.952   1.185  -1.763  0.00  0.00    -0.074 C 
BRANCH  17  18
ATOM     18  C   UNL     1       2.661   1.696  -0.350  0.00  0.00    +0.017 C 
BRANCH  18  25
ATOM     19  C   UNL     1       0.152   0.294  -0.061  0.00  0.00    +0.044 C 
ATOM     20  C   UNL     1       0.164   1.793  -0.213  0.00  0.00    -0.047 A 
ATOM     21  C   UNL     1      -1.026   2.497  -0.220  0.00  0.00    +0.003 A 
ATOM     22  C   UNL     1      -1.015   3.873  -0.355  0.00  0.00    +0.000 A 
ATOM     23  C   UNL     1       0.186   4.544  -0.494  0.00  0.00    +0.000 A 
ATOM     24  C   UNL     1       1.375   3.840  -0.492  0.00  0.00    +0.004 A 
ATOM     25  C   UNL     1       1.364   2.464  -0.352  0.00  0.00    -0.046 A 
ENDBRANCH  18  25
ENDBRANCH  17  18
ENDBRANCH  15  17
ENDBRANCH   9  12
ENDBRANCH   1   9
BRANCH   2  26
ATOM     26  C   UNL     1       7.230  -5.872  -0.051  0.00  0.00    +0.127 C 
BRANCH  26  27
ATOM     27  C   UNL     1       6.973  -7.246  -0.674  0.00  0.00    +0.169 C 
ATOM     28  C   UNL     1       7.176  -8.343   0.352  0.00  0.00    +0.241 C 
ATOM     29  O   UNL     1       8.199  -8.610   0.947  0.00  0.00    -0.273 OA
ATOM     30  N   UNL     1       5.984  -8.961   0.466  0.00  0.00    -0.239 N 
ATOM     31  C   UNL     1       5.065  -8.412  -0.337  0.00  0.00    +0.307 C 
ATOM     32  O   UNL     1       3.915  -8.797  -0.410  0.00  0.00    -0.252 OA
ATOM     33  N   UNL     1       5.558  -7.384  -1.058  0.00  0.00    -0.287 N 
ATOM     34  H   UNL     1       5.813  -9.710   1.057  0.00  0.00    +0.159 HD
ATOM     35  H   UNL     1       5.076  -6.841  -1.702  0.00  0.00    +0.151 HD
ENDBRANCH  26  27
ENDBRANCH   2  26
TORSDOF 8
