REMARK  Name = ZINC35092921
REMARK  16 active torsions:
REMARK  status: ('A' for Active; 'I' for Inactive)
REMARK    1  A    between atoms: C_1  and  C_2
REMARK    2  A    between atoms: C_2  and  C_3
REMARK    3  A    between atoms: C_3  and  C_4
REMARK    4  A    between atoms: C_4  and  N_5
REMARK    5  A    between atoms: N_5  and  C_6
REMARK    6  A    between atoms: C_6  and  C_8
REMARK    7  A    between atoms: C_6  and  C_9
REMARK    8  A    between atoms: N_19  and  C_20
REMARK    9  A    between atoms: C_25  and  O_26
REMARK   10  A    between atoms: O_26  and  C_27
REMARK   11  A    between atoms: C_27  and  C_28
REMARK   12  A    between atoms: C_29  and  C_31
REMARK   13  A    between atoms: C_34  and  C_37
REMARK   14  A    between atoms: C_37  and  C_38
REMARK   15  A    between atoms: C_37  and  C_39
REMARK   16  A    between atoms: C_37  and  C_40
REMARK                            x       y       z     vdW  Elec       q    Type
REMARK                         _______ _______ _______ _____ _____    ______ ____
ROOT
ATOM      1  C   UNL     1      -4.687  -0.744  -1.584  0.00  0.00    +0.138 A 
ATOM      2  N   UNL     1      -4.606   0.421  -1.018  0.00  0.00    -0.231 NA
ATOM      3  C   UNL     1      -5.379   1.462  -1.417  0.00  0.00    +0.078 A 
ATOM      4  C   UNL     1      -5.291   2.716  -0.809  0.00  0.00    +0.028 A 
ATOM      5  C   UNL     1      -6.096   3.744  -1.247  0.00  0.00    +0.002 A 
ATOM      6  C   UNL     1      -6.995   3.550  -2.287  0.00  0.00    +0.001 A 
ATOM      7  C   UNL     1      -7.100   2.322  -2.903  0.00  0.00    +0.015 A 
ATOM      8  C   UNL     1      -6.295   1.268  -2.475  0.00  0.00    +0.065 A 
ATOM      9  C   UNL     1      -6.363  -0.063  -3.095  0.00  0.00    +0.266 A 
ATOM     10  O   UNL     1      -7.130  -0.295  -4.011  0.00  0.00    -0.267 OA
ATOM     11  N   UNL     1      -5.535  -1.018  -2.612  0.00  0.00    -0.259 N 
ENDROOT
BRANCH  11  12
ATOM     12  C   UNL     1      -5.556  -2.304  -3.171  0.00  0.00    +0.093 A 
ATOM     13  C   UNL     1      -6.412  -3.270  -2.663  0.00  0.00    +0.030 A 
ATOM     14  C   UNL     1      -6.431  -4.536  -3.216  0.00  0.00    +0.002 A 
ATOM     15  C   UNL     1      -5.597  -4.843  -4.276  0.00  0.00    +0.004 A 
ATOM     16  C   UNL     1      -4.742  -3.886  -4.788  0.00  0.00    +0.048 A 
ATOM     17  C   UNL     1      -4.721  -2.612  -4.243  0.00  0.00    +0.144 A 
BRANCH  17  18
ATOM     18  O   UNL     1      -3.885  -1.668  -4.750  0.00  0.00    -0.490 OA
BRANCH  18  19
ATOM     19  C   UNL     1      -3.058  -2.056  -5.848  0.00  0.00    +0.226 C 
ATOM     20  C   UNL     1      -2.192  -0.870  -6.279  0.00  0.00    +0.048 C 
ENDBRANCH  18  19
ENDBRANCH  17  18
ENDBRANCH  11  12
BRANCH   1  21
ATOM     21  C   UNL     1      -3.792  -1.848  -1.082  0.00  0.00    +0.140 C 
ATOM     22  C   UNL     1      -2.429  -1.751  -1.768  0.00  0.00    +0.036 C 
BRANCH  21  23
ATOM     23  N   UNL     1      -3.620  -1.715   0.367  0.00  0.00    -0.288 N 
ATOM     24  C   UNL     1      -4.075  -2.680   1.191  0.00  0.00    +0.247 C 
ATOM     25  O   UNL     1      -4.770  -3.575   0.753  0.00  0.00    -0.270 OA
BRANCH  24  26
ATOM     26  C   UNL     1      -3.728  -2.649   2.628  0.00  0.00    +0.037 A 
ATOM     27  C   UNL     1      -2.394  -2.542   3.025  0.00  0.00    +0.013 A 
ATOM     28  C   UNL     1      -2.077  -2.513   4.367  0.00  0.00    +0.005 A 
ATOM     29  C   UNL     1      -3.078  -2.591   5.319  0.00  0.00    -0.042 A 
ATOM     30  C   UNL     1      -4.402  -2.697   4.933  0.00  0.00    +0.005 A 
ATOM     31  C   UNL     1      -4.733  -2.721   3.594  0.00  0.00    +0.013 A 
BRANCH  29  32
ATOM     32  C   UNL     1      -2.724  -2.559   6.784  0.00  0.00    -0.013 C 
ATOM     33  C   UNL     1      -2.005  -1.248   7.107  0.00  0.00    +0.015 C 
ATOM     34  C   UNL     1      -4.002  -2.659   7.619  0.00  0.00    +0.015 C 
ATOM     35  C   UNL     1      -1.807  -3.739   7.112  0.00  0.00    +0.015 C 
ENDBRANCH  29  32
ENDBRANCH  24  26
BRANCH  23  36
ATOM     36  C   UNL     1      -2.954  -0.533   0.920  0.00  0.00    +0.109 C 
BRANCH  36  37
ATOM     37  C   UNL     1      -1.499  -0.501   0.448  0.00  0.00    +0.019 C 
BRANCH  37  39
ATOM     38  C   UNL     1       0.839   0.114   1.081  0.00  0.00    +0.004 C 
ATOM     39  C   UNL     1      -0.616   0.082   1.554  0.00  0.00    -0.002 C 
ENDBRANCH  37  39
ENDBRANCH  36  37
ENDBRANCH  23  36
ENDBRANCH  21  23
ENDBRANCH   1  21
TORSDOF 10
