REMARK  Name = ZINC43510814
REMARK  10 active torsions:
REMARK  status: ('A' for Active; 'I' for Inactive)
REMARK    1  A    between atoms: C_1  and  C_2
REMARK    2  A    between atoms: C_4  and  C_6
REMARK    3  A    between atoms: C_4  and  C_7
REMARK    4  A    between atoms: C_7  and  O_9
REMARK    5  A    between atoms: O_9  and  C_10
REMARK    6  A    between atoms: C_14  and  C_28
REMARK    7  A    between atoms: C_19  and  C_20
REMARK    8  A    between atoms: C_19  and  C_21
REMARK    9  A    between atoms: C_25  and  C_26
REMARK   10  A    between atoms: C_25  and  O_27
REMARK                            x       y       z     vdW  Elec       q    Type
REMARK                         _______ _______ _______ _____ _____    ______ ____
ROOT
ATOM      1  C   UNL     1      -2.265  -4.706  -0.552  0.00  0.00    +0.208 C 
ATOM      2  C   UNL     1      -3.109  -4.207  -1.728  0.00  0.00    +0.048 C 
ATOM      3  C   UNL     1      -3.238  -5.327  -2.760  0.00  0.00    +0.011 C 
ATOM      4  C   UNL     1      -3.926  -6.543  -2.131  0.00  0.00    -0.019 C 
ATOM      5  C   UNL     1      -4.004  -7.648  -3.193  0.00  0.00    +0.086 C 
ATOM      6  C   UNL     1      -4.618  -8.883  -2.568  0.00  0.00    +0.160 C 
ATOM      7  O   UNL     1      -5.505  -9.502  -3.117  0.00  0.00    -0.292 OA
ATOM      8  C   UNL     1      -4.079  -9.295  -1.258  0.00  0.00    -0.006 C 
ATOM      9  C   UNL     1      -3.803 -10.571  -0.982  0.00  0.00    -0.069 C 
ATOM     10  C   UNL     1      -3.910 -11.616  -2.062  0.00  0.00    +0.039 C 
ATOM     11  C   UNL     1      -3.384 -10.967   0.411  0.00  0.00    +0.039 C 
ATOM     12  C   UNL     1      -3.855  -8.194  -0.243  0.00  0.00    +0.045 C 
ATOM     13  C   UNL     1      -3.121  -7.032  -0.927  0.00  0.00    +0.035 C 
ATOM     14  C   UNL     1      -2.964  -5.902   0.094  0.00  0.00    +0.104 C 
ATOM     15  C   UNL     1      -2.133  -6.396   1.279  0.00  0.00    +0.045 C 
ATOM     16  C   UNL     1      -5.336  -6.156  -1.680  0.00  0.00    +0.012 C 
ENDROOT
BRANCH  14  17
ATOM     17  O   UNL     1      -4.256  -5.502   0.557  0.00  0.00    -0.385 OA
ATOM     18  H   UNL     1      -4.236  -4.792   1.214  0.00  0.00    +0.210 HD
ENDBRANCH  14  17
BRANCH   1  19
ATOM     19  O   UNL     1      -2.119  -3.660   0.410  0.00  0.00    -0.456 OA
BRANCH  19  20
ATOM     20  C   UNL     1      -1.063  -2.844   0.268  0.00  0.00    +0.342 C 
ATOM     21  O   UNL     1      -0.287  -3.013  -0.643  0.00  0.00    -0.247 OA
BRANCH  20  24
ATOM     22  C   UNL     1       0.771   0.290   1.718  0.00  0.00    +0.041 C 
ATOM     23  C   UNL     1       0.585  -1.200   1.428  0.00  0.00    +0.159 C 
ATOM     24  C   UNL     1      -0.844  -1.718   1.245  0.00  0.00    +0.189 C 
ATOM     25  O   UNL     1      -0.073  -1.994   2.418  0.00  0.00    -0.353 OA
ATOM     26  C   UNL     1      -1.988  -0.709   1.364  0.00  0.00    +0.056 C 
ENDBRANCH  20  24
ENDBRANCH  19  20
ENDBRANCH   1  19
TORSDOF 4
