REMARK  Name = ZINC23447427
REMARK  11 active torsions:
REMARK  status: ('A' for Active; 'I' for Inactive)
REMARK    1  A    between atoms: C_1  and  C_2
REMARK    2  A    between atoms: C_5  and  C_8
REMARK    3  A    between atoms: C_8  and  O_9
REMARK    4  A    between atoms: O_9  and  C_10
REMARK    5  A    between atoms: C_10  and  C_12
REMARK    6  A    between atoms: C_10  and  C_29
REMARK    7  A    between atoms: C_12  and  N_13
REMARK    8  A    between atoms: N_16  and  S_19
REMARK    9  A    between atoms: S_19  and  C_22
REMARK   10  A    between atoms: C_33  and  O_35
REMARK   11  A    between atoms: O_35  and  C_36
REMARK                            x       y       z     vdW  Elec       q    Type
REMARK                         _______ _______ _______ _____ _____    ______ ____
ROOT
ATOM      1  C   UNL     1      -5.211   2.675  -3.755  0.00  0.00    +0.132 C 
ENDROOT
BRANCH   1   2
ATOM      2  C   UNL     1      -6.410   3.414  -4.290  0.00  0.00    -0.017 A 
ATOM      3  C   UNL     1      -7.431   3.786  -3.435  0.00  0.00    +0.006 A 
ATOM      4  C   UNL     1      -8.532   4.465  -3.924  0.00  0.00    +0.004 A 
ATOM      5  C   UNL     1      -8.614   4.774  -5.268  0.00  0.00    +0.045 A 
ATOM      6  C   UNL     1      -7.592   4.401  -6.128  0.00  0.00    +0.120 A 
ATOM      7  C   UNL     1      -6.485   3.725  -5.634  0.00  0.00    +0.051 A 
BRANCH   6   8
ATOM      8  O   UNL     1      -7.670   4.704  -7.450  0.00  0.00    -0.495 OA
ATOM      9  C   UNL     1      -8.835   5.408  -7.886  0.00  0.00    +0.277 C 
ENDBRANCH   6   8
ENDBRANCH   1   2
BRANCH   1  10
ATOM     10  O   UNL     1      -5.637   1.716  -2.785  0.00  0.00    -0.369 OA
BRANCH  10  11
ATOM     11  C   UNL     1      -5.940   0.431  -3.333  0.00  0.00    +0.195 C 
BRANCH  11  16
ATOM     12  C   UNL     1      -7.612  -3.125   0.903  0.00  0.00    +0.044 C 
ATOM     13  C   UNL     1      -7.176  -2.198  -0.202  0.00  0.00    -0.050 A 
ATOM     14  C   UNL     1      -8.112  -1.434  -0.872  0.00  0.00    +0.004 A 
ATOM     15  C   UNL     1      -7.712  -0.583  -1.886  0.00  0.00    +0.006 A 
ATOM     16  C   UNL     1      -6.376  -0.496  -2.228  0.00  0.00    -0.022 A 
ATOM     17  C   UNL     1      -5.440  -1.264  -1.561  0.00  0.00    +0.006 A 
ATOM     18  C   UNL     1      -5.840  -2.112  -0.544  0.00  0.00    +0.004 A 
ENDBRANCH  11  16
ENDBRANCH  10  11
ENDBRANCH   1  10
BRANCH   1  19
ATOM     19  C   UNL     1      -4.250   3.669  -3.100  0.00  0.00    -0.042 C 
BRANCH  19  20
ATOM     20  N   UNL     1      -3.075   2.950  -2.588  0.00  0.00    +0.383 N 
ATOM     21  C   UNL     1      -2.290   2.375  -3.688  0.00  0.00    -0.061 C 
ATOM     22  C   UNL     1      -1.183   1.486  -3.110  0.00  0.00    +0.091 C 
ATOM     23  N   UNL     1      -0.409   2.275  -2.139  0.00  0.00    -0.180 NA
ATOM     24  C   UNL     1      -1.141   2.990  -1.082  0.00  0.00    +0.091 C 
ATOM     25  C   UNL     1      -2.250   3.824  -1.744  0.00  0.00    -0.061 C 
ATOM     26  H   UNL     1      -3.432   2.120  -1.961  0.00  0.00    -0.082 HD
BRANCH  23  27
ATOM     27  S   UNL     1       1.242   2.351  -2.229  0.00  0.00    +0.061 S 
ATOM     28  O   UNL     1       1.706   2.673  -0.925  0.00  0.00    -0.153 OA
ATOM     29  O   UNL     1       1.665   1.185  -2.922  0.00  0.00    -0.153 OA
BRANCH  27  30
ATOM     30  C   UNL     1       1.645   3.722  -3.260  0.00  0.00    +0.106 A 
ATOM     31  C   UNL     1       1.789   3.543  -4.623  0.00  0.00    +0.030 A 
ATOM     32  C   UNL     1       2.099   4.620  -5.433  0.00  0.00    +0.022 A 
ATOM     33  C   UNL     1       2.277   5.874  -4.878  0.00  0.00    +0.041 A 
ATOM     34  C   UNL     1       2.139   6.052  -3.513  0.00  0.00    +0.022 A 
ATOM     35  C   UNL     1       1.823   4.976  -2.705  0.00  0.00    +0.030 A 
ATOM     36 CL   UNL     1       2.674   7.225  -5.893  0.00  0.00    -0.084 Cl
ENDBRANCH  27  30
ENDBRANCH  23  27
ENDBRANCH  19  20
ENDBRANCH   1  19
TORSDOF 9
