REMARK  Name = ZINC05352855
REMARK  6 active torsions:
REMARK  status: ('A' for Active; 'I' for Inactive)
REMARK    1  A    between atoms: C_1  and  C_2
REMARK    2  A    between atoms: C_6  and  N_9
REMARK    3  A    between atoms: C_7  and  C_8
REMARK    4  A    between atoms: C_21  and  C_23
REMARK    5  A    between atoms: C_21  and  C_24
REMARK    6  A    between atoms: C_21  and  N_52
REMARK                            x       y       z     vdW  Elec       q    Type
REMARK                         _______ _______ _______ _____ _____    ______ ____
ROOT
ATOM      1  N   UNL     1      -5.467   0.507   3.371  0.00  0.00    -0.250 N 
ATOM      2  C   UNL     1      -4.728   1.318   2.532  0.00  0.00    +0.112 A 
ATOM      3  C   UNL     1      -4.571   0.953   1.230  0.00  0.00    +0.039 A 
ATOM      4  C   UNL     1      -5.174  -0.232   0.771  0.00  0.00    +0.257 A 
ATOM      5  O   UNL     1      -5.047  -0.572  -0.393  0.00  0.00    -0.267 OA
ATOM      6  N   UNL     1      -5.892  -0.989   1.622  0.00  0.00    -0.274 N 
ATOM      7  H   UNL     1      -6.324  -1.830   1.296  0.00  0.00    +0.173 HD
ATOM      8  C   UNL     1      -6.032  -0.621   2.909  0.00  0.00    +0.335 A 
ATOM      9  O   UNL     1      -6.680  -1.319   3.664  0.00  0.00    -0.246 OA
ATOM     10  C   UNL     1      -3.762   1.781   0.267  0.00  0.00    -0.031 C 
ATOM     11  C   UNL     1      -3.072   2.974   2.236  0.00  0.00    +0.029 C 
ATOM     12  N   UNL     1      -4.180   2.462   3.047  0.00  0.00    -0.346 N 
ATOM     13  H   UNL     1      -3.895   2.326   4.005  0.00  0.00    +0.145 HD
ATOM     14  N   UNL     1      -3.547   3.118   0.848  0.00  0.00    +0.397 N 
ATOM     15  H   UNL     1      -4.435   3.633   0.847  0.00  0.00    -0.078 HD
ENDROOT
BRANCH   1  21
ATOM     16  C   UNL     1      -3.888   0.309   8.024  0.00  0.00    +0.044 C 
ATOM     17  C   UNL     1      -4.878   0.782   6.992  0.00  0.00    -0.046 A 
ATOM     18  C   UNL     1      -5.949   1.570   7.372  0.00  0.00    +0.004 A 
ATOM     19  C   UNL     1      -6.860   2.006   6.428  0.00  0.00    +0.002 A 
ATOM     20  C   UNL     1      -6.703   1.655   5.101  0.00  0.00    +0.026 A 
ATOM     21  C   UNL     1      -5.629   0.864   4.716  0.00  0.00    +0.056 A 
ATOM     22  C   UNL     1      -4.719   0.423   5.668  0.00  0.00    -0.024 A 
ATOM     23  C   UNL     1      -3.556  -0.441   5.255  0.00  0.00    +0.046 C 
ENDBRANCH   1  21
BRANCH  14  24
ATOM     24  C   UNL     1      -2.553   3.869   0.044  0.00  0.00    -0.038 C 
ATOM     25  C   UNL     1      -3.022   3.926  -1.411  0.00  0.00    -0.008 C 
BRANCH  24  26
ATOM     26  C   UNL     1      -1.211   3.187   0.113  0.00  0.00    -0.061 A 
ATOM     27  C   UNL     1      -0.204   3.720   0.896  0.00  0.00    +0.002 A 
ATOM     28  C   UNL     1       1.028   3.097   0.956  0.00  0.00    +0.000 A 
ATOM     29  C   UNL     1       1.252   1.936   0.240  0.00  0.00    +0.000 A 
ATOM     30  C   UNL     1       0.244   1.401  -0.540  0.00  0.00    +0.000 A 
ATOM     31  C   UNL     1      -0.987   2.026  -0.604  0.00  0.00    +0.002 A 
ENDBRANCH  24  26
ENDBRANCH  14  24
TORSDOF 3
