REMARK  Name = ZINC20679666
REMARK  7 active torsions:
REMARK  status: ('A' for Active; 'I' for Inactive)
REMARK    1  A    between atoms: C_1  and  C_2
REMARK    2  A    between atoms: C_4  and  C_35
REMARK    3  A    between atoms: C_6  and  N_8
REMARK    4  A    between atoms: N_8  and  S_9
REMARK    5  A    between atoms: S_9  and  C_12
REMARK    6  A    between atoms: C_25  and  C_28
REMARK    7  A    between atoms: C_31  and  O_34
REMARK                            x       y       z     vdW  Elec       q    Type
REMARK                         _______ _______ _______ _____ _____    ______ ____
ROOT
ATOM      1  C   UNL     1       0.684  -2.641   0.646  0.00  0.00    +0.109 A 
ATOM      2  C   UNL     1      -0.635  -2.376   0.325  0.00  0.00    +0.030 A 
ATOM      3  C   UNL     1      -1.074  -1.069   0.262  0.00  0.00    +0.025 A 
ATOM      4  C   UNL     1      -0.193  -0.026   0.521  0.00  0.00    +0.031 A 
ATOM      5  C   UNL     1       1.130  -0.287   0.845  0.00  0.00    -0.018 A 
ATOM      6  C   UNL     1       1.559  -1.606   0.904  0.00  0.00    +0.034 A 
ATOM      7  C   UNL     1       2.113   0.801   1.137  0.00  0.00    +0.049 C 
ATOM      8  C   UNL     1       3.071   1.002  -0.013  0.00  0.00    -0.023 C 
ATOM      9  C   UNL     1       3.358   2.274  -0.147  0.00  0.00    -0.030 C 
ATOM     10  C   UNL     1       2.633   3.096   0.901  0.00  0.00    +0.033 C 
ATOM     11  C   UNL     1       1.447   2.179   1.322  0.00  0.00    +0.029 C 
ATOM     12  C   UNL     1       0.336   2.366   0.285  0.00  0.00    +0.105 C 
ATOM     13  N   UNL     1      -0.652   1.294   0.450  0.00  0.00    -0.336 N 
ATOM     14  H   UNL     1      -1.722   1.537   0.515  0.00  0.00    +0.147 HD
ENDROOT
BRANCH  12  15
ATOM     15  C   UNL     1       0.923   2.302  -1.102  0.00  0.00    -0.027 A 
ATOM     16  C   UNL     1       1.329   3.463  -1.733  0.00  0.00    +0.009 A 
ATOM     17  C   UNL     1       1.873   3.408  -3.002  0.00  0.00    +0.046 A 
ATOM     18  C   UNL     1       2.001   2.186  -3.647  0.00  0.00    +0.117 A 
ATOM     19  C   UNL     1       1.587   1.023  -3.014  0.00  0.00    +0.046 A 
ATOM     20  C   UNL     1       1.050   1.084  -1.742  0.00  0.00    +0.009 A 
BRANCH  18  21
ATOM     21  O   UNL     1       2.531   2.129  -4.897  0.00  0.00    -0.507 OA
ATOM     22  H   UNL     1       2.632   1.160  -5.408  0.00  0.00    +0.292 HD
ENDBRANCH  18  21
ENDBRANCH  12  15
BRANCH   1  23
ATOM     23  S   UNL     1       1.249  -4.309   0.725  0.00  0.00    +0.072 S 
ATOM     24  O   UNL     1       0.323  -5.087  -0.021  0.00  0.00    -0.150 OA
ATOM     25  O   UNL     1       2.638  -4.281   0.425  0.00  0.00    -0.150 OA
BRANCH  23  26
ATOM     26  N   UNL     1       1.115  -4.796   2.302  0.00  0.00    -0.216 N 
ATOM     27  H   UNL     1       0.448  -5.630   2.565  0.00  0.00    +0.174 HD
BRANCH  26  33
ATOM     28  C   UNL     1       5.378  -2.922   3.873  0.00  0.00    +0.044 C 
ATOM     29  C   UNL     1       3.918  -3.228   4.087  0.00  0.00    -0.048 A 
ATOM     30  C   UNL     1       3.304  -2.866   5.272  0.00  0.00    +0.006 A 
ATOM     31  C   UNL     1       1.964  -3.144   5.473  0.00  0.00    -0.048 A 
ATOM     32  C   UNL     1       1.235  -3.784   4.490  0.00  0.00    +0.028 A 
ATOM     33  C   UNL     1       1.849  -4.149   3.298  0.00  0.00    +0.049 A 
ATOM     34  C   UNL     1       3.196  -3.872   3.102  0.00  0.00    +0.028 A 
ATOM     35  C   UNL     1       1.299  -2.749   6.766  0.00  0.00    +0.044 C 
ENDBRANCH  26  33
ENDBRANCH  23  26
ENDBRANCH   1  23
TORSDOF 5
