REMARK  Name = ZINC36347975
REMARK  9 active torsions:
REMARK  status: ('A' for Active; 'I' for Inactive)
REMARK    1  A    between atoms: C_1  and  O_2
REMARK    2  A    between atoms: O_2  and  C_3
REMARK    3  A    between atoms: C_7  and  C_11
REMARK    4  A    between atoms: C_8  and  O_9
REMARK    5  A    between atoms: O_9  and  C_10
REMARK    6  A    between atoms: N_21  and  C_22
REMARK    7  A    between atoms: C_22  and  C_23
REMARK    8  A    between atoms: C_27  and  O_30
REMARK    9  A    between atoms: C_28  and  O_29
REMARK                            x       y       z     vdW  Elec       q    Type
REMARK                         _______ _______ _______ _____ _____    ______ ____
ROOT
ATOM      1  C   UNL     1       1.394  -4.073  -2.304  0.00  0.00    +0.014 C 
ATOM      2  C   UNL     1       2.597  -4.597  -1.558  0.00  0.00    +0.010 A 
ATOM      3  C   UNL     1       3.173  -4.031  -0.480  0.00  0.00    +0.021 A 
ATOM      4  C   UNL     1       4.252  -4.854  -0.098  0.00  0.00    +0.019 A 
ATOM      5  C   UNL     1       4.295  -5.890  -0.960  0.00  0.00    +0.086 A 
ATOM      6  N   UNL     1       3.288  -5.734  -1.863  0.00  0.00    -0.352 N 
ATOM      7  C   UNL     1       2.987  -6.621  -2.994  0.00  0.00    +0.119 C 
ATOM      8  C   UNL     1       1.479  -6.887  -3.029  0.00  0.00    +0.003 C 
ATOM      9  C   UNL     1       0.785  -5.809  -3.852  0.00  0.00    -0.075 C 
ATOM     10  N   UNL     1       1.459  -4.517  -3.704  0.00  0.00    +0.391 N 
ATOM     11  H   UNL     1       2.425  -4.609  -3.981  0.00  0.00    -0.080 HD
ENDROOT
BRANCH   1  16
ATOM     12  C   UNL     1       0.370  -0.509  -1.541  0.00  0.00    +0.162 A 
ATOM     13  C   UNL     1       1.381   0.203  -2.166  0.00  0.00    +0.049 A 
ATOM     14  C   UNL     1       2.389  -0.468  -2.832  0.00  0.00    +0.004 A 
ATOM     15  C   UNL     1       2.393  -1.850  -2.876  0.00  0.00    +0.006 A 
ATOM     16  C   UNL     1       1.387  -2.567  -2.254  0.00  0.00    -0.010 A 
ATOM     17  C   UNL     1       0.377  -1.900  -1.580  0.00  0.00    +0.163 A 
BRANCH  12  19
ATOM     18  C   UNL     1      -0.565   1.577  -0.886  0.00  0.00    +0.277 C 
ATOM     19  O   UNL     1      -0.623   0.149  -0.885  0.00  0.00    -0.491 OA
ENDBRANCH  12  19
BRANCH  17  20
ATOM     20  O   UNL     1      -0.610  -2.604  -0.963  0.00  0.00    -0.491 OA
ATOM     21  C   UNL     1      -1.770  -2.913  -1.739  0.00  0.00    +0.277 C 
ENDBRANCH  17  20
ENDBRANCH   1  16
BRANCH  10  22
ATOM     22  C   UNL     1       0.801  -3.522  -4.561  0.00  0.00    -0.038 C 
BRANCH  22  23
ATOM     23  C   UNL     1       0.932  -3.938  -6.004  0.00  0.00    -0.019 A 
ATOM     24  C   UNL     1       1.903  -3.363  -6.804  0.00  0.00    +0.005 A 
ATOM     25  C   UNL     1       2.026  -3.742  -8.127  0.00  0.00    +0.004 A 
ATOM     26  C   UNL     1       1.179  -4.697  -8.658  0.00  0.00    +0.049 A 
ATOM     27  C   UNL     1       0.204  -5.277  -7.862  0.00  0.00    +0.158 A 
ATOM     28  C   UNL     1       0.084  -4.900  -6.528  0.00  0.00    +0.160 A 
BRANCH  28  29
ATOM     29  O   UNL     1      -0.868  -5.470  -5.741  0.00  0.00    -0.503 OA
ATOM     30  H   UNL     1      -1.715  -5.004  -5.748  0.00  0.00    +0.292 HD
ENDBRANCH  28  29
BRANCH  27  31
ATOM     31  O   UNL     1      -0.630  -6.216  -8.383  0.00  0.00    -0.503 OA
ATOM     32  H   UNL     1      -0.303  -7.123  -8.299  0.00  0.00    +0.292 HD
ENDBRANCH  27  31
ENDBRANCH  22  23
ENDBRANCH  10  22
TORSDOF 7
