REMARK  Name = ZINC39959034
REMARK  4 active torsions:
REMARK  status: ('A' for Active; 'I' for Inactive)
REMARK    1  A    between atoms: C_1  and  S_2
REMARK    2  A    between atoms: S_2  and  C_3
REMARK    3  A    between atoms: C_16  and  C_19
REMARK    4  A    between atoms: C_24  and  C_25
REMARK                            x       y       z     vdW  Elec       q    Type
REMARK                         _______ _______ _______ _____ _____    ______ ____
ROOT
ATOM      1  C   UNL     1      -1.702  -0.454   0.016  0.00  0.00    +0.212 A 
ATOM      2  N   UNL     1      -2.039  -1.740   0.018  0.00  0.00    -0.184 NA
ATOM      3  C   UNL     1      -3.318  -2.073   0.030  0.00  0.00    +0.248 A 
ATOM      4  C   UNL     1      -4.288  -1.045   0.045  0.00  0.00    +0.156 A 
ATOM      5  N   UNL     1      -3.885   0.217   0.039  0.00  0.00    -0.141 NA
ATOM      6  N   UNL     1      -2.627   0.497   0.030  0.00  0.00    -0.122 NA
ATOM      7  C   UNL     1      -5.723  -1.395   0.075  0.00  0.00    +0.028 A 
ATOM      8  C   UNL     1      -6.636  -0.797  -0.785  0.00  0.00    +0.012 A 
ATOM      9  C   UNL     1      -7.971  -1.143  -0.716  0.00  0.00    +0.001 A 
ATOM     10  C   UNL     1      -8.406  -2.081   0.204  0.00  0.00    +0.002 A 
ATOM     11  C   UNL     1      -7.507  -2.688   1.062  0.00  0.00    +0.023 A 
ATOM     12  C   UNL     1      -6.166  -2.357   1.001  0.00  0.00    +0.039 A 
ATOM     13  N   UNL     1      -5.225  -2.977   1.829  0.00  0.00    -0.308 N 
ATOM     14  C   UNL     1      -4.257  -3.892   1.231  0.00  0.00    +0.276 C 
ATOM     15  O   UNL     1      -3.711  -3.369   0.025  0.00  0.00    -0.452 OA
ATOM     16  H   UNL     1      -5.215  -2.803   2.783  0.00  0.00    +0.150 HD
ENDROOT
BRANCH  14  17
ATOM     17  C   UNL     1      -4.949  -5.222   0.927  0.00  0.00    +0.142 C 
ATOM     18  C   UNL     1      -6.043  -5.031  -0.105  0.00  0.00    +0.122 C 
ATOM     19  N   UNL     1      -5.707  -5.757  -1.122  0.00  0.00    -0.161 NA
ATOM     20  N   UNL     1      -4.508  -6.432  -0.921  0.00  0.00    -0.153 NA
ATOM     21  C   UNL     1      -3.989  -6.182   0.253  0.00  0.00    +0.084 C 
BRANCH  21  22
ATOM     22  C   UNL     1      -2.736  -6.718   0.807  0.00  0.00    -0.001 A 
ATOM     23  C   UNL     1      -2.321  -6.351   2.091  0.00  0.00    +0.010 A 
ATOM     24  C   UNL     1      -1.145  -6.858   2.603  0.00  0.00    +0.001 A 
ATOM     25  C   UNL     1      -0.375  -7.727   1.849  0.00  0.00    +0.000 A 
ATOM     26  C   UNL     1      -0.779  -8.094   0.577  0.00  0.00    +0.001 A 
ATOM     27  C   UNL     1      -1.956  -7.602   0.054  0.00  0.00    +0.010 A 
ENDBRANCH  21  22
ENDBRANCH  14  17
BRANCH   1  29
ATOM     28  C   UNL     1      -0.022   1.810   0.012  0.00  0.00    +0.093 C 
ATOM     29  S   UNL     1       0.002  -0.004   0.002  0.00  0.00    -0.088 S 
ENDBRANCH   1  29
TORSDOF 3
