REMARK  Name = ZINC45070904
REMARK  5 active torsions:
REMARK  status: ('A' for Active; 'I' for Inactive)
REMARK    1  A    between atoms: C_8  and  C_15
REMARK    2  A    between atoms: C_15  and  C_17
REMARK    3  A    between atoms: C_15  and  O_29
REMARK    4  A    between atoms: C_22  and  C_27
REMARK    5  A    between atoms: C_27  and  O_28
REMARK                            x       y       z     vdW  Elec       q    Type
REMARK                         _______ _______ _______ _____ _____    ______ ____
ROOT
ATOM      1  C   UNL     1       2.447  -4.266  -0.047  0.00  0.00    +0.152 C 
ENDROOT
BRANCH   1   9
ATOM      2  C   UNL     1       1.036   1.708  -0.250  0.00  0.00    +0.001 A 
ATOM      3  C   UNL     1       2.323   2.216  -0.121  0.00  0.00    +0.001 A 
ATOM      4  C   UNL     1       3.395   1.379  -0.001  0.00  0.00    +0.009 A 
ATOM      5  C   UNL     1       3.198  -0.003  -0.008  0.00  0.00    -0.010 A 
ATOM      6  C   UNL     1       1.891  -0.524  -0.139  0.00  0.00    -0.017 A 
ATOM      7  C   UNL     1       0.811   0.362  -0.260  0.00  0.00    +0.008 A 
ATOM      8  C   UNL     1       1.688  -1.923  -0.147  0.00  0.00    +0.015 A 
ATOM      9  C   UNL     1       2.719  -2.784  -0.032  0.00  0.00    -0.010 A 
ATOM     10  C   UNL     1       4.050  -2.327   0.102  0.00  0.00    -0.012 A 
ATOM     11  C   UNL     1       4.319  -0.939   0.117  0.00  0.00    -0.010 A 
ATOM     12  C   UNL     1       5.635  -0.491   0.250  0.00  0.00    +0.009 A 
ATOM     13  C   UNL     1       6.650  -1.397   0.365  0.00  0.00    +0.001 A 
ATOM     14  C   UNL     1       6.390  -2.762   0.350  0.00  0.00    +0.001 A 
ATOM     15  C   UNL     1       5.115  -3.231   0.221  0.00  0.00    +0.009 A 
ENDBRANCH   1   9
BRANCH   1  16
ATOM     16  C   UNL     1       2.431  -4.768  -1.492  0.00  0.00    +0.016 C 
ATOM     17  C   UNL     1       3.720  -4.361  -2.220  0.00  0.00    +0.037 C 
ATOM     18  C   UNL     1       4.882  -5.193  -1.781  0.00  0.00    -0.030 C 
ATOM     19  C   UNL     1       4.767  -6.319  -1.155  0.00  0.00    -0.030 C 
ATOM     20  C   UNL     1       3.457  -6.927  -0.768  0.00  0.00    +0.037 C 
ATOM     21  C   UNL     1       2.301  -6.298  -1.532  0.00  0.00    +0.010 C 
ATOM     22  C   UNL     1       1.021  -6.706  -0.790  0.00  0.00    +0.037 C 
ATOM     23  C   UNL     1      -0.149  -5.883  -1.225  0.00  0.00    -0.030 C 
ATOM     24  C   UNL     1      -0.045  -4.762  -1.861  0.00  0.00    -0.030 C 
ATOM     25  C   UNL     1       1.258  -4.151  -2.266  0.00  0.00    +0.037 C 
BRANCH  21  26
ATOM     26  C   UNL     1       2.284  -6.800  -2.978  0.00  0.00    +0.164 C 
BRANCH  26  27
ATOM     27  O   UNL     1       2.163  -8.223  -2.987  0.00  0.00    -0.394 OA
ATOM     28  H   UNL     1       2.145  -8.611  -3.872  0.00  0.00    +0.209 HD
ENDBRANCH  26  27
ENDBRANCH  21  26
ENDBRANCH   1  16
BRANCH   1  29
ATOM     29  O   UNL     1       1.179  -4.524   0.561  0.00  0.00    -0.387 OA
ATOM     30  H   UNL     1       0.436  -4.093   0.117  0.00  0.00    +0.210 HD
ENDBRANCH   1  29
TORSDOF 5
