REMARK  Name = ZINC32105563
REMARK  5 active torsions:
REMARK  status: ('A' for Active; 'I' for Inactive)
REMARK    1  A    between atoms: C_1  and  C_2
REMARK    2  A    between atoms: C_2  and  C_3
REMARK    3  A    between atoms: C_2  and  C_4
REMARK    4  A    between atoms: N_19  and  C_20
REMARK    5  A    between atoms: C_23  and  C_26
REMARK                            x       y       z     vdW  Elec       q    Type
REMARK                         _______ _______ _______ _____ _____    ______ ____
ROOT
ATOM      1  C   UNL     1       0.731  -0.503   1.223  0.00  0.00    -0.044 A 
ATOM      2  C   UNL     1       2.048  -0.140   1.419  0.00  0.00    +0.006 A 
ATOM      3  C   UNL     1       2.770  -0.567   2.523  0.00  0.00    +0.024 A 
ATOM      4  C   UNL     1       2.111  -1.388   3.439  0.00  0.00    +0.038 A 
ATOM      5  C   UNL     1       0.774  -1.750   3.227  0.00  0.00    -0.006 A 
ATOM      6  C   UNL     1       0.061  -1.316   2.131  0.00  0.00    +0.010 A 
ATOM      7  C   UNL     1       0.391  -2.622   4.380  0.00  0.00    +0.111 C 
ATOM      8  C   UNL     1      -0.007  -4.019   3.909  0.00  0.00    +0.122 C 
ATOM      9  C   UNL     1      -1.424  -4.041   3.406  0.00  0.00    +0.220 C 
ATOM     10  O   UNL     1      -1.696  -4.733   2.448  0.00  0.00    -0.275 OA
ATOM     11  N   UNL     1      -2.403  -3.317   3.988  0.00  0.00    -0.270 N 
ATOM     12  C   UNL     1      -2.047  -2.376   4.954  0.00  0.00    +0.133 A 
ATOM     13  C   UNL     1      -0.739  -2.022   5.169  0.00  0.00    +0.032 A 
ATOM     14  C   UNL     1      -0.714  -1.077   6.184  0.00  0.00    +0.141 A 
ATOM     15  N   UNL     1      -1.949  -0.851   6.568  0.00  0.00    -0.173 NA
ATOM     16  N   UNL     1      -2.809  -1.654   5.800  0.00  0.00    -0.218 N 
ATOM     17  C   UNL     1       1.641  -2.695   5.230  0.00  0.00    +0.233 C 
ATOM     18  O   UNL     1       1.772  -3.305   6.270  0.00  0.00    -0.274 OA
ATOM     19  N   UNL     1       2.582  -1.951   4.611  0.00  0.00    -0.284 N 
ATOM     20  H   UNL     1      -3.332  -3.447   3.740  0.00  0.00    +0.156 HD
ATOM     21  H   UNL     1       3.483  -1.827   4.948  0.00  0.00    +0.155 HD
ENDROOT
BRANCH  16  22
ATOM     22  C   UNL     1      -4.206  -1.697   5.896  0.00  0.00    +0.067 A 
ATOM     23  C   UNL     1      -4.976  -1.898   4.758  0.00  0.00    +0.028 A 
ATOM     24  C   UNL     1      -6.353  -1.940   4.856  0.00  0.00    +0.014 A 
ATOM     25  C   UNL     1      -6.965  -1.782   6.086  0.00  0.00    +0.055 A 
ATOM     26  C   UNL     1      -6.202  -1.581   7.221  0.00  0.00    +0.014 A 
ATOM     27  C   UNL     1      -4.824  -1.544   7.130  0.00  0.00    +0.028 A 
BRANCH  25  28
ATOM     28  C   UNL     1      -8.468  -1.828   6.189  0.00  0.00    +0.417 C 
ATOM     29  F   UNL     1      -8.880  -3.146   6.415  0.00  0.00    -0.166 F 
ATOM     30  F   UNL     1      -8.887  -1.020   7.251  0.00  0.00    -0.166 F 
ATOM     31  F   UNL     1      -9.032  -1.361   4.997  0.00  0.00    -0.166 F 
ENDBRANCH  25  28
ENDBRANCH  16  22
BRANCH   1  33
ATOM     32  C   UNL     1      -0.019   1.526   0.010  0.00  0.00    +0.012 C 
ATOM     33  C   UNL     1       0.002  -0.004   0.002  0.00  0.00    +0.013 C 
ATOM     34  C   UNL     1       0.718  -0.497  -1.257  0.00  0.00    +0.012 C 
ENDBRANCH   1  33
TORSDOF 3
