REMARK  Name = ZINC05546339
REMARK  6 active torsions:
REMARK  status: ('A' for Active; 'I' for Inactive)
REMARK    1  A    between atoms: C_1  and  C_2
REMARK    2  A    between atoms: C_5  and  C_8
REMARK    3  A    between atoms: N_14  and  C_21
REMARK    4  A    between atoms: C_16  and  C_17
REMARK    5  A    between atoms: C_28  and  N_32
REMARK    6  A    between atoms: C_29  and  C_30
REMARK                            x       y       z     vdW  Elec       q    Type
REMARK                         _______ _______ _______ _____ _____    ______ ____
ROOT
ATOM      1  C   UNL     1       7.126  -1.203  -0.881  0.00  0.00    +0.079 C 
ATOM      2  C   UNL     1       5.676  -1.261  -0.500  0.00  0.00    +0.118 C 
ATOM      3  C   UNL     1       5.196  -0.081   0.361  0.00  0.00    +0.294 C 
ATOM      4  N   UNL     1       4.040  -0.743   1.042  0.00  0.00    -0.185 N 
ATOM      5  N   UNL     1       4.372  -2.102   1.140  0.00  0.00    -0.176 NA
ATOM      6  C   UNL     1       5.260  -2.469   0.289  0.00  0.00    +0.148 C 
ATOM      7  O   UNL     1       6.125   0.197   1.410  0.00  0.00    -0.455 OA
ATOM      8  C   UNL     1       7.440   0.050   1.242  0.00  0.00    +0.194 C 
ATOM      9  C   UNL     1       7.984  -0.629   0.209  0.00  0.00    +0.094 C 
ENDROOT
BRANCH   1  14
ATOM     10  C   UNL     1       8.960  -6.550  -2.083  0.00  0.00    +0.044 C 
ATOM     11  C   UNL     1       8.482  -5.155  -1.770  0.00  0.00    -0.050 A 
ATOM     12  C   UNL     1       7.608  -4.515  -2.628  0.00  0.00    +0.003 A 
ATOM     13  C   UNL     1       7.169  -3.236  -2.340  0.00  0.00    +0.004 A 
ATOM     14  C   UNL     1       7.604  -2.597  -1.194  0.00  0.00    -0.038 A 
ATOM     15  C   UNL     1       8.482  -3.236  -0.339  0.00  0.00    +0.004 A 
ATOM     16  C   UNL     1       8.917  -4.516  -0.624  0.00  0.00    +0.003 A 
ENDBRANCH   1  14
BRANCH   4  17
ATOM     17  C   UNL     1       2.870  -0.130   1.493  0.00  0.00    +0.055 A 
ATOM     18  C   UNL     1       1.882  -0.887   2.111  0.00  0.00    +0.025 A 
ATOM     19  C   UNL     1       0.725  -0.277   2.557  0.00  0.00    +0.002 A 
ATOM     20  C   UNL     1       0.550   1.084   2.389  0.00  0.00    +0.000 A 
ATOM     21  C   UNL     1       1.532   1.841   1.775  0.00  0.00    +0.002 A 
ATOM     22  C   UNL     1       2.691   1.238   1.327  0.00  0.00    +0.025 A 
ENDBRANCH   4  17
BRANCH   6  23
ATOM     23  C   UNL     1       5.796  -3.866   0.116  0.00  0.00    +0.432 C 
ATOM     24  F   UNL     1       4.934  -4.777   0.737  0.00  0.00    -0.165 F 
ATOM     25  F   UNL     1       5.888  -4.166  -1.247  0.00  0.00    -0.165 F 
ATOM     26  F   UNL     1       7.065  -3.955   0.699  0.00  0.00    -0.165 F 
ENDBRANCH   6  23
BRANCH   8  27
ATOM     27  N   UNL     1       8.282   0.616   2.165  0.00  0.00    -0.329 N 
ATOM     28  H   UNL     1       9.242   0.524   2.067  0.00  0.00    +0.145 HD
ATOM     29  H   UNL     1       7.917   1.109   2.917  0.00  0.00    +0.145 HD
ENDBRANCH   8  27
BRANCH   9  30
ATOM     30  C   UNL     1       9.404  -0.804   0.152  0.00  0.00    +0.100 C 
ATOM     31  N   UNL     1      10.530  -0.944   0.108  0.00  0.00    -0.191 NA
ENDBRANCH   9  30
TORSDOF 5
