REMARK  Name = ZINC62314060
REMARK  5 active torsions:
REMARK  status: ('A' for Active; 'I' for Inactive)
REMARK    1  A    between atoms: C_1  and  C_2
REMARK    2  A    between atoms: C_2  and  C_4
REMARK    3  A    between atoms: C_2  and  C_12
REMARK    4  A    between atoms: C_4  and  C_5
REMARK    5  A    between atoms: N_14  and  C_15
REMARK                            x       y       z     vdW  Elec       q    Type
REMARK                         _______ _______ _______ _____ _____    ______ ____
ROOT
ATOM      1  C   UNL     1       0.730  -0.502   1.224  0.00  0.00    +0.220 C 
ATOM      2  O   UNL     1       0.155  -1.204   2.028  0.00  0.00    -0.275 OA
ATOM      3  N   UNL     1       2.019  -0.161   1.426  0.00  0.00    -0.285 N 
ATOM      4  H   UNL     1       2.498   0.344   0.751  0.00  0.00    +0.155 HD
ENDROOT
BRANCH   3   5
ATOM      5  C   UNL     1       2.665  -0.537   2.610  0.00  0.00    +0.036 A 
ATOM      6  C   UNL     1       3.603   0.310   3.188  0.00  0.00    +0.027 A 
ATOM      7  C   UNL     1       4.243  -0.055   4.356  0.00  0.00    +0.050 A 
ATOM      8  C   UNL     1       3.951  -1.270   4.956  0.00  0.00    +0.157 A 
ATOM      9  C   UNL     1       3.009  -2.122   4.378  0.00  0.00    +0.089 A 
ATOM     10  C   UNL     1       2.364  -1.752   3.209  0.00  0.00    +0.052 A 
ATOM     11  N   UNL     1       2.933  -3.248   5.197  0.00  0.00    -0.288 N 
ATOM     12  H   UNL     1       2.364  -4.021   5.058  0.00  0.00    +0.172 HD
ATOM     13  C   UNL     1       3.795  -3.066   6.217  0.00  0.00    +0.419 A 
ATOM     14  O   UNL     1       3.987  -3.854   7.123  0.00  0.00    -0.223 OA
ATOM     15  O   UNL     1       4.409  -1.880   6.077  0.00  0.00    -0.408 OA
ENDBRANCH   3   5
BRANCH   1  17
ATOM     16  C   UNL     1      -0.013   1.521  -0.004  0.00  0.00    +0.017 C 
ATOM     17  C   UNL     1       0.004  -0.009  -0.002  0.00  0.00    +0.076 C 
BRANCH  17  18
ATOM     18  C   UNL     1      -1.433  -0.535   0.011  0.00  0.00    +0.047 C 
BRANCH  18  19
ATOM     19  C   UNL     1      -2.121  -0.146  -1.271  0.00  0.00    -0.047 A 
ATOM     20  C   UNL     1      -2.801   1.054  -1.354  0.00  0.00    +0.005 A 
ATOM     21  C   UNL     1      -3.433   1.412  -2.530  0.00  0.00    +0.020 A 
ATOM     22  C   UNL     1      -3.385   0.568  -3.625  0.00  0.00    +0.041 A 
ATOM     23  C   UNL     1      -2.705  -0.634  -3.542  0.00  0.00    +0.020 A 
ATOM     24  C   UNL     1      -2.068  -0.988  -2.367  0.00  0.00    +0.005 A 
ATOM     25 CL   UNL     1      -4.179   1.016  -5.102  0.00  0.00    -0.084 Cl
ENDBRANCH  18  19
ENDBRANCH  17  18
ENDBRANCH   1  17
TORSDOF 4
