REMARK  Name = ZINC18119410
REMARK  10 active torsions:
REMARK  status: ('A' for Active; 'I' for Inactive)
REMARK    1  A    between atoms: C_4  and  C_7
REMARK    2  A    between atoms: C_7  and  N_8
REMARK    3  A    between atoms: C_9  and  N_37
REMARK    4  A    between atoms: C_10  and  N_17
REMARK    5  A    between atoms: N_17  and  C_18
REMARK    6  A    between atoms: C_18  and  C_19
REMARK    7  A    between atoms: C_19  and  C_20
REMARK    8  A    between atoms: C_26  and  C_28
REMARK    9  A    between atoms: C_28  and  C_29
REMARK   10  A    between atoms: C_29  and  C_30
REMARK                            x       y       z     vdW  Elec       q    Type
REMARK                         _______ _______ _______ _____ _____    ______ ____
ROOT
ATOM      1  N   UNL     1       2.358   3.681   0.046  0.00  0.00    -0.264 N 
ATOM      2  C   UNL     1       2.320   5.023  -0.093  0.00  0.00    +0.220 C 
ATOM      3  O   UNL     1       1.252   5.598  -0.129  0.00  0.00    -0.275 OA
ENDROOT
BRANCH   1   6
ATOM      4  N   UNL     1      -0.426   1.552   1.149  0.00  0.00    -0.276 N 
ATOM      5  C   UNL     1       0.748   2.269   1.181  0.00  0.00    +0.128 A 
ATOM      6  C   UNL     1       1.160   2.937   0.046  0.00  0.00    +0.140 A 
ATOM      7  C   UNL     1       0.364   2.863  -1.113  0.00  0.00    +0.277 A 
ATOM      8  O   UNL     1       0.705   3.443  -2.130  0.00  0.00    -0.266 OA
ATOM      9  N   UNL     1      -0.777   2.147  -1.091  0.00  0.00    -0.273 N 
ATOM     10  H   UNL     1      -1.342   2.091  -1.914  0.00  0.00    +0.173 HD
ATOM     11  C   UNL     1      -1.166   1.506   0.026  0.00  0.00    +0.331 A 
ATOM     12  O   UNL     1      -2.202   0.871   0.020  0.00  0.00    -0.246 OA
BRANCH   5  13
ATOM     13  N   UNL     1       1.501   2.319   2.329  0.00  0.00    -0.343 N 
ATOM     14  H   UNL     1       2.349   2.791   2.333  0.00  0.00    +0.144 HD
ATOM     15  H   UNL     1       1.186   1.882   3.135  0.00  0.00    +0.144 HD
ENDBRANCH   5  13
BRANCH   4  16
ATOM     16  C   UNL     1      -0.875   0.838   2.347  0.00  0.00    +0.163 C 
BRANCH  16  20
ATOM     17  C   UNL     1      -3.342   3.413   4.699  0.00  0.00    +0.000 A 
ATOM     18  C   UNL     1      -3.909   2.612   3.726  0.00  0.00    +0.000 A 
ATOM     19  C   UNL     1      -3.111   1.778   2.965  0.00  0.00    +0.005 A 
ATOM     20  C   UNL     1      -1.745   1.747   3.176  0.00  0.00    -0.028 A 
ATOM     21  C   UNL     1      -1.179   2.544   4.153  0.00  0.00    +0.005 A 
ATOM     22  C   UNL     1      -1.976   3.381   4.910  0.00  0.00    +0.000 A 
ENDBRANCH  16  20
ENDBRANCH   4  16
ENDBRANCH   1   6
BRANCH   1  23
ATOM     23  C   UNL     1       3.645   2.997   0.198  0.00  0.00    +0.118 C 
BRANCH  23  24
ATOM     24  C   UNL     1       4.247   2.731  -1.183  0.00  0.00    +0.050 C 
BRANCH  24  25
ATOM     25  C   UNL     1       5.571   2.027  -1.026  0.00  0.00    -0.072 C 
ATOM     26  C   UNL     1       5.584   0.735  -1.099  0.00  0.00    -0.028 C 
ATOM     27  C   UNL     1       6.820  -0.103  -0.954  0.00  0.00    +0.027 C 
ATOM     28  C   UNL     1       8.069   0.763  -1.137  0.00  0.00    +0.004 C 
ATOM     29  C   UNL     1       7.931   2.006  -0.248  0.00  0.00    +0.005 C 
ATOM     30  C   UNL     1       6.793   2.869  -0.802  0.00  0.00    +0.030 C 
ENDBRANCH  24  25
ENDBRANCH  23  24
ENDBRANCH   1  23
BRANCH   2  31
ATOM     31  C   UNL     1       3.602   5.806  -0.204  0.00  0.00    +0.101 C 
BRANCH  31  32
ATOM     32  C   UNL     1       3.280   7.294  -0.352  0.00  0.00    +0.044 C 
BRANCH  32  33
ATOM     33  C   UNL     1       4.562   8.078  -0.463  0.00  0.00    -0.047 A 
ATOM     34  C   UNL     1       5.174   8.566   0.676  0.00  0.00    +0.006 A 
ATOM     35  C   UNL     1       6.353   9.281   0.576  0.00  0.00    +0.038 A 
ATOM     36  C   UNL     1       6.915   9.516  -0.667  0.00  0.00    +0.123 A 
ATOM     37  C   UNL     1       6.298   9.031  -1.808  0.00  0.00    +0.038 A 
ATOM     38  C   UNL     1       5.123   8.312  -1.705  0.00  0.00    +0.006 A 
ATOM     39  F   UNL     1       8.065  10.219  -0.767  0.00  0.00    -0.205 F 
ENDBRANCH  32  33
ENDBRANCH  31  32
ENDBRANCH   2  31
TORSDOF 10
