REMARK  Name = ZINC60090412
REMARK  8 active torsions:
REMARK  status: ('A' for Active; 'I' for Inactive)
REMARK    1  A    between atoms: C_1  and  C_2
REMARK    2  A    between atoms: C_2  and  C_3
REMARK    3  A    between atoms: C_3  and  N_4
REMARK    4  A    between atoms: N_4  and  C_5
REMARK    5  A    between atoms: N_4  and  C_22
REMARK    6  A    between atoms: C_5  and  C_6
REMARK    7  A    between atoms: C_6  and  C_7
REMARK    8  A    between atoms: N_9  and  N_10
REMARK                            x       y       z     vdW  Elec       q    Type
REMARK                         _______ _______ _______ _____ _____    ______ ____
ROOT
ATOM      1  C   UNL     1       0.707  -1.839   1.527  0.00  0.00    +0.079 C 
ENDROOT
BRANCH   1   2
ATOM      2  C   UNL     1       1.404  -2.396   2.742  0.00  0.00    +0.228 C 
ATOM      3  O   UNL     1       0.854  -3.233   3.426  0.00  0.00    -0.274 OA
ATOM      4  N   UNL     1       2.638  -1.963   3.069  0.00  0.00    -0.224 N 
ATOM      5  H   UNL     1       3.078  -1.294   2.522  0.00  0.00    +0.174 HD
BRANCH   4   6
ATOM      6  N   UNL     1       3.286  -2.481   4.198  0.00  0.00    -0.137 N 
ATOM      7  C   UNL     1       3.426  -1.816   5.363  0.00  0.00    +0.263 C 
ATOM      8  O   UNL     1       3.032  -0.699   5.623  0.00  0.00    -0.271 OA
ATOM      9  C   UNL     1       4.179  -2.756   6.276  0.00  0.00    +0.114 C 
ATOM     10  C   UNL     1       5.511  -2.141   6.692  0.00  0.00    +0.035 C 
ATOM     11  C   UNL     1       6.269  -3.121   7.591  0.00  0.00    +0.003 C 
ATOM     12  C   UNL     1       5.425  -3.435   8.828  0.00  0.00    +0.000 C 
ATOM     13  C   UNL     1       4.103  -4.072   8.396  0.00  0.00    +0.003 C 
ATOM     14  C   UNL     1       3.336  -3.096   7.500  0.00  0.00    +0.035 C 
ATOM     15  N   UNL     1       4.399  -3.953   5.454  0.00  0.00    -0.284 N 
ATOM     16  C   UNL     1       3.837  -3.700   4.256  0.00  0.00    +0.326 C 
ATOM     17  O   UNL     1       3.833  -4.489   3.332  0.00  0.00    -0.251 OA
ATOM     18  H   UNL     1       4.856  -4.765   5.721  0.00  0.00    +0.151 HD
ENDBRANCH   4   6
ENDBRANCH   1   2
BRANCH   1  19
ATOM     19  C   UNL     1      -0.669  -2.493   1.384  0.00  0.00    -0.069 C 
BRANCH  19  20
ATOM     20  N   UNL     1      -1.291  -2.054   0.128  0.00  0.00    +0.382 N 
ATOM     21  H   UNL     1      -0.670  -2.252  -0.642  0.00  0.00    -0.081 HD
BRANCH  20  22
ATOM     22  C   UNL     1      -2.558  -2.770  -0.067  0.00  0.00    -0.064 C 
ATOM     23  C   UNL     1      -3.208  -2.321  -1.381  0.00  0.00    -0.010 C 
ATOM     24  C   UNL     1      -4.622  -2.895  -1.440  0.00  0.00    +0.034 C 
ATOM     25  C   UNL     1      -4.604  -4.377  -1.171  0.00  0.00    -0.044 A 
ATOM     26  C   UNL     1      -5.716  -5.117  -1.552  0.00  0.00    +0.004 A 
ATOM     27  C   UNL     1      -5.763  -6.478  -1.328  0.00  0.00    +0.000 A 
ATOM     28  C   UNL     1      -4.694  -7.110  -0.719  0.00  0.00    +0.000 A 
ATOM     29  C   UNL     1      -3.588  -6.377  -0.343  0.00  0.00    +0.004 A 
ATOM     30  C   UNL     1      -3.538  -5.008  -0.571  0.00  0.00    -0.046 A 
ATOM     31  C   UNL     1      -2.293  -4.272  -0.148  0.00  0.00    +0.020 C 
ENDBRANCH  20  22
BRANCH  20  32
ATOM     32  C   UNL     1      -1.550  -0.609   0.188  0.00  0.00    -0.079 C 
BRANCH  32  34
ATOM     33  C   UNL     1      -2.816   1.188   1.375  0.00  0.00    +0.002 C 
ATOM     34  C   UNL     1      -2.587  -0.321   1.275  0.00  0.00    -0.022 C 
ENDBRANCH  32  34
ENDBRANCH  20  32
ENDBRANCH  19  20
ENDBRANCH   1  19
TORSDOF 7
