REMARK  Name = ZINC01513030
REMARK  7 active torsions:
REMARK  status: ('A' for Active; 'I' for Inactive)
REMARK    1  A    between atoms: C_1  and  C_2
REMARK    2  A    between atoms: C_2  and  S_3
REMARK    3  A    between atoms: S_3  and  C_4
REMARK    4  A    between atoms: C_17  and  C_20
REMARK    5  A    between atoms: C_23  and  O_28
REMARK    6  A    between atoms: C_24  and  O_26
REMARK    7  A    between atoms: O_26  and  C_27
REMARK                            x       y       z     vdW  Elec       q    Type
REMARK                         _______ _______ _______ _____ _____    ______ ____
ROOT
ATOM      1  C   UNL     1      -5.814  -1.118  -2.110  0.00  0.00    +0.212 A 
ATOM      2  N   UNL     1      -4.542  -0.767  -1.945  0.00  0.00    -0.184 NA
ATOM      3  C   UNL     1      -4.258   0.444  -1.498  0.00  0.00    +0.248 A 
ATOM      4  C   UNL     1      -5.322   1.327  -1.204  0.00  0.00    +0.156 A 
ATOM      5  N   UNL     1      -6.567   0.916  -1.393  0.00  0.00    -0.141 NA
ATOM      6  N   UNL     1      -6.799  -0.273  -1.833  0.00  0.00    -0.122 NA
ATOM      7  C   UNL     1      -5.028   2.681  -0.691  0.00  0.00    +0.028 A 
ATOM      8  C   UNL     1      -5.638   3.810  -1.222  0.00  0.00    +0.012 A 
ATOM      9  C   UNL     1      -5.346   5.056  -0.703  0.00  0.00    +0.001 A 
ATOM     10  C   UNL     1      -4.450   5.186   0.344  0.00  0.00    +0.002 A 
ATOM     11  C   UNL     1      -3.831   4.072   0.878  0.00  0.00    +0.024 A 
ATOM     12  C   UNL     1      -4.107   2.818   0.365  0.00  0.00    +0.039 A 
ATOM     13  N   UNL     1      -3.480   1.672   0.864  0.00  0.00    -0.305 N 
ATOM     14  C   UNL     1      -2.513   0.978   0.020  0.00  0.00    +0.294 C 
ATOM     15  O   UNL     1      -2.978   0.848  -1.319  0.00  0.00    -0.449 OA
ATOM     16  H   UNL     1      -3.683   1.345   1.754  0.00  0.00    +0.150 HD
ENDROOT
BRANCH  14  17
ATOM     17  C   UNL     1      -1.219   1.751   0.017  0.00  0.00    +0.015 A 
ATOM     18  C   UNL     1      -0.786   2.375   1.173  0.00  0.00    +0.013 A 
ATOM     19  C   UNL     1       0.397   3.089   1.174  0.00  0.00    +0.049 A 
ATOM     20  C   UNL     1       1.155   3.177   0.017  0.00  0.00    +0.158 A 
ATOM     21  C   UNL     1       0.722   2.544  -1.144  0.00  0.00    +0.162 A 
ATOM     22  C   UNL     1      -0.465   1.829  -1.139  0.00  0.00    +0.058 A 
BRANCH  21  23
ATOM     23  O   UNL     1       1.463   2.626  -2.281  0.00  0.00    -0.491 OA
ATOM     24  C   UNL     1       0.957   1.952  -3.435  0.00  0.00    +0.277 C 
ENDBRANCH  21  23
BRANCH  20  25
ATOM     25  O   UNL     1       2.319   3.880   0.017  0.00  0.00    -0.503 OA
ATOM     26  H   UNL     1       2.216   4.812  -0.216  0.00  0.00    +0.292 HD
ENDBRANCH  20  25
ENDBRANCH  14  17
BRANCH   1  27
ATOM     27  S   UNL     1      -6.199  -2.731  -2.705  0.00  0.00    -0.085 S 
BRANCH  27  29
ATOM     28  C   UNL     1      -8.581  -3.964  -3.223  0.00  0.00    +0.016 C 
ATOM     29  C   UNL     1      -8.006  -2.637  -2.725  0.00  0.00    +0.074 C 
ENDBRANCH  27  29
ENDBRANCH   1  27
TORSDOF 5
