REMARK  Name = ZINC39360943
REMARK  10 active torsions:
REMARK  status: ('A' for Active; 'I' for Inactive)
REMARK    1  A    between atoms: C_1  and  C_2
REMARK    2  A    between atoms: C_2  and  O_3
REMARK    3  A    between atoms: O_3  and  C_4
REMARK    4  A    between atoms: C_4  and  C_6
REMARK    5  A    between atoms: C_8  and  N_16
REMARK    6  A    between atoms: N_16  and  C_17
REMARK    7  A    between atoms: C_17  and  N_19
REMARK    8  A    between atoms: N_19  and  C_20
REMARK    9  A    between atoms: C_23  and  O_26
REMARK   10  A    between atoms: O_26  and  C_27
REMARK                            x       y       z     vdW  Elec       q    Type
REMARK                         _______ _______ _______ _____ _____    ______ ____
ROOT
ATOM      1  N   UNL     1       3.734  -1.026  -2.560  0.00  0.00    -0.297 N 
ATOM      2  H   UNL     1       4.687  -1.059  -2.383  0.00  0.00    +0.154 HD
ENDROOT
BRANCH   1   4
ATOM      3  C   UNL     1       1.587  -2.418  -2.824  0.00  0.00    +0.234 C 
ATOM      4  C   UNL     1       3.072  -2.153  -2.933  0.00  0.00    +0.052 C 
ATOM      5  C   UNL     1       3.618  -3.297  -3.494  0.00  0.00    +0.018 A 
ATOM      6  C   UNL     1       4.943  -3.652  -3.839  0.00  0.00    +0.011 A 
ATOM      7  C   UNL     1       5.193  -4.867  -4.386  0.00  0.00    +0.001 A 
ATOM      8  C   UNL     1       4.169  -5.789  -4.621  0.00  0.00    +0.002 A 
ATOM      9  C   UNL     1       2.877  -5.517  -4.315  0.00  0.00    +0.026 A 
ATOM     10  C   UNL     1       2.536  -4.266  -3.739  0.00  0.00    +0.045 A 
ATOM     11  N   UNL     1       1.375  -3.767  -3.359  0.00  0.00    -0.367 N 
ATOM     12  H   UNL     1       0.519  -4.220  -3.422  0.00  0.00    +0.161 HD
BRANCH   3  13
ATOM     13  C   UNL     1       1.153  -2.358  -1.382  0.00  0.00    +0.336 C 
ATOM     14  O   UNL     1       0.899  -3.377  -0.785  0.00  0.00    -0.248 OA
BRANCH  13  15
ATOM     15  O   UNL     1       1.048  -1.172  -0.762  0.00  0.00    -0.463 OA
BRANCH  15  17
ATOM     16  C   UNL     1       0.572   0.243   1.138  0.00  0.00    +0.048 C 
ATOM     17  C   UNL     1       0.632  -1.190   0.605  0.00  0.00    +0.229 C 
ENDBRANCH  15  17
ENDBRANCH  13  15
ENDBRANCH   3  13
ENDBRANCH   1   4
BRANCH   1  18
ATOM     18  C   UNL     1       3.066   0.138  -2.435  0.00  0.00    +0.139 C 
ATOM     19  S   UNL     1       1.372   0.183  -2.679  0.00  0.00    -0.018 S 
BRANCH  18  20
ATOM     20  N   UNL     1       3.731   1.266  -2.118  0.00  0.00    -0.297 N 
ATOM     21  H   UNL     1       4.676   1.228  -1.901  0.00  0.00    +0.154 HD
BRANCH  20  22
ATOM     22  C   UNL     1       3.058   2.495  -2.101  0.00  0.00    +0.033 A 
ATOM     23  C   UNL     1       3.321   3.417  -1.096  0.00  0.00    +0.027 A 
ATOM     24  C   UNL     1       2.657   4.628  -1.080  0.00  0.00    +0.048 A 
ATOM     25  C   UNL     1       1.728   4.923  -2.068  0.00  0.00    +0.130 A 
ATOM     26  C   UNL     1       1.466   4.003  -3.072  0.00  0.00    +0.048 A 
ATOM     27  C   UNL     1       2.133   2.794  -3.092  0.00  0.00    +0.027 A 
BRANCH  25  28
ATOM     28  O   UNL     1       1.075   6.115  -2.051  0.00  0.00    -0.406 OA
BRANCH  28  29
ATOM     29  C   UNL     1       0.133   6.353  -3.099  0.00  0.00    +0.575 C 
ATOM     30  F   UNL     1      -0.868   5.376  -3.057  0.00  0.00    -0.133 F 
ATOM     31  F   UNL     1      -0.443   7.617  -2.930  0.00  0.00    -0.133 F 
ATOM     32  F   UNL     1       0.785   6.300  -4.335  0.00  0.00    -0.133 F 
ENDBRANCH  28  29
ENDBRANCH  25  28
ENDBRANCH  20  22
ENDBRANCH  18  20
ENDBRANCH   1  18
TORSDOF 9
