REMARK  Name = ZINC12683759
REMARK  7 active torsions:
REMARK  status: ('A' for Active; 'I' for Inactive)
REMARK    1  A    between atoms: C_1  and  C_2
REMARK    2  A    between atoms: C_7  and  N_12
REMARK    3  A    between atoms: C_9  and  C_11
REMARK    4  A    between atoms: C_16  and  C_18
REMARK    5  A    between atoms: C_18  and  N_19
REMARK    6  A    between atoms: C_22  and  C_26
REMARK    7  A    between atoms: C_22  and  C_27
REMARK                            x       y       z     vdW  Elec       q    Type
REMARK                         _______ _______ _______ _____ _____    ______ ____
ROOT
ATOM      1  C   UNL     1       3.614   2.014  -0.022  0.00  0.00    +0.214 C 
ENDROOT
BRANCH   1   2
ATOM      2  N   UNL     1       4.741   1.077  -0.037  0.00  0.00    -0.215 N 
ATOM      3  C   UNL     1       5.312   0.599  -1.160  0.00  0.00    +0.251 C 
ATOM      4  O   UNL     1       5.003   0.854  -2.305  0.00  0.00    -0.272 OA
ATOM      5  C   UNL     1       6.422  -0.322  -0.695  0.00  0.00    +0.136 C 
ATOM      6  N   UNL     1       6.340  -0.249   0.774  0.00  0.00    -0.281 N 
ATOM      7  C   UNL     1       5.333   0.595   1.061  0.00  0.00    +0.310 C 
ATOM      8  O   UNL     1       4.996   0.885   2.193  0.00  0.00    -0.252 OA
ATOM      9  C   UNL     1       7.781   0.182  -1.187  0.00  0.00    +0.047 C 
ATOM     10  H   UNL     1       6.905  -0.715   1.410  0.00  0.00    +0.152 HD
BRANCH   5  11
ATOM     11  C   UNL     1       6.177  -1.730  -1.171  0.00  0.00    +0.003 A 
ATOM     12  C   UNL     1       6.039  -2.755  -0.253  0.00  0.00    +0.009 A 
ATOM     13  C   UNL     1       5.814  -4.048  -0.689  0.00  0.00    +0.020 A 
ATOM     14  C   UNL     1       5.726  -4.316  -2.043  0.00  0.00    +0.042 A 
ATOM     15  C   UNL     1       5.864  -3.291  -2.962  0.00  0.00    +0.040 A 
ATOM     16  C   UNL     1       6.084  -1.997  -2.525  0.00  0.00    +0.048 A 
ATOM     17 CL   UNL     1       6.249  -0.708  -3.677  0.00  0.00    -0.083 Cl
ATOM     18 CL   UNL     1       5.442  -5.939  -2.590  0.00  0.00    -0.083 Cl
ENDBRANCH   5  11
ENDBRANCH   1   2
BRANCH   1  23
ATOM     19  N   UNL     1      -1.191   1.869   0.018  0.00  0.00    -0.296 N 
ATOM     20  C   UNL     1      -0.014   1.211   0.009  0.00  0.00    +0.306 C 
ATOM     21  O   UNL     1       0.002  -0.004   0.002  0.00  0.00    -0.252 OA
ATOM     22  N   UNL     1       1.143   1.901   0.001  0.00  0.00    -0.239 N 
ATOM     23  C   UNL     1       2.320   1.243  -0.013  0.00  0.00    +0.238 C 
ATOM     24  O   UNL     1       2.336   0.031  -0.020  0.00  0.00    -0.274 OA
ATOM     25  H   UNL     1      -1.204   2.839   0.023  0.00  0.00    +0.151 HD
ATOM     26  H   UNL     1       1.130   2.871   0.007  0.00  0.00    +0.159 HD
BRANCH  19  32
ATOM     27  C   UNL     1      -4.698  -0.085   1.461  0.00  0.00    +0.008 C 
ATOM     28  C   UNL     1      -4.868   1.195   0.641  0.00  0.00    -0.009 C 
ATOM     29  C   UNL     1      -5.249   0.834  -0.796  0.00  0.00    +0.003 C 
ATOM     30  C   UNL     1      -4.144  -0.025  -1.415  0.00  0.00    +0.002 C 
ATOM     31  C   UNL     1      -2.830   0.758  -1.417  0.00  0.00    +0.022 C 
ATOM     32  C   UNL     1      -2.449   1.119   0.020  0.00  0.00    +0.078 C 
ATOM     33  C   UNL     1      -3.554   1.978   0.639  0.00  0.00    +0.009 C 
ATOM     34  C   UNL     1      -3.173   2.340   2.076  0.00  0.00    +0.009 C 
ENDBRANCH  19  32
ENDBRANCH   1  23
TORSDOF 4
