REMARK  Name = ZINC40093509
REMARK  16 active torsions:
REMARK  status: ('A' for Active; 'I' for Inactive)
REMARK    1  A    between atoms: C_1  and  C_2
REMARK    2  A    between atoms: C_2  and  C_3
REMARK    3  A    between atoms: C_3  and  C_4
REMARK    4  A    between atoms: C_4  and  O_5
REMARK    5  A    between atoms: O_5  and  C_6
REMARK    6  A    between atoms: C_11  and  C_12
REMARK    7  A    between atoms: C_14  and  C_23
REMARK    8  A    between atoms: N_18  and  C_19
REMARK    9  A    between atoms: C_19  and  C_20
REMARK   10  A    between atoms: C_20  and  O_21
REMARK   11  A    between atoms: C_23  and  C_25
REMARK   12  A    between atoms: C_28  and  O_32
REMARK   13  A    between atoms: C_29  and  C_31
REMARK   14  A    between atoms: O_32  and  C_33
REMARK   15  A    between atoms: C_33  and  C_34
REMARK   16  A    between atoms: C_33  and  C_35
REMARK                            x       y       z     vdW  Elec       q    Type
REMARK                         _______ _______ _______ _____ _____    ______ ____
ROOT
ATOM      1  C   UNL     1       3.161  -3.215  -6.817  0.00  0.00    +0.148 C 
ATOM      2  C   UNL     1       1.905  -2.676  -7.461  0.00  0.00    +0.076 C 
ATOM      3  C   UNL     1       2.058  -2.821  -8.797  0.00  0.00    +0.249 C 
ATOM      4  C   UNL     1       3.373  -3.439  -9.071  0.00  0.00    +0.288 C 
ATOM      5  O   UNL     1       3.804  -3.698 -10.177  0.00  0.00    -0.266 OA
ATOM      6  N   UNL     1       4.022  -3.671  -7.915  0.00  0.00    -0.281 N 
ATOM      7  O   UNL     1       1.152  -2.459  -9.734  0.00  0.00    -0.282 OA
ENDROOT
BRANCH   1  13
ATOM      8  C   UNL     1       3.740  -4.798  -4.960  0.00  0.00    +0.126 A 
ATOM      9  C   UNL     1       3.424  -5.859  -4.123  0.00  0.00    +0.046 A 
ATOM     10  C   UNL     1       2.200  -6.489  -4.240  0.00  0.00    +0.004 A 
ATOM     11  C   UNL     1       1.290  -6.063  -5.191  0.00  0.00    +0.001 A 
ATOM     12  C   UNL     1       1.603  -5.007  -6.027  0.00  0.00    +0.009 A 
ATOM     13  C   UNL     1       2.823  -4.370  -5.910  0.00  0.00    +0.019 A 
BRANCH   8  14
ATOM     14  O   UNL     1       4.943  -4.177  -4.847  0.00  0.00    -0.492 OA
BRANCH  14  15
ATOM     15  C   UNL     1       5.808  -4.624  -3.801  0.00  0.00    +0.229 C 
BRANCH  15  16
ATOM     16  C   UNL     1       7.054  -3.737  -3.756  0.00  0.00    +0.041 C 
BRANCH  16  18
ATOM     17  C   UNL     1       9.328  -3.472  -2.755  0.00  0.00    +0.004 C 
ATOM     18  C   UNL     1       8.034  -4.287  -2.717  0.00  0.00    -0.000 C 
ENDBRANCH  16  18
ENDBRANCH  15  16
ENDBRANCH  14  15
ENDBRANCH   8  14
ENDBRANCH   1  13
BRANCH   2  19
ATOM     19  C   UNL     1       0.745  -2.105  -6.770  0.00  0.00    +0.195 C 
ATOM     20  O   UNL     1      -0.332  -2.670  -6.820  0.00  0.00    -0.287 OA
BRANCH  19  21
ATOM     21  C   UNL     1       0.882  -0.844  -6.014  0.00  0.00    +0.023 A 
ATOM     22  C   UNL     1       2.092  -0.144  -6.033  0.00  0.00    +0.015 A 
ATOM     23  C   UNL     1       2.216   1.031  -5.327  0.00  0.00    +0.046 A 
ATOM     24  C   UNL     1       1.139   1.522  -4.596  0.00  0.00    +0.124 A 
ATOM     25  C   UNL     1      -0.066   0.829  -4.575  0.00  0.00    -0.008 A 
ATOM     26  C   UNL     1      -0.200  -0.344  -5.283  0.00  0.00    +0.018 A 
ATOM     27  C   UNL     1      -1.229   1.365  -3.780  0.00  0.00    +0.047 C 
BRANCH  24  28
ATOM     28  O   UNL     1       1.265   2.681  -3.901  0.00  0.00    -0.489 OA
BRANCH  28  29
ATOM     29  C   UNL     1       2.558   3.288  -3.882  0.00  0.00    +0.167 C 
ATOM     30  C   UNL     1       2.745   4.130  -5.146  0.00  0.00    +0.051 C 
ATOM     31  C   UNL     1       2.682   4.186  -2.649  0.00  0.00    +0.051 C 
ENDBRANCH  28  29
ENDBRANCH  24  28
ENDBRANCH  19  21
ENDBRANCH   2  19
BRANCH   6  32
ATOM     32  C   UNL     1       5.351  -4.271  -7.776  0.00  0.00    +0.137 C 
BRANCH  32  33
ATOM     33  C   UNL     1       5.226  -5.796  -7.783  0.00  0.00    +0.175 C 
BRANCH  33  34
ATOM     34  O   UNL     1       4.698  -6.224  -9.040  0.00  0.00    -0.393 OA
ATOM     35  H   UNL     1       4.591  -7.182  -9.116  0.00  0.00    +0.209 HD
ENDBRANCH  33  34
ENDBRANCH  32  33
ENDBRANCH   6  32
TORSDOF 12
