REMARK  Name = ZINC40731925
REMARK  8 active torsions:
REMARK  status: ('A' for Active; 'I' for Inactive)
REMARK    1  A    between atoms: C_1  and  C_2
REMARK    2  A    between atoms: C_10  and  N_26
REMARK    3  A    between atoms: C_11  and  N_15
REMARK    4  A    between atoms: N_15  and  C_16
REMARK    5  A    between atoms: C_18  and  C_24
REMARK    6  A    between atoms: C_18  and  C_25
REMARK    7  A    between atoms: C_20  and  C_22
REMARK    8  A    between atoms: C_20  and  C_23
REMARK                            x       y       z     vdW  Elec       q    Type
REMARK                         _______ _______ _______ _____ _____    ______ ____
ROOT
ATOM      1  C   UNL     1      -1.255   0.175   2.730  0.00  0.00    +0.028 C 
ATOM      2  C   UNL     1      -0.495  -0.303   1.491  0.00  0.00    +0.072 C 
ATOM      3  C   UNL     1      -1.340  -0.046   0.239  0.00  0.00    +0.022 C 
ATOM      4  C   UNL     1      -0.521  -0.397  -1.005  0.00  0.00    +0.003 C 
ATOM      5  C   UNL     1       0.721   0.496  -1.069  0.00  0.00    +0.019 C 
ATOM      6  C   UNL     1       1.589   0.245   0.168  0.00  0.00    +0.107 C 
ATOM      7  N   UNL     1       0.769   0.437   1.372  0.00  0.00    -0.311 N 
ATOM      8  C   UNL     1       1.178   1.305   2.378  0.00  0.00    +0.147 A 
ATOM      9  C   UNL     1       2.011   0.857   3.405  0.00  0.00    +0.105 A 
ATOM     10  C   UNL     1       2.393   1.770   4.389  0.00  0.00    +0.145 A 
ATOM     11  N   UNL     1       1.952   3.023   4.312  0.00  0.00    -0.219 NA
ATOM     12  C   UNL     1       1.167   3.405   3.325  0.00  0.00    +0.225 A 
ATOM     13  N   UNL     1       0.788   2.577   2.373  0.00  0.00    -0.219 NA
ENDROOT
BRANCH   9  14
ATOM     14  N   UNL     1       2.451  -0.476   3.447  0.00  0.00    -0.353 N 
ATOM     15  H   UNL     1       2.247  -1.078   2.715  0.00  0.00    +0.143 HD
ATOM     16  H   UNL     1       2.960  -0.795   4.209  0.00  0.00    +0.143 HD
ENDBRANCH   9  14
BRANCH  10  17
ATOM     17  N   UNL     1       3.220   1.376   5.434  0.00  0.00    -0.325 N 
ATOM     18  H   UNL     1       3.536   0.460   5.484  0.00  0.00    +0.148 HD
BRANCH  17  19
ATOM     19  C   UNL     1       3.614   2.346   6.464  0.00  0.00    +0.069 C 
ATOM     20  C   UNL     1       2.547   2.377   7.560  0.00  0.00    +0.009 C 
ATOM     21  C   UNL     1       2.950   3.374   8.646  0.00  0.00    -0.072 C 
ATOM     22  N   UNL     1       4.281   3.106   9.170  0.00  0.00    +0.386 N 
ATOM     23  C   UNL     1       5.346   2.853   8.213  0.00  0.00    -0.072 C 
ATOM     24  C   UNL     1       4.935   1.903   7.093  0.00  0.00    +0.009 C 
ATOM     25  C   UNL     1       6.509   2.181   8.981  0.00  0.00    -0.010 C 
ATOM     26  C   UNL     1       5.895   4.154   7.620  0.00  0.00    -0.010 C 
ATOM     27  C   UNL     1       1.947   3.213   9.811  0.00  0.00    -0.010 C 
ATOM     28  C   UNL     1       2.814   4.805   8.126  0.00  0.00    -0.010 C 
ATOM     29  H   UNL     1       4.558   3.894   9.761  0.00  0.00    -0.084 HD
ATOM     30  H   UNL     1       4.220   2.304   9.804  0.00  0.00    -0.084 HD
ENDBRANCH  17  19
ENDBRANCH  10  17
TORSDOF 3
