REMARK  Name = ZINC36684543
REMARK  11 active torsions:
REMARK  status: ('A' for Active; 'I' for Inactive)
REMARK    1  A    between atoms: C_1  and  C_2
REMARK    2  A    between atoms: C_5  and  C_8
REMARK    3  A    between atoms: C_8  and  C_35
REMARK    4  A    between atoms: N_11  and  C_15
REMARK    5  A    between atoms: C_15  and  C_16
REMARK    6  A    between atoms: N_18  and  C_19
REMARK    7  A    between atoms: C_19  and  C_20
REMARK    8  A    between atoms: C_20  and  C_22
REMARK    9  A    between atoms: C_20  and  N_30
REMARK   10  A    between atoms: C_27  and  O_28
REMARK   11  A    between atoms: O_28  and  C_29
REMARK                            x       y       z     vdW  Elec       q    Type
REMARK                         _______ _______ _______ _____ _____    ______ ____
ROOT
ATOM      1  C   UNL     1       2.556  -7.405   1.974  0.00  0.00    +0.231 C 
ATOM      2  O   UNL     1       1.496  -7.742   1.492  0.00  0.00    -0.274 OA
ATOM      3  N   UNL     1       3.335  -8.316   2.591  0.00  0.00    -0.315 N 
ATOM      4  H   UNL     1       4.183  -8.047   2.977  0.00  0.00    +0.149 HD
ENDROOT
BRANCH   1   5
ATOM      5  C   UNL     1       3.003  -5.969   1.884  0.00  0.00    +0.213 C 
BRANCH   5   9
ATOM      6  C   UNL     1       0.182  -3.888   0.656  0.00  0.00    +0.135 C 
ATOM      7  C   UNL     1       0.956  -4.562   1.772  0.00  0.00    +0.251 C 
ATOM      8  O   UNL     1       0.699  -4.545   2.956  0.00  0.00    -0.272 OA
ATOM      9  N   UNL     1       1.989  -5.186   1.172  0.00  0.00    -0.215 N 
ATOM     10  C   UNL     1       1.976  -5.002  -0.153  0.00  0.00    +0.310 C 
ATOM     11  O   UNL     1       2.806  -5.467  -0.908  0.00  0.00    -0.252 OA
ATOM     12  N   UNL     1       0.940  -4.244  -0.555  0.00  0.00    -0.281 N 
ATOM     13  C   UNL     1      -1.244  -4.436   0.579  0.00  0.00    +0.047 C 
ATOM     14  H   UNL     1       0.733  -3.982  -1.466  0.00  0.00    +0.152 HD
BRANCH   6  19
ATOM     15  C   UNL     1       0.111   1.841   1.404  0.00  0.00    +0.044 C 
ATOM     16  C   UNL     1       0.130   0.347   1.209  0.00  0.00    -0.050 A 
ATOM     17  C   UNL     1       0.172  -0.183  -0.067  0.00  0.00    +0.004 A 
ATOM     18  C   UNL     1       0.190  -1.553  -0.246  0.00  0.00    +0.006 A 
ATOM     19  C   UNL     1       0.164  -2.394   0.852  0.00  0.00    -0.015 A 
ATOM     20  C   UNL     1       0.122  -1.864   2.127  0.00  0.00    +0.006 A 
ATOM     21  C   UNL     1       0.109  -0.493   2.306  0.00  0.00    +0.004 A 
ENDBRANCH   6  19
ENDBRANCH   5   9
ENDBRANCH   1   5
BRANCH   3  22
ATOM     22  C   UNL     1       2.901  -9.712   2.679  0.00  0.00    +0.093 C 
BRANCH  22  23
ATOM     23  C   UNL     1       4.012 -10.553   3.310  0.00  0.00    -0.017 C 
BRANCH  23  24
ATOM     24  C   UNL     1       4.223 -10.117   4.737  0.00  0.00    -0.018 A 
ATOM     25  C   UNL     1       5.200  -9.188   5.039  0.00  0.00    +0.005 A 
ATOM     26  C   UNL     1       5.394  -8.788   6.348  0.00  0.00    +0.000 A 
ATOM     27  C   UNL     1       4.611  -9.316   7.359  0.00  0.00    +0.004 A 
ATOM     28  C   UNL     1       3.633 -10.245   7.062  0.00  0.00    +0.046 A 
ATOM     29  C   UNL     1       3.433 -10.644   5.748  0.00  0.00    +0.122 A 
BRANCH  29  30
ATOM     30  O   UNL     1       2.467 -11.554   5.453  0.00  0.00    -0.495 OA
ATOM     31  C   UNL     1       1.692 -12.054   6.544  0.00  0.00    +0.277 C 
ENDBRANCH  29  30
ENDBRANCH  23  24
BRANCH  23  32
ATOM     32  N   UNL     1       5.257 -10.368   2.553  0.00  0.00    +0.385 N 
ATOM     33  C   UNL     1       6.320 -11.256   3.089  0.00  0.00    -0.078 C 
ATOM     34  C   UNL     1       7.314 -11.373   1.907  0.00  0.00    -0.020 C 
ATOM     35  C   UNL     1       6.382 -11.418   0.674  0.00  0.00    -0.020 C 
ATOM     36  C   UNL     1       5.063 -10.777   1.145  0.00  0.00    -0.078 C 
ATOM     37  H   UNL     1       5.552  -9.404   2.598  0.00  0.00    -0.081 HD
ENDBRANCH  23  32
ENDBRANCH  22  23
ENDBRANCH   3  22
TORSDOF 8
