REMARK  Name = ZINC40168439
REMARK  9 active torsions:
REMARK  status: ('A' for Active; 'I' for Inactive)
REMARK    1  A    between atoms: C_1  and  C_2
REMARK    2  A    between atoms: C_2  and  C_3
REMARK    3  A    between atoms: C_3  and  C_5
REMARK    4  A    between atoms: C_3  and  O_18
REMARK    5  A    between atoms: N_7  and  C_8
REMARK    6  A    between atoms: C_11  and  N_14
REMARK    7  A    between atoms: C_15  and  C_17
REMARK    8  A    between atoms: O_18  and  C_19
REMARK    9  A    between atoms: C_29  and  C_30
REMARK                            x       y       z     vdW  Elec       q    Type
REMARK                         _______ _______ _______ _____ _____    ______ ____
ROOT
ATOM      1  O   UNL     1      -0.332   0.342   1.846  0.00  0.00    -0.472 OA
ENDROOT
BRANCH   1   2
ATOM      2  C   UNL     1      -1.103   1.397   2.226  0.00  0.00    +0.212 A 
ATOM      3  C   UNL     1      -2.460   1.474   1.819  0.00  0.00    +0.235 A 
ATOM      4  O   UNL     1      -2.964   0.607   1.125  0.00  0.00    -0.283 OA
ATOM      5  C   UNL     1      -3.236   2.645   2.268  0.00  0.00    +0.068 A 
ATOM      6  C   UNL     1      -4.576   2.804   1.916  0.00  0.00    +0.015 A 
ATOM      7  C   UNL     1      -5.268   3.911   2.355  0.00  0.00    +0.001 A 
ATOM      8  C   UNL     1      -4.637   4.864   3.142  0.00  0.00    +0.004 A 
ATOM      9  C   UNL     1      -3.313   4.718   3.497  0.00  0.00    +0.047 A 
ATOM     10  C   UNL     1      -2.597   3.608   3.065  0.00  0.00    +0.140 A 
ATOM     11  O   UNL     1      -1.301   3.448   3.402  0.00  0.00    -0.451 OA
ATOM     12  C   UNL     1      -0.581   2.385   3.007  0.00  0.00    +0.182 A 
BRANCH  12  13
ATOM     13  C   UNL     1       0.830   2.287   3.428  0.00  0.00    +0.039 A 
ATOM     14  C   UNL     1       1.279   1.159   4.120  0.00  0.00    +0.013 A 
ATOM     15  C   UNL     1       2.599   1.073   4.510  0.00  0.00    +0.001 A 
ATOM     16  C   UNL     1       3.479   2.101   4.217  0.00  0.00    +0.001 A 
ATOM     17  C   UNL     1       3.043   3.221   3.533  0.00  0.00    +0.021 A 
ATOM     18  C   UNL     1       1.725   3.318   3.130  0.00  0.00    +0.052 A 
ATOM     19 CL   UNL     1       1.181   4.721   2.264  0.00  0.00    -0.083 Cl
ENDBRANCH  12  13
ENDBRANCH   1   2
BRANCH   1  20
ATOM     20  C   UNL     1      -0.158   0.139   0.443  0.00  0.00    +0.259 C 
BRANCH  20  21
ATOM     21  C   UNL     1       0.017  -1.333   0.167  0.00  0.00    +0.258 C 
ATOM     22  O   UNL     1       0.109  -2.116   1.088  0.00  0.00    -0.271 OA
ATOM     23  N   UNL     1       0.072  -1.778  -1.104  0.00  0.00    -0.282 N 
ATOM     24  H   UNL     1       0.083  -1.146  -1.840  0.00  0.00    +0.155 HD
BRANCH  23  25
ATOM     25  C   UNL     1       0.115  -3.154  -1.363  0.00  0.00    +0.034 A 
ATOM     26  C   UNL     1      -0.542  -4.040  -0.519  0.00  0.00    +0.025 A 
ATOM     27  C   UNL     1      -0.500  -5.396  -0.774  0.00  0.00    +0.025 A 
ATOM     28  C   UNL     1       0.198  -5.874  -1.874  0.00  0.00    +0.033 A 
ATOM     29  C   UNL     1       0.855  -4.988  -2.719  0.00  0.00    +0.025 A 
ATOM     30  C   UNL     1       0.809  -3.632  -2.467  0.00  0.00    +0.025 A 
BRANCH  28  31
ATOM     31  N   UNL     1       0.241  -7.250  -2.133  0.00  0.00    -0.286 N 
ATOM     32  C   UNL     1       1.339  -7.797  -2.691  0.00  0.00    +0.214 C 
ATOM     33  O   UNL     1       2.325  -7.117  -2.882  0.00  0.00    -0.276 OA
ATOM     34  C   UNL     1       1.341  -9.254  -3.078  0.00  0.00    +0.109 C 
ATOM     35  H   UNL     1      -0.520  -7.809  -1.910  0.00  0.00    +0.155 HD
ENDBRANCH  28  31
ENDBRANCH  23  25
ENDBRANCH  20  21
BRANCH  20  37
ATOM     36  C   UNL     1       0.836   2.403   0.087  0.00  0.00    +0.008 C 
ATOM     37  C   UNL     1       1.083   0.898  -0.033  0.00  0.00    +0.051 C 
ENDBRANCH  20  37
ENDBRANCH   1  20
TORSDOF 7
