REMARK  Name = ZINC65888034
REMARK  6 active torsions:
REMARK  status: ('A' for Active; 'I' for Inactive)
REMARK    1  A    between atoms: C_1  and  N_2
REMARK    2  A    between atoms: C_3  and  C_5
REMARK    3  A    between atoms: C_5  and  N_6
REMARK    4  A    between atoms: N_15  and  C_25
REMARK    5  A    between atoms: C_16  and  C_17
REMARK    6  A    between atoms: C_20  and  O_24
REMARK                            x       y       z     vdW  Elec       q    Type
REMARK                         _______ _______ _______ _____ _____    ______ ____
ROOT
ATOM      1  N   UNL     1       1.394  -2.651  -2.189  0.00  0.00    -0.298 N 
ATOM      2  C   UNL     1       0.813  -2.863  -3.435  0.00  0.00    +0.044 A 
ATOM      3  C   UNL     1      -0.293  -2.144  -3.855  0.00  0.00    +0.024 A 
ATOM      4  C   UNL     1      -0.842  -2.398  -5.097  0.00  0.00    +0.002 A 
ATOM      5  C   UNL     1      -0.294  -3.365  -5.925  0.00  0.00    +0.001 A 
ATOM      6  C   UNL     1       0.810  -4.087  -5.524  0.00  0.00    +0.015 A 
ATOM      7  C   UNL     1       1.377  -3.838  -4.275  0.00  0.00    +0.058 A 
ATOM      8  C   UNL     1       2.571  -4.566  -3.811  0.00  0.00    +0.250 C 
ATOM      9  O   UNL     1       2.987  -5.524  -4.433  0.00  0.00    -0.270 OA
ATOM     10  N   UNL     1       3.200  -4.158  -2.690  0.00  0.00    -0.278 N 
ATOM     11  C   UNL     1       2.831  -2.903  -2.027  0.00  0.00    +0.195 C 
ATOM     12  C   UNL     1       4.272  -4.982  -2.127  0.00  0.00    +0.134 C 
ENDROOT
BRANCH  11  13
ATOM     13  C   UNL     1       3.609  -1.765  -2.636  0.00  0.00    -0.007 A 
ATOM     14  C   UNL     1       3.127  -0.472  -2.543  0.00  0.00    +0.011 A 
ATOM     15  C   UNL     1       3.838   0.574  -3.100  0.00  0.00    +0.047 A 
ATOM     16  C   UNL     1       5.036   0.326  -3.753  0.00  0.00    +0.135 A 
ATOM     17  C   UNL     1       5.518  -0.973  -3.845  0.00  0.00    +0.083 A 
ATOM     18  C   UNL     1       4.806  -2.014  -3.281  0.00  0.00    +0.030 A 
ATOM     19 CL   UNL     1       7.018  -1.287  -4.661  0.00  0.00    -0.080 Cl
BRANCH  16  20
ATOM     20  O   UNL     1       5.737   1.353  -4.302  0.00  0.00    -0.505 OA
ATOM     21  H   UNL     1       6.377   1.759  -3.701  0.00  0.00    +0.292 HD
ENDBRANCH  16  20
ENDBRANCH  11  13
BRANCH   1  22
ATOM     22  C   UNL     1       0.588  -2.178  -1.061  0.00  0.00    +0.202 C 
BRANCH  22  25
ATOM     23  C   UNL     1      -0.987  -4.304   1.705  0.00  0.00    +0.128 C 
ATOM     24  N   UNL     1      -0.542  -3.158   0.909  0.00  0.00    -0.317 N 
ATOM     25  C   UNL     1       0.130  -3.357  -0.242  0.00  0.00    +0.230 C 
ATOM     26  O   UNL     1       0.368  -4.486  -0.618  0.00  0.00    -0.274 OA
ATOM     27  H   UNL     1      -0.732  -2.256   1.210  0.00  0.00    +0.148 HD
ENDBRANCH  22  25
ENDBRANCH   1  22
TORSDOF 4
