REMARK  Name = ZINC08834619
REMARK  7 active torsions:
REMARK  status: ('A' for Active; 'I' for Inactive)
REMARK    1  A    between atoms: C_4  and  N_7
REMARK    2  A    between atoms: C_8  and  S_12
REMARK    3  A    between atoms: S_12  and  C_13
REMARK    4  A    between atoms: C_15  and  N_24
REMARK    5  A    between atoms: C_22  and  O_23
REMARK    6  A    between atoms: N_24  and  S_25
REMARK    7  A    between atoms: S_25  and  C_28
REMARK                            x       y       z     vdW  Elec       q    Type
REMARK                         _______ _______ _______ _____ _____    ______ ____
ROOT
ATOM      1  C   UNL     1       3.690   2.591   0.033  0.00  0.00    +0.059 A 
ATOM      2  C   UNL     1       2.510   3.330   0.164  0.00  0.00    +0.044 A 
ATOM      3  C   UNL     1       2.537   4.706   0.149  0.00  0.00    +0.057 A 
ATOM      4  C   UNL     1       3.765   5.381  -0.013  0.00  0.00    +0.008 A 
ATOM      5  C   UNL     1       3.825   6.783  -0.039  0.00  0.00    +0.010 A 
ATOM      6  C   UNL     1       5.026   7.405  -0.197  0.00  0.00    +0.001 A 
ATOM      7  C   UNL     1       6.202   6.670  -0.333  0.00  0.00    +0.001 A 
ATOM      8  C   UNL     1       6.183   5.309  -0.313  0.00  0.00    +0.012 A 
ATOM      9  C   UNL     1       4.961   4.632  -0.152  0.00  0.00    +0.026 A 
ATOM     10  C   UNL     1       4.907   3.227  -0.127  0.00  0.00    +0.138 A 
ENDROOT
BRANCH  10  11
ATOM     11  O   UNL     1       6.047   2.496  -0.259  0.00  0.00    -0.505 OA
ATOM     12  H   UNL     1       6.268   2.273  -1.173  0.00  0.00    +0.292 HD
ENDBRANCH  10  11
BRANCH   3  13
ATOM     13  N   UNL     1       1.351   5.432   0.287  0.00  0.00    -0.216 N 
ATOM     14  H   UNL     1       1.028   5.977  -0.448  0.00  0.00    +0.174 HD
BRANCH  13  15
ATOM     15  S   UNL     1       0.497   5.361   1.704  0.00  0.00    +0.072 S 
ATOM     16  O   UNL     1      -0.603   6.249   1.560  0.00  0.00    -0.150 OA
ATOM     17  O   UNL     1       0.330   3.983   2.009  0.00  0.00    -0.150 OA
BRANCH  15  18
ATOM     18  C   UNL     1       1.526   6.034   2.966  0.00  0.00    +0.109 A 
ATOM     19  C   UNL     1       2.373   5.208   3.680  0.00  0.00    +0.030 A 
ATOM     20  C   UNL     1       3.185   5.737   4.667  0.00  0.00    +0.022 A 
ATOM     21  C   UNL     1       3.140   7.091   4.947  0.00  0.00    +0.041 A 
ATOM     22  C   UNL     1       2.288   7.916   4.235  0.00  0.00    +0.022 A 
ATOM     23  C   UNL     1       1.481   7.388   3.245  0.00  0.00    +0.030 A 
ATOM     24 CL   UNL     1       4.154   7.755   6.190  0.00  0.00    -0.084 Cl
ENDBRANCH  15  18
ENDBRANCH  13  15
ENDBRANCH   3  13
BRANCH   1  25
ATOM     25  S   UNL     1       3.623   0.831   0.063  0.00  0.00    -0.044 S 
BRANCH  25  27
ATOM     26  N   UNL     1       4.330  -0.679   2.308  0.00  0.00    -0.187 N 
ATOM     27  C   UNL     1       4.242   0.529   1.685  0.00  0.00    +0.219 A 
ATOM     28  N   UNL     1       4.709   1.428   2.525  0.00  0.00    -0.101 NA
ATOM     29  N   UNL     1       5.079   0.872   3.621  0.00  0.00    -0.022 NA
ATOM     30  N   UNL     1       4.883  -0.401   3.570  0.00  0.00    -0.038 NA
BRANCH  26  34
ATOM     31  C   UNL     1       3.200  -4.397   0.798  0.00  0.00    +0.000 A 
ATOM     32  C   UNL     1       4.302  -4.295   1.628  0.00  0.00    +0.002 A 
ATOM     33  C   UNL     1       4.679  -3.065   2.129  0.00  0.00    +0.028 A 
ATOM     34  C   UNL     1       3.950  -1.930   1.800  0.00  0.00    +0.070 A 
ATOM     35  C   UNL     1       2.842  -2.036   0.971  0.00  0.00    +0.028 A 
ATOM     36  C   UNL     1       2.473  -3.269   0.468  0.00  0.00    +0.002 A 
ENDBRANCH  26  34
ENDBRANCH  25  27
ENDBRANCH   1  25
TORSDOF 7
