REMARK  Name = ZINC50283918
REMARK  4 active torsions:
REMARK  status: ('A' for Active; 'I' for Inactive)
REMARK    1  A    between atoms: C_4  and  C_7
REMARK    2  A    between atoms: C_7  and  C_9
REMARK    3  A    between atoms: C_7  and  N_22
REMARK    4  A    between atoms: C_12  and  C_14
REMARK                            x       y       z     vdW  Elec       q    Type
REMARK                         _______ _______ _______ _____ _____    ______ ____
ROOT
ATOM      1  C   UNL     1       4.044  -1.175   1.356  0.00  0.00    +0.208 A 
ATOM      2  N   UNL     1       3.496  -2.178   1.982  0.00  0.00    -0.114 NA
ATOM      3  N   UNL     1       4.020  -2.293   3.152  0.00  0.00    -0.107 NA
ATOM      4  C   UNL     1       4.928  -1.359   3.313  0.00  0.00    +0.251 A 
ATOM      5  O   UNL     1       4.963  -0.636   2.176  0.00  0.00    -0.422 OA
ENDROOT
BRANCH   4   6
ATOM      6  C   UNL     1       5.760  -1.143   4.515  0.00  0.00    +0.075 A 
ATOM      7  C   UNL     1       6.686  -0.098   4.549  0.00  0.00    +0.055 A 
ATOM      8  C   UNL     1       7.460   0.098   5.676  0.00  0.00    +0.021 A 
ATOM      9  C   UNL     1       7.319  -0.737   6.770  0.00  0.00    +0.003 A 
ATOM     10  C   UNL     1       6.404  -1.774   6.743  0.00  0.00    +0.021 A 
ATOM     11  C   UNL     1       5.619  -1.979   5.625  0.00  0.00    +0.055 A 
ATOM     12 CL   UNL     1       4.466  -3.276   5.597  0.00  0.00    -0.083 Cl
ATOM     13 CL   UNL     1       6.865   0.951   3.177  0.00  0.00    -0.083 Cl
ENDBRANCH   4   6
BRANCH   1  14
ATOM     14  C   UNL     1       3.711  -0.707  -0.038  0.00  0.00    +0.045 C 
BRANCH  14  18
ATOM     15  C   UNL     1      -0.017   1.378   0.010  0.00  0.00    +0.000 A 
ATOM     16  C   UNL     1       1.171   2.086   0.002  0.00  0.00    +0.000 A 
ATOM     17  C   UNL     1       2.377   1.411  -0.013  0.00  0.00    +0.002 A 
ATOM     18  C   UNL     1       2.396   0.029  -0.020  0.00  0.00    -0.053 A 
ATOM     19  C   UNL     1       1.208  -0.679  -0.012  0.00  0.00    +0.002 A 
ATOM     20  C   UNL     1       0.002  -0.004   0.002  0.00  0.00    +0.000 A 
ENDBRANCH  14  18
BRANCH  14  21
ATOM     21  N   UNL     1       3.611  -1.868  -0.933  0.00  0.00    +0.388 N 
ATOM     22  H   UNL     1       4.492  -2.360  -0.944  0.00  0.00    -0.088 HD
ATOM     23  H   UNL     1       2.885  -2.485  -0.603  0.00  0.00    -0.088 HD
ATOM     24  H   UNL     1       3.389  -1.555  -1.866  0.00  0.00    -0.088 HD
ENDBRANCH  14  21
ENDBRANCH   1  14
TORSDOF 4
