REMARK  Name = ZINC20738240
REMARK  9 active torsions:
REMARK  status: ('A' for Active; 'I' for Inactive)
REMARK    1  A    between atoms: C_1  and  C_2
REMARK    2  A    between atoms: C_2  and  C_3
REMARK    3  A    between atoms: C_3  and  C_5
REMARK    4  A    between atoms: C_3  and  C_6
REMARK    5  A    between atoms: C_6  and  C_8
REMARK    6  A    between atoms: C_6  and  N_12
REMARK    7  A    between atoms: C_8  and  O_10
REMARK    8  A    between atoms: O_10  and  C_11
REMARK    9  A    between atoms: C_24  and  C_26
REMARK                            x       y       z     vdW  Elec       q    Type
REMARK                         _______ _______ _______ _____ _____    ______ ____
ROOT
ATOM      1  N   UNL     1      -2.076  -4.175  -0.359  0.00  0.00    -0.286 N 
ATOM      2  C   UNL     1      -2.726  -3.098   0.124  0.00  0.00    +0.304 C 
ATOM      3  O   UNL     1      -2.111  -2.080   0.376  0.00  0.00    -0.253 OA
ATOM      4  N   UNL     1      -4.057  -3.149   0.328  0.00  0.00    -0.273 N 
ATOM      5  C   UNL     1      -4.801  -1.955   0.754  0.00  0.00    +0.116 C 
ATOM      6  C   UNL     1      -5.793  -1.559  -0.347  0.00  0.00    +0.076 C 
ATOM      7  C   UNL     1      -6.505  -2.799  -0.829  0.00  0.00    +0.066 A 
ATOM      8  C   UNL     1      -6.066  -4.059  -0.623  0.00  0.00    +0.064 A 
ATOM      9  N   UNL     1      -6.963  -4.899  -1.205  0.00  0.00    -0.346 N 
ATOM     10  H   UNL     1      -6.918  -5.868  -1.226  0.00  0.00    +0.167 HD
ATOM     11  C   UNL     1      -7.931  -4.126  -1.750  0.00  0.00    +0.197 A 
ATOM     12  N   UNL     1      -7.647  -2.871  -1.519  0.00  0.00    -0.240 NA
ATOM     13  C   UNL     1      -4.806  -4.403   0.123  0.00  0.00    +0.156 C 
ATOM     14  H   UNL     1      -2.552  -5.010  -0.490  0.00  0.00    +0.151 HD
ENDROOT
BRANCH  13  15
ATOM     15  C   UNL     1      -5.155  -5.015   1.456  0.00  0.00    -0.021 A 
ATOM     16  C   UNL     1      -6.011  -4.355   2.317  0.00  0.00    +0.007 A 
ATOM     17  C   UNL     1      -6.331  -4.916   3.538  0.00  0.00    +0.020 A 
ATOM     18  C   UNL     1      -5.795  -6.139   3.900  0.00  0.00    +0.041 A 
ATOM     19  C   UNL     1      -4.938  -6.800   3.037  0.00  0.00    +0.020 A 
ATOM     20  C   UNL     1      -4.623  -6.240   1.813  0.00  0.00    +0.007 A 
ATOM     21 CL   UNL     1      -6.196  -6.844   5.434  0.00  0.00    -0.084 Cl
ENDBRANCH  13  15
BRANCH   1  22
ATOM     22  C   UNL     1      -0.651  -4.085  -0.687  0.00  0.00    +0.186 C 
BRANCH  22  23
ATOM     23  C   UNL     1      -0.020  -5.476  -0.606  0.00  0.00    +0.017 C 
ATOM     24  C   UNL     1      -0.734  -6.418  -1.578  0.00  0.00    +0.010 C 
BRANCH  23  26
ATOM     25  C   UNL     1       0.564  -7.361   0.927  0.00  0.00    +0.004 C 
ATOM     26  C   UNL     1      -0.157  -6.016   0.820  0.00  0.00    +0.002 C 
ENDBRANCH  23  26
ENDBRANCH  22  23
BRANCH  22  27
ATOM     27  C   UNL     1      -0.490  -3.542  -2.084  0.00  0.00    +0.328 C 
ATOM     28  O   UNL     1      -1.425  -3.558  -2.850  0.00  0.00    -0.249 OA
BRANCH  27  29
ATOM     29  O   UNL     1       0.691  -3.039  -2.477  0.00  0.00    -0.467 OA
ATOM     30  C   UNL     1       0.771  -2.541  -3.814  0.00  0.00    +0.280 C 
ENDBRANCH  27  29
ENDBRANCH  22  27
ENDBRANCH   1  22
TORSDOF 6
