REMARK  Name = ZINC53856473
REMARK  3 active torsions:
REMARK  status: ('A' for Active; 'I' for Inactive)
REMARK    1  A    between atoms: C_6  and  N_7
REMARK    2  A    between atoms: C_14  and  C_16
REMARK    3  A    between atoms: C_16  and  C_17
REMARK                            x       y       z     vdW  Elec       q    Type
REMARK                         _______ _______ _______ _____ _____    ______ ____
ROOT
ATOM      1  C   UNL     1      -0.017   1.384   0.010  0.00  0.00    +0.035 A 
ATOM      2  C   UNL     1       1.156   2.106   0.002  0.00  0.00    +0.031 A 
ATOM      3  C   UNL     1       2.380   1.435  -0.013  0.00  0.00    +0.078 A 
ATOM      4  C   UNL     1       2.396   0.022  -0.021  0.00  0.00    +0.067 A 
ATOM      5  C   UNL     1       1.198  -0.689  -0.013  0.00  0.00    +0.048 A 
ATOM      6  C   UNL     1       0.002  -0.004   0.002  0.00  0.00    +0.127 A 
ATOM      7  C   UNL     1       3.702  -0.653  -0.037  0.00  0.00    +0.259 A 
ATOM      8  O   UNL     1       3.785  -1.868  -0.045  0.00  0.00    -0.267 OA
ATOM      9  N   UNL     1       4.807   0.127  -0.044  0.00  0.00    -0.310 N 
ATOM     10  H   UNL     1       5.686  -0.284  -0.056  0.00  0.00    +0.170 HD
ATOM     11  C   UNL     1       4.698   1.481  -0.036  0.00  0.00    +0.115 A 
ATOM     12  N   UNL     1       3.559   2.106  -0.021  0.00  0.00    -0.233 NA
ENDROOT
BRANCH   6  13
ATOM     13  N   UNL     1      -1.273  -0.755   0.011  0.00  0.00    +0.056 N 
ATOM     14  O   UNL     1      -2.325  -0.160   0.024  0.00  0.00    -0.126 OA
ATOM     15  O   UNL     1      -1.263  -1.964   0.004  0.00  0.00    -0.126 OA
ENDBRANCH   6  13
BRANCH  11  16
ATOM     16  C   UNL     1       5.963   2.301  -0.044  0.00  0.00    +0.110 C 
BRANCH  16  17
ATOM     17  C   UNL     1       5.612   3.766  -0.033  0.00  0.00    -0.022 A 
ATOM     18  C   UNL     1       5.535   4.468  -1.221  0.00  0.00    +0.007 A 
ATOM     19  C   UNL     1       5.213   5.812  -1.212  0.00  0.00    +0.020 A 
ATOM     20  C   UNL     1       4.967   6.456  -0.012  0.00  0.00    +0.042 A 
ATOM     21  C   UNL     1       5.044   5.755   1.178  0.00  0.00    +0.040 A 
ATOM     22  C   UNL     1       5.361   4.408   1.167  0.00  0.00    +0.046 A 
ATOM     23 CL   UNL     1       5.451   3.526   2.659  0.00  0.00    -0.083 Cl
ATOM     24 CL   UNL     1       4.564   8.145   0.000  0.00  0.00    -0.083 Cl
ENDBRANCH  16  17
ENDBRANCH  11  16
TORSDOF 3
