REMARK  Name = ZINC00861435
REMARK  9 active torsions:
REMARK  status: ('A' for Active; 'I' for Inactive)
REMARK    1  A    between atoms: C_1  and  C_2
REMARK    2  A    between atoms: C_3  and  C_24
REMARK    3  A    between atoms: C_4  and  C_14
REMARK    4  A    between atoms: C_16  and  O_22
REMARK    5  A    between atoms: C_17  and  O_21
REMARK    6  A    between atoms: O_22  and  C_23
REMARK    7  A    between atoms: C_24  and  O_26
REMARK    8  A    between atoms: O_26  and  C_27
REMARK    9  A    between atoms: C_27  and  C_28
REMARK                            x       y       z     vdW  Elec       q    Type
REMARK                         _______ _______ _______ _____ _____    ______ ____
ROOT
ATOM      1  C   UNL     1       2.100   7.057  -2.535  0.00  0.00    +0.061 C 
ATOM      2  C   UNL     1       2.158   6.317  -1.223  0.00  0.00    +0.016 C 
ATOM      3  C   UNL     1       2.372   4.990  -1.213  0.00  0.00    +0.065 C 
ATOM      4  C   UNL     1       2.428   4.220   0.073  0.00  0.00    +0.092 C 
ATOM      5  C   UNL     1       2.651   5.143   1.245  0.00  0.00    +0.024 C 
ATOM      6  C   UNL     1       2.420   6.467   1.135  0.00  0.00    +0.015 C 
ATOM      7  N   UNL     1       1.992   7.001  -0.051  0.00  0.00    -0.321 N 
ATOM      8  C   UNL     1       2.622   7.392   2.310  0.00  0.00    +0.051 C 
ATOM      9  C   UNL     1       3.742   6.852   3.201  0.00  0.00    +0.014 C 
ATOM     10  C   UNL     1       3.361   5.441   3.662  0.00  0.00    +0.080 C 
ATOM     11  C   UNL     1       3.107   4.583   2.453  0.00  0.00    +0.162 C 
ATOM     12  O   UNL     1       3.299   3.385   2.521  0.00  0.00    -0.292 OA
ATOM     13  H   UNL     1       1.510   7.990  -0.054  0.00  0.00    +0.152 HD
ENDROOT
BRANCH   4  14
ATOM     14  C   UNL     1       1.128   3.482   0.265  0.00  0.00    -0.030 A 
ATOM     15  C   UNL     1       1.125   2.101   0.348  0.00  0.00    +0.054 A 
ATOM     16  C   UNL     1      -0.068   1.420   0.525  0.00  0.00    +0.163 A 
ATOM     17  C   UNL     1      -1.263   2.127   0.612  0.00  0.00    +0.177 A 
ATOM     18  C   UNL     1      -1.253   3.511   0.534  0.00  0.00    +0.086 A 
ATOM     19  C   UNL     1      -0.058   4.185   0.357  0.00  0.00    +0.028 A 
ATOM     20 CL   UNL     1      -2.741   4.399   0.650  0.00  0.00    -0.080 Cl
BRANCH  17  21
ATOM     21  O   UNL     1      -2.438   1.463   0.780  0.00  0.00    -0.502 OA
ATOM     22  H   UNL     1      -3.382   2.023   0.849  0.00  0.00    +0.292 HD
ENDBRANCH  17  21
BRANCH  16  23
ATOM     23  O   UNL     1      -0.072   0.063   0.607  0.00  0.00    -0.491 OA
ATOM     24  C   UNL     1       1.191  -0.597   0.503  0.00  0.00    +0.277 C 
ENDBRANCH  16  23
ENDBRANCH   4  14
BRANCH   3  25
ATOM     25  C   UNL     1       2.547   4.307  -2.439  0.00  0.00    +0.338 C 
ATOM     26  O   UNL     1       3.655   3.929  -2.772  0.00  0.00    -0.245 OA
BRANCH  25  27
ATOM     27  O   UNL     1       1.486   4.074  -3.240  0.00  0.00    -0.459 OA
BRANCH  27  28
ATOM     28  C   UNL     1       1.736   3.378  -4.463  0.00  0.00    +0.264 C 
BRANCH  28  29
ATOM     29  C   UNL     1       0.423   3.208  -5.230  0.00  0.00    +0.156 C 
ATOM     30  C   UNL     1       0.664   2.358  -6.496  0.00  0.00    +0.037 C 
ATOM     31  C   UNL     1      -0.236   3.067  -7.545  0.00  0.00    +0.031 C 
ATOM     32  C   UNL     1      -0.114   4.542  -7.088  0.00  0.00    +0.160 C 
ATOM     33  O   UNL     1      -0.062   4.488  -5.653  0.00  0.00    -0.373 OA
ENDBRANCH  28  29
ENDBRANCH  27  28
ENDBRANCH  25  27
ENDBRANCH   3  25
TORSDOF 7
