REMARK  Name = ZINC53161025
REMARK  4 active torsions:
REMARK  status: ('A' for Active; 'I' for Inactive)
REMARK    1  A    between atoms: C_3  and  C_8
REMARK    2  A    between atoms: C_8  and  N_9
REMARK    3  A    between atoms: C_10  and  C_14
REMARK    4  A    between atoms: C_18  and  N_20
REMARK                            x       y       z     vdW  Elec       q    Type
REMARK                         _______ _______ _______ _____ _____    ______ ____
ROOT
ATOM      1  N   UNL     1       3.731   2.278   1.604  0.00  0.00    -0.221 N 
ATOM      2  C   UNL     1       3.869   3.528   2.112  0.00  0.00    +0.182 A 
ATOM      3  N   UNL     1       4.798   3.466   3.042  0.00  0.00    -0.108 NA
ATOM      4  N   UNL     1       5.248   2.268   3.149  0.00  0.00    -0.023 NA
ATOM      5  N   UNL     1       4.649   1.488   2.316  0.00  0.00    -0.043 NA
ENDROOT
BRANCH   2   6
ATOM      6  C   UNL     1       3.116   4.734   1.699  0.00  0.00    +0.023 A 
ATOM      7  C   UNL     1       2.778   5.705   2.643  0.00  0.00    +0.014 A 
ATOM      8  C   UNL     1       2.077   6.828   2.256  0.00  0.00    +0.041 A 
ATOM      9  C   UNL     1       1.706   6.997   0.933  0.00  0.00    +0.144 A 
ATOM     10  C   UNL     1       2.039   6.033  -0.014  0.00  0.00    +0.061 A 
ATOM     11  C   UNL     1       2.749   4.905   0.365  0.00  0.00    +0.037 A 
ATOM     12  F   UNL     1       1.019   8.099   0.561  0.00  0.00    -0.204 F 
BRANCH  10  13
ATOM     13  N   UNL     1       1.661   6.206  -1.350  0.00  0.00    -0.356 N 
ATOM     14  H   UNL     1       1.168   6.997  -1.616  0.00  0.00    +0.142 HD
ATOM     15  H   UNL     1       1.893   5.534  -2.010  0.00  0.00    +0.142 HD
ENDBRANCH  10  13
ENDBRANCH   2   6
BRANCH   1  16
ATOM     16  C   UNL     1       2.817   1.844   0.545  0.00  0.00    +0.182 C 
BRANCH  16  19
ATOM     17  C   UNL     1      -0.660   1.596   1.997  0.00  0.00    +0.002 A 
ATOM     18  C   UNL     1       0.491   2.112   1.430  0.00  0.00    +0.005 A 
ATOM     19  C   UNL     1       1.563   1.281   1.163  0.00  0.00    -0.025 A 
ATOM     20  C   UNL     1       1.485  -0.066   1.464  0.00  0.00    +0.025 A 
ATOM     21  C   UNL     1       0.334  -0.583   2.031  0.00  0.00    +0.041 A 
ATOM     22  C   UNL     1      -0.739   0.249   2.298  0.00  0.00    +0.020 A 
ATOM     23 CL   UNL     1       0.236  -2.275   2.408  0.00  0.00    -0.084 Cl
ENDBRANCH  16  19
ENDBRANCH   1  16
TORSDOF 4
