REMARK  Name = ZINC39886000
REMARK  3 active torsions:
REMARK  status: ('A' for Active; 'I' for Inactive)
REMARK    1  A    between atoms: C_1  and  C_2
REMARK    2  A    between atoms: C_2  and  C_3
REMARK    3  A    between atoms: C_14  and  C_16
REMARK                            x       y       z     vdW  Elec       q    Type
REMARK                         _______ _______ _______ _____ _____    ______ ____
ROOT
ATOM      1  C   UNL     1      -1.433  -0.534   0.013  0.00  0.00    +0.140 C 
ATOM      2  C   UNL     1      -1.468  -2.084  -0.006  0.00  0.00    +0.280 C 
ATOM      3  N   UNL     1      -1.521  -2.630   1.336  0.00  0.00    -0.251 N 
ATOM      4  C   UNL     1      -1.938  -1.859   2.360  0.00  0.00    +0.276 C 
ATOM      5  O   UNL     1      -2.074  -2.187   3.523  0.00  0.00    -0.263 OA
ATOM      6  S   UNL     1      -2.246  -0.252   1.643  0.00  0.00    -0.057 S 
ATOM      7  N   UNL     1      -2.632  -2.517  -0.787  0.00  0.00    -0.190 N 
ATOM      8  C   UNL     1      -2.835  -3.948  -1.111  0.00  0.00    +0.138 C 
ATOM      9  C   UNL     1      -3.873  -3.895  -2.240  0.00  0.00    +0.086 C 
ATOM     10  C   UNL     1      -4.354  -2.459  -2.216  0.00  0.00    +0.069 C 
ATOM     11  N   UNL     1      -3.636  -1.778  -1.384  0.00  0.00    -0.183 NA
ATOM     12  C   UNL     1      -1.499  -4.473  -1.570  0.00  0.00    +0.017 A 
ATOM     13  C   UNL     1      -1.444  -5.666  -2.265  0.00  0.00    +0.009 A 
ATOM     14  C   UNL     1      -0.230  -6.177  -2.683  0.00  0.00    +0.001 A 
ATOM     15  C   UNL     1       0.936  -5.489  -2.400  0.00  0.00    +0.004 A 
ATOM     16  C   UNL     1       0.885  -4.297  -1.712  0.00  0.00    +0.046 A 
ATOM     17  C   UNL     1      -0.336  -3.768  -1.295  0.00  0.00    +0.130 A 
ATOM     18  O   UNL     1      -0.309  -2.558  -0.699  0.00  0.00    -0.449 OA
ATOM     19  H   UNL     1      -1.258  -3.550   1.497  0.00  0.00    +0.155 HD
ENDROOT
BRANCH  10  20
ATOM     20  C   UNL     1      -5.468  -1.920  -3.019  0.00  0.00    -0.002 A 
ATOM     21  C   UNL     1      -6.178  -2.756  -3.884  0.00  0.00    +0.010 A 
ATOM     22  C   UNL     1      -7.219  -2.246  -4.632  0.00  0.00    +0.001 A 
ATOM     23  C   UNL     1      -7.560  -0.909  -4.526  0.00  0.00    +0.000 A 
ATOM     24  C   UNL     1      -6.861  -0.075  -3.672  0.00  0.00    +0.001 A 
ATOM     25  C   UNL     1      -5.822  -0.573  -2.913  0.00  0.00    +0.010 A 
ENDBRANCH  10  20
BRANCH   1  27
ATOM     26  C   UNL     1      -0.019   1.526   0.010  0.00  0.00    +0.005 C 
ATOM     27  C   UNL     1       0.002  -0.004   0.002  0.00  0.00    +0.019 C 
ENDBRANCH   1  27
TORSDOF 2
