REMARK  Name = ZINC66907707
REMARK  7 active torsions:
REMARK  status: ('A' for Active; 'I' for Inactive)
REMARK    1  A    between atoms: C_1  and  C_2
REMARK    2  A    between atoms: N_8  and  C_9
REMARK    3  A    between atoms: C_9  and  C_10
REMARK    4  A    between atoms: C_10  and  N_11
REMARK    5  A    between atoms: C_17  and  N_20
REMARK    6  A    between atoms: C_21  and  C_23
REMARK    7  A    between atoms: C_23  and  C_24
REMARK                            x       y       z     vdW  Elec       q    Type
REMARK                         _______ _______ _______ _____ _____    ______ ____
ROOT
ATOM      1  N   UNL     1       1.908  -0.770   6.153  0.00  0.00    -0.301 N 
ATOM      2  C   UNL     1       0.777  -0.045   6.046  0.00  0.00    +0.302 C 
ATOM      3  O   UNL     1       0.339   0.240   4.949  0.00  0.00    -0.253 OA
ATOM      4  N   UNL     1       0.131   0.365   7.157  0.00  0.00    -0.286 N 
ATOM      5  C   UNL     1      -1.162   1.055   7.059  0.00  0.00    +0.111 C 
ATOM      6  C   UNL     1      -2.179   0.324   7.941  0.00  0.00    +0.041 C 
ATOM      7  C   UNL     1      -1.629   0.218   9.365  0.00  0.00    +0.076 C 
ATOM      8  C   UNL     1      -0.330  -0.591   9.354  0.00  0.00    +0.041 C 
ATOM      9  C   UNL     1       0.705   0.124   8.488  0.00  0.00    +0.111 C 
ATOM     10  H   UNL     1       2.297  -0.935   7.026  0.00  0.00    +0.150 HD
ENDROOT
BRANCH   7  11
ATOM     11  N   UNL     1      -2.614  -0.451  10.220  0.00  0.00    -0.312 N 
ATOM     12  C   UNL     1      -2.613  -0.230  11.549  0.00  0.00    +0.214 C 
ATOM     13  O   UNL     1      -1.798   0.524  12.038  0.00  0.00    -0.276 OA
ATOM     14  H   UNL     1      -3.265  -1.054   9.829  0.00  0.00    +0.149 HD
BRANCH  12  15
ATOM     15  C   UNL     1      -3.626  -0.918  12.428  0.00  0.00    +0.099 C 
BRANCH  15  16
ATOM     16  C   UNL     1      -3.409  -0.497  13.883  0.00  0.00    -0.002 C 
ATOM     17  C   UNL     1      -2.046  -1.002  14.362  0.00  0.00    +0.004 C 
ATOM     18  C   UNL     1      -1.829  -0.581  15.817  0.00  0.00    +0.000 C 
ATOM     19  C   UNL     1      -2.932  -1.180  16.692  0.00  0.00    +0.000 C 
ATOM     20  C   UNL     1      -4.295  -0.675  16.212  0.00  0.00    +0.000 C 
ATOM     21  C   UNL     1      -4.512  -1.096  14.757  0.00  0.00    +0.004 C 
ENDBRANCH  15  16
ENDBRANCH  12  15
ENDBRANCH   7  11
BRANCH   1  22
ATOM     22  C   UNL     1       2.548  -1.310   4.951  0.00  0.00    +0.087 C 
BRANCH  22  23
ATOM     23  C   UNL     1       3.805  -2.087   5.348  0.00  0.00    -0.059 C 
BRANCH  23  30
ATOM     24  C   UNL     1       5.097  -4.577   5.474  0.00  0.00    -0.013 C 
ATOM     25  C   UNL     1       5.583  -3.472   4.533  0.00  0.00    -0.072 C 
ATOM     26  C   UNL     1       6.205  -4.103   3.285  0.00  0.00    -0.016 C 
ATOM     27  C   UNL     1       6.690  -2.994   2.347  0.00  0.00    -0.003 C 
ATOM     28  C   UNL     1       5.513  -2.075   2.007  0.00  0.00    -0.019 C 
ATOM     29  C   UNL     1       4.916  -1.520   3.302  0.00  0.00    -0.078 C 
ATOM     30  N   UNL     1       4.447  -2.628   4.143  0.00  0.00    +0.382 N 
ATOM     31  H   UNL     1       3.779  -3.181   3.628  0.00  0.00    -0.081 HD
ENDBRANCH  23  30
ENDBRANCH  22  23
ENDBRANCH   1  22
TORSDOF 6
