REMARK  Name = ZINC06300896
REMARK  15 active torsions:
REMARK  status: ('A' for Active; 'I' for Inactive)
REMARK    1  A    between atoms: C_1  and  C_2
REMARK    2  A    between atoms: C_4  and  C_40
REMARK    3  A    between atoms: C_9  and  C_14
REMARK    4  A    between atoms: C_14  and  C_16
REMARK    5  A    between atoms: C_14  and  N_73
REMARK    6  A    between atoms: N_20  and  C_21
REMARK    7  A    between atoms: C_21  and  C_22
REMARK    8  A    between atoms: C_21  and  C_23
REMARK    9  A    between atoms: C_21  and  C_24
REMARK   10  A    between atoms: C_25  and  C_26
REMARK   11  A    between atoms: C_25  and  N_73
REMARK   12  A    between atoms: C_29  and  O_32
REMARK   13  A    between atoms: O_32  and  C_33
REMARK   14  A    between atoms: C_34  and  C_35
REMARK   15  A    between atoms: C_34  and  N_73
REMARK                            x       y       z     vdW  Elec       q    Type
REMARK                         _______ _______ _______ _____ _____    ______ ____
ROOT
ATOM      1  C   UNL     1       1.358   7.074   0.456  0.00  0.00    +0.040 C 
ENDROOT
BRANCH   1  10
ATOM      2  C   UNL     1      -2.119   0.974   2.971  0.00  0.00    +0.044 C 
ATOM      3  C   UNL     1      -0.896   1.652   2.408  0.00  0.00    -0.050 A 
ATOM      4  C   UNL     1       0.256   0.912   2.177  0.00  0.00    +0.008 A 
ATOM      5  C   UNL     1       1.383   1.510   1.659  0.00  0.00    -0.026 A 
ATOM      6  C   UNL     1       1.372   2.871   1.368  0.00  0.00    +0.052 A 
ATOM      7  C   UNL     1       0.204   3.619   1.608  0.00  0.00    -0.001 A 
ATOM      8  C   UNL     1      -0.929   2.990   2.136  0.00  0.00    +0.013 A 
ATOM      9  C   UNL     1       0.201   5.050   1.298  0.00  0.00    +0.017 A 
ATOM     10  C   UNL     1       1.328   5.604   0.788  0.00  0.00    +0.011 A 
ATOM     11  C   UNL     1       2.473   4.809   0.566  0.00  0.00    +0.251 A 
ATOM     12  O   UNL     1       3.476   5.328   0.107  0.00  0.00    -0.268 OA
ATOM     13  N   UNL     1       2.486   3.495   0.848  0.00  0.00    -0.322 N 
ATOM     14  H   UNL     1       3.290   2.978   0.683  0.00  0.00    +0.169 HD
ATOM     15  C   UNL     1       2.625   0.694   1.408  0.00  0.00    +0.046 C 
ENDBRANCH   1  10
BRANCH   1  16
ATOM     16  C   UNL     1       1.526   7.250  -1.031  0.00  0.00    +0.143 A 
ATOM     17  N   UNL     1       2.633   7.102  -1.717  0.00  0.00    -0.115 NA
ATOM     18  N   UNL     1       2.368   7.338  -2.956  0.00  0.00    -0.023 NA
ATOM     19  N   UNL     1       1.121   7.633  -3.078  0.00  0.00    -0.043 NA
ATOM     20  N   UNL     1       0.566   7.584  -1.914  0.00  0.00    -0.225 N 
BRANCH  20  21
ATOM     21  C   UNL     1      -0.843   7.846  -1.610  0.00  0.00    +0.059 C 
ATOM     22  C   UNL     1      -0.950   9.077  -0.709  0.00  0.00    +0.036 C 
ATOM     23  C   UNL     1      -1.607   8.098  -2.911  0.00  0.00    +0.036 C 
ATOM     24  C   UNL     1      -1.443   6.635  -0.892  0.00  0.00    +0.036 C 
ENDBRANCH  20  21
ENDBRANCH   1  16
BRANCH   1  25
ATOM     25  N   UNL     1       2.508   7.700   1.143  0.00  0.00    +0.397 N 
ATOM     26  H   UNL     1       3.377   7.353   0.721  0.00  0.00    -0.079 HD
BRANCH  25  27
ATOM     27  C   UNL     1       2.451   9.169   0.985  0.00  0.00    -0.041 C 
BRANCH  27  28
ATOM     28  C   UNL     1       3.010   9.530  -0.367  0.00  0.00    -0.064 A 
ATOM     29  C   UNL     1       4.369   9.438  -0.599  0.00  0.00    +0.005 A 
ATOM     30  C   UNL     1       4.883   9.763  -1.839  0.00  0.00    +0.046 A 
ATOM     31  C   UNL     1       4.035  10.194  -2.849  0.00  0.00    +0.120 A 
ATOM     32  C   UNL     1       2.672  10.291  -2.612  0.00  0.00    +0.046 A 
ATOM     33  C   UNL     1       2.162   9.959  -1.372  0.00  0.00    +0.005 A 
BRANCH  31  34
ATOM     34  O   UNL     1       4.539  10.519  -4.069  0.00  0.00    -0.495 OA
ATOM     35  C   UNL     1       5.934  10.290  -4.276  0.00  0.00    +0.277 C 
ENDBRANCH  31  34
ENDBRANCH  27  28
ENDBRANCH  25  27
BRANCH  25  36
ATOM     36  C   UNL     1       2.494   7.346   2.577  0.00  0.00    -0.001 C 
BRANCH  36  37
ATOM     37  C   UNL     1       3.839   7.678   3.171  0.00  0.00    +0.089 A 
ATOM     38  C   UNL     1       4.149   8.806   3.835  0.00  0.00    +0.042 A 
ATOM     39  C   UNL     1       5.507   8.699   4.213  0.00  0.00    +0.041 A 
ATOM     40  C   UNL     1       5.946   7.512   3.757  0.00  0.00    +0.195 A 
ATOM     41  O   UNL     1       4.929   6.895   3.132  0.00  0.00    -0.470 OA
ENDBRANCH  36  37
ENDBRANCH  25  36
ENDBRANCH   1  25
TORSDOF 9
