REMARK  Name = ZINC41158516
REMARK  8 active torsions:
REMARK  status: ('A' for Active; 'I' for Inactive)
REMARK    1  A    between atoms: C_1  and  C_2
REMARK    2  A    between atoms: C_9  and  C_14
REMARK    3  A    between atoms: C_14  and  N_15
REMARK    4  A    between atoms: N_15  and  S_16
REMARK    5  A    between atoms: S_16  and  C_19
REMARK    6  A    between atoms: C_20  and  C_27
REMARK    7  A    between atoms: C_22  and  C_26
REMARK    8  A    between atoms: C_24  and  C_25
REMARK                            x       y       z     vdW  Elec       q    Type
REMARK                         _______ _______ _______ _____ _____    ______ ____
ROOT
ATOM      1  C   UNL     1       0.535  -5.858   3.681  0.00  0.00    +0.146 C 
ENDROOT
BRANCH   1  10
ATOM      2  C   UNL     1       3.265  -0.365  -0.560  0.00  0.00    +0.044 C 
ATOM      3  C   UNL     1       2.686  -1.749  -0.414  0.00  0.00    -0.050 A 
ATOM      4  C   UNL     1       2.499  -2.539  -1.540  0.00  0.00    +0.005 A 
ATOM      5  C   UNL     1       1.971  -3.807  -1.430  0.00  0.00    +0.026 A 
ATOM      6  C   UNL     1       1.621  -4.303  -0.178  0.00  0.00    +0.049 A 
ATOM      7  C   UNL     1       1.814  -3.499   0.961  0.00  0.00    -0.001 A 
ATOM      8  C   UNL     1       2.356  -2.216   0.826  0.00  0.00    +0.013 A 
ATOM      9  C   UNL     1       1.443  -4.030   2.275  0.00  0.00    +0.020 A 
ATOM     10  C   UNL     1       0.926  -5.281   2.345  0.00  0.00    +0.033 A 
ATOM     11  C   UNL     1       0.755  -6.046   1.172  0.00  0.00    +0.254 A 
ATOM     12  O   UNL     1       0.288  -7.169   1.258  0.00  0.00    -0.268 OA
ATOM     13  N   UNL     1       1.092  -5.568  -0.038  0.00  0.00    -0.322 N 
ATOM     14  H   UNL     1       0.960  -6.120  -0.825  0.00  0.00    +0.169 HD
ENDBRANCH   1  10
BRANCH   1  15
ATOM     15  N   UNL     1      -0.894  -5.631   3.911  0.00  0.00    -0.185 NA
ATOM     16  H   UNL     1      -1.378  -4.993   3.364  0.00  0.00    +0.148 HD
BRANCH  15  17
ATOM     17  S   UNL     1      -1.683  -6.466   5.104  0.00  0.00    +0.059 S 
ATOM     18  O   UNL     1      -3.030  -6.012   5.094  0.00  0.00    -0.153 OA
ATOM     19  O   UNL     1      -1.340  -7.835   4.938  0.00  0.00    -0.153 OA
BRANCH  17  20
ATOM     20  C   UNL     1      -0.991  -5.955   6.642  0.00  0.00    +0.111 A 
ATOM     21  C   UNL     1      -1.627  -4.989   7.399  0.00  0.00    -0.024 A 
ATOM     22  C   UNL     1      -1.084  -4.589   8.606  0.00  0.00    +0.008 A 
ATOM     23  C   UNL     1       0.095  -5.155   9.055  0.00  0.00    -0.050 A 
ATOM     24  C   UNL     1       0.730  -6.122   8.298  0.00  0.00    +0.008 A 
ATOM     25  C   UNL     1       0.184  -6.525   7.094  0.00  0.00    -0.024 A 
ATOM     26  C   UNL     1       0.874  -7.583   6.271  0.00  0.00    +0.046 C 
ATOM     27  C   UNL     1       0.687  -4.718  10.370  0.00  0.00    +0.044 C 
ATOM     28  C   UNL     1      -2.911  -4.372   6.909  0.00  0.00    +0.046 C 
ENDBRANCH  17  20
ENDBRANCH  15  17
ENDBRANCH   1  15
TORSDOF 4
