REMARK  Name = ZINC40020039
REMARK  13 active torsions:
REMARK  status: ('A' for Active; 'I' for Inactive)
REMARK    1  A    between atoms: C_1  and  C_2
REMARK    2  A    between atoms: C_4  and  C_32
REMARK    3  A    between atoms: C_7  and  O_8
REMARK    4  A    between atoms: O_8  and  C_9
REMARK    5  A    between atoms: C_9  and  C_10
REMARK    6  A    between atoms: C_10  and  C_12
REMARK    7  A    between atoms: C_10  and  O_31
REMARK    8  A    between atoms: C_12  and  N_13
REMARK    9  A    between atoms: C_24  and  O_26
REMARK   10  A    between atoms: O_26  and  C_27
REMARK   11  A    between atoms: C_32  and  C_33
REMARK   12  A    between atoms: C_32  and  C_34
REMARK   13  A    between atoms: C_32  and  C_35
REMARK                            x       y       z     vdW  Elec       q    Type
REMARK                         _______ _______ _______ _____ _____    ______ ____
ROOT
ATOM      1  N   UNL     1       0.196   0.152   7.234  0.00  0.00    -0.221 N 
ATOM      2  C   UNL     1       1.305   0.707   7.766  0.00  0.00    +0.251 C 
ATOM      3  O   UNL     1       2.447   0.573   7.383  0.00  0.00    -0.272 OA
ATOM      4  C   UNL     1       0.823   1.531   8.939  0.00  0.00    +0.138 C 
ATOM      5  C   UNL     1       1.158   3.001   8.724  0.00  0.00    +0.040 C 
ATOM      6  C   UNL     1       2.671   3.183   8.903  0.00  0.00    +0.008 C 
ATOM      7  C   UNL     1       3.013   2.970  10.376  0.00  0.00    +0.036 C 
ATOM      8  C   UNL     1       2.434   1.673  10.877  0.00  0.00    -0.038 A 
ATOM      9  C   UNL     1       1.420   1.012  10.216  0.00  0.00    -0.012 A 
ATOM     10  C   UNL     1       0.921  -0.176  10.734  0.00  0.00    +0.010 A 
ATOM     11  C   UNL     1       1.433  -0.705  11.900  0.00  0.00    +0.046 A 
ATOM     12  C   UNL     1       2.457  -0.044  12.563  0.00  0.00    +0.120 A 
ATOM     13  C   UNL     1       2.953   1.142  12.049  0.00  0.00    +0.049 A 
ATOM     14  N   UNL     1      -0.633   1.331   8.938  0.00  0.00    -0.281 N 
ATOM     15  C   UNL     1      -0.906   0.515   7.902  0.00  0.00    +0.310 C 
ATOM     16  O   UNL     1      -2.026   0.147   7.609  0.00  0.00    -0.252 OA
ATOM     17  H   UNL     1      -1.272   1.715   9.559  0.00  0.00    +0.152 HD
ENDROOT
BRANCH  12  18
ATOM     18  O   UNL     1       2.971  -0.558  13.712  0.00  0.00    -0.495 OA
ATOM     19  C   UNL     1       2.408  -1.785  14.182  0.00  0.00    +0.277 C 
ENDBRANCH  12  18
BRANCH   1  20
ATOM     20  C   UNL     1       0.196  -0.732   6.066  0.00  0.00    +0.152 C 
BRANCH  20  21
ATOM     21  C   UNL     1       0.047   0.104   4.793  0.00  0.00    +0.170 C 
BRANCH  21  22
ATOM     22  O   UNL     1      -1.183   0.829   4.841  0.00  0.00    -0.387 OA
ATOM     23  H   UNL     1      -1.968   0.268   4.908  0.00  0.00    +0.210 HD
ENDBRANCH  21  22
BRANCH  21  24
ATOM     24  C   UNL     1       0.048  -0.820   3.574  0.00  0.00    +0.262 C 
BRANCH  24  25
ATOM     25  O   UNL     1       0.025  -0.033   2.381  0.00  0.00    -0.489 OA
BRANCH  25  32
ATOM     26  C   UNL     1      -0.018   1.503   0.010  0.00  0.00    +0.047 C 
ATOM     27  C   UNL     1       0.002  -0.004   0.002  0.00  0.00    -0.009 A 
ATOM     28  C   UNL     1       0.006  -0.689  -1.198  0.00  0.00    +0.011 A 
ATOM     29  C   UNL     1       0.024  -2.071  -1.206  0.00  0.00    -0.042 A 
ATOM     30  C   UNL     1       0.039  -2.772  -0.014  0.00  0.00    +0.008 A 
ATOM     31  C   UNL     1       0.036  -2.092   1.188  0.00  0.00    +0.046 A 
ATOM     32  C   UNL     1       0.023  -0.705   1.199  0.00  0.00    +0.124 A 
BRANCH  29  33
ATOM     33  C   UNL     1       0.027  -2.816  -2.517  0.00  0.00    -0.013 C 
ATOM     34  C   UNL     1       1.267  -2.424  -3.323  0.00  0.00    +0.015 C 
ATOM     35  C   UNL     1       0.048  -4.322  -2.247  0.00  0.00    +0.015 C 
ATOM     36  C   UNL     1      -1.231  -2.457  -3.310  0.00  0.00    +0.015 C 
ENDBRANCH  29  33
ENDBRANCH  25  32
ENDBRANCH  24  25
ENDBRANCH  21  24
ENDBRANCH  20  21
ENDBRANCH   1  20
TORSDOF 8
