REMARK  Name = ZINC61720693
REMARK  6 active torsions:
REMARK  status: ('A' for Active; 'I' for Inactive)
REMARK    1  A    between atoms: C_1  and  C_2
REMARK    2  A    between atoms: C_2  and  C_4
REMARK    3  A    between atoms: C_2  and  N_8
REMARK    4  A    between atoms: C_4  and  O_6
REMARK    5  A    between atoms: O_6  and  C_7
REMARK    6  A    between atoms: C_20  and  C_22
REMARK                            x       y       z     vdW  Elec       q    Type
REMARK                         _______ _______ _______ _____ _____    ______ ____
ROOT
ATOM      1  N   UNL     1      -1.469  -0.367  -2.025  0.00  0.00    -0.286 N 
ATOM      2  C   UNL     1      -2.190  -0.672  -0.927  0.00  0.00    +0.304 C 
ATOM      3  O   UNL     1      -1.668  -0.640   0.171  0.00  0.00    -0.253 OA
ATOM      4  N   UNL     1      -3.488  -1.011  -1.047  0.00  0.00    -0.273 N 
ATOM      5  C   UNL     1      -4.322  -1.233   0.144  0.00  0.00    +0.116 C 
ATOM      6  C   UNL     1      -5.430  -0.173   0.185  0.00  0.00    +0.074 C 
ATOM      7  C   UNL     1      -6.031  -0.046  -1.190  0.00  0.00    +0.040 A 
ATOM      8  C   UNL     1      -5.451  -0.480  -2.329  0.00  0.00    +0.062 A 
ATOM      9  N   UNL     1      -6.267  -0.195  -3.346  0.00  0.00    -0.348 N 
ATOM     10  C   UNL     1      -7.336   0.398  -2.883  0.00  0.00    +0.171 A 
ATOM     11  N   UNL     1      -7.226   0.508  -1.539  0.00  0.00    -0.349 N 
ATOM     12  H   UNL     1      -7.874   0.906  -0.938  0.00  0.00    +0.166 HD
ATOM     13  C   UNL     1      -4.109  -1.164  -2.375  0.00  0.00    +0.159 C 
ATOM     14  H   UNL     1      -1.863  -0.464  -2.906  0.00  0.00    +0.151 HD
ATOM     15  H   UNL     1      -6.094  -0.396  -4.279  0.00  0.00    +0.167 HD
ENDROOT
BRANCH  13  16
ATOM     16  C   UNL     1      -4.294  -2.626  -2.690  0.00  0.00    +0.015 A 
ATOM     17  C   UNL     1      -5.547  -3.202  -2.588  0.00  0.00    +0.024 A 
ATOM     18  C   UNL     1      -5.717  -4.544  -2.877  0.00  0.00    +0.018 A 
ATOM     19  C   UNL     1      -4.634  -5.310  -3.269  0.00  0.00    +0.018 A 
ATOM     20  C   UNL     1      -3.381  -4.736  -3.371  0.00  0.00    +0.040 A 
ATOM     21  C   UNL     1      -3.211  -3.391  -3.087  0.00  0.00    +0.129 A 
ATOM     22  F   UNL     1      -1.988  -2.827  -3.193  0.00  0.00    -0.205 F 
ATOM     23 BR   UNL     1      -7.430  -5.331  -2.736  0.00  0.00    -0.050 Br
ENDBRANCH  13  16
BRANCH   1  25
ATOM     24  C   UNL     1       0.855  -1.090  -1.778  0.00  0.00    +0.040 C 
ATOM     25  C   UNL     1      -0.090   0.108  -1.887  0.00  0.00    +0.180 C 
BRANCH  25  26
ATOM     26  C   UNL     1       0.280   0.932  -3.093  0.00  0.00    +0.327 C 
ATOM     27  O   UNL     1      -0.525   1.104  -3.978  0.00  0.00    -0.249 OA
BRANCH  26  28
ATOM     28  O   UNL     1       1.504   1.475  -3.185  0.00  0.00    -0.467 OA
ATOM     29  C   UNL     1       1.787   2.244  -4.356  0.00  0.00    +0.280 C 
ENDBRANCH  26  28
ENDBRANCH  25  26
ENDBRANCH   1  25
TORSDOF 4
