REMARK  Name = ZINC58902986
REMARK  9 active torsions:
REMARK  status: ('A' for Active; 'I' for Inactive)
REMARK    1  A    between atoms: C_1  and  C_2
REMARK    2  A    between atoms: C_2  and  N_3
REMARK    3  A    between atoms: C_14  and  C_16
REMARK    4  A    between atoms: C_19  and  C_37
REMARK    5  A    between atoms: N_21  and  C_31
REMARK    6  A    between atoms: C_24  and  N_30
REMARK    7  A    between atoms: C_25  and  C_26
REMARK    8  A    between atoms: C_26  and  O_28
REMARK    9  A    between atoms: O_28  and  C_29
REMARK                            x       y       z     vdW  Elec       q    Type
REMARK                         _______ _______ _______ _____ _____    ______ ____
ROOT
ATOM      1  C   UNL     1       6.185  -1.724  -2.518  0.00  0.00    +0.098 C 
ATOM      2  C   UNL     1       7.055  -0.519  -2.272  0.00  0.00    +0.049 A 
ATOM      3  C   UNL     1       7.212   0.624  -3.044  0.00  0.00    +0.068 A 
ATOM      4  N   UNL     1       8.072   1.412  -2.443  0.00  0.00    -0.168 NA
ATOM      5  N   UNL     1       8.493   0.788  -1.258  0.00  0.00    -0.200 N 
ATOM      6  C   UNL     1       7.856  -0.400  -1.171  0.00  0.00    +0.230 A 
ATOM      7  O   UNL     1       7.935  -1.358  -0.214  0.00  0.00    -0.423 OA
ATOM      8  C   UNL     1       7.411  -2.567  -0.496  0.00  0.00    +0.197 C 
ATOM      9  C   UNL     1       6.594  -2.807  -1.550  0.00  0.00    +0.105 C 
ATOM     10  C   UNL     1       6.515   0.911  -4.349  0.00  0.00    +0.068 C 
ENDROOT
BRANCH   1  22
ATOM     11  N   UNL     1       0.720  -0.429  -1.922  0.00  0.00    -0.340 N 
ATOM     12  C   UNL     1       0.233  -0.722  -3.184  0.00  0.00    +0.050 A 
ATOM     13  C   UNL     1      -1.039  -0.631  -3.742  0.00  0.00    +0.026 A 
ATOM     14  C   UNL     1      -1.244  -0.997  -5.055  0.00  0.00    +0.002 A 
ATOM     15  C   UNL     1      -0.191  -1.458  -5.831  0.00  0.00    +0.001 A 
ATOM     16  C   UNL     1       1.075  -1.554  -5.296  0.00  0.00    +0.010 A 
ATOM     17  C   UNL     1       1.296  -1.188  -3.971  0.00  0.00    +0.008 A 
ATOM     18  C   UNL     1       2.494  -1.168  -3.111  0.00  0.00    +0.008 A 
ATOM     19  C   UNL     1       2.078  -0.686  -1.861  0.00  0.00    +0.050 A 
ATOM     20  C   UNL     1       3.011  -0.553  -0.837  0.00  0.00    +0.027 A 
ATOM     21  C   UNL     1       4.329  -0.889  -1.057  0.00  0.00    +0.006 A 
ATOM     22  C   UNL     1       4.739  -1.362  -2.294  0.00  0.00    -0.034 A 
ATOM     23  C   UNL     1       3.828  -1.509  -3.318  0.00  0.00    +0.015 A 
BRANCH  11  25
ATOM     24  C   UNL     1      -0.093   1.614  -0.851  0.00  0.00    +0.027 C 
ATOM     25  C   UNL     1      -0.087   0.084  -0.812  0.00  0.00    +0.119 C 
ENDBRANCH  11  25
ENDBRANCH   1  22
BRANCH   5  26
ATOM     26  C   UNL     1       9.409   1.305  -0.332  0.00  0.00    +0.069 A 
ATOM     27  C   UNL     1       9.247   1.051   1.024  0.00  0.00    +0.028 A 
ATOM     28  C   UNL     1      10.152   1.562   1.934  0.00  0.00    +0.002 A 
ATOM     29  C   UNL     1      11.219   2.325   1.496  0.00  0.00    +0.000 A 
ATOM     30  C   UNL     1      11.383   2.579   0.147  0.00  0.00    +0.002 A 
ATOM     31  C   UNL     1      10.485   2.067  -0.768  0.00  0.00    +0.028 A 
ENDBRANCH   5  26
BRANCH   8  32
ATOM     32  N   UNL     1       7.723  -3.614   0.330  0.00  0.00    -0.329 N 
ATOM     33  H   UNL     1       8.370  -3.493   1.042  0.00  0.00    +0.145 HD
ATOM     34  H   UNL     1       7.297  -4.476   0.202  0.00  0.00    +0.145 HD
ENDBRANCH   8  32
BRANCH   9  35
ATOM     35  C   UNL     1       6.111  -4.109  -1.749  0.00  0.00    +0.341 C 
ATOM     36  O   UNL     1       6.624  -4.827  -2.588  0.00  0.00    -0.245 OA
BRANCH  35  37
ATOM     37  O   UNL     1       5.076  -4.565  -1.011  0.00  0.00    -0.465 OA
ATOM     38  C   UNL     1       4.635  -5.900  -1.267  0.00  0.00    +0.280 C 
ENDBRANCH  35  37
ENDBRANCH   9  35
TORSDOF 6
