REMARK  Name = ZINC54762741
REMARK  3 active torsions:
REMARK  status: ('A' for Active; 'I' for Inactive)
REMARK    1  A    between atoms: C_3  and  N_9
REMARK    2  A    between atoms: C_10  and  C_14
REMARK    3  A    between atoms: C_14  and  N_15
REMARK                            x       y       z     vdW  Elec       q    Type
REMARK                         _______ _______ _______ _____ _____    ______ ____
ROOT
ATOM      1  N   UNL     1       3.634   2.159  -0.092  0.00  0.00    -0.198 N 
ATOM      2  C   UNL     1       4.870   1.636   0.056  0.00  0.00    +0.139 A 
ATOM      3  N   UNL     1       5.713   2.635   0.090  0.00  0.00    -0.115 NA
ATOM      4  N   UNL     1       5.093   3.754  -0.025  0.00  0.00    -0.023 NA
ATOM      5  N   UNL     1       3.825   3.551  -0.146  0.00  0.00    -0.039 NA
ENDROOT
BRANCH   1   8
ATOM      6  C   UNL     1       0.908  -0.192   0.675  0.00  0.00    +0.017 A 
ATOM      7  C   UNL     1       2.105   0.492   0.762  0.00  0.00    +0.030 A 
ATOM      8  C   UNL     1       2.419   1.462  -0.179  0.00  0.00    +0.083 A 
ATOM      9  C   UNL     1       1.528   1.743  -1.207  0.00  0.00    +0.044 A 
ATOM     10  C   UNL     1       0.332   1.055  -1.290  0.00  0.00    +0.032 A 
ATOM     11  C   UNL     1       0.022   0.089  -0.350  0.00  0.00    +0.019 A 
ATOM     12 BR   UNL     1      -1.615  -0.850  -0.466  0.00  0.00    -0.050 Br
ATOM     13 BR   UNL     1       1.951   3.064  -2.492  0.00  0.00    -0.048 Br
ENDBRANCH   1   8
BRANCH   2  14
ATOM     14  C   UNL     1       5.215   0.172   0.162  0.00  0.00    -0.007 C 
BRANCH  14  15
ATOM     15  N   UNL     1       5.497  -0.362  -1.177  0.00  0.00    +0.383 N 
ATOM     16  H   UNL     1       5.668  -1.354  -1.114  0.00  0.00    -0.089 HD
ATOM     17  H   UNL     1       4.706  -0.195  -1.780  0.00  0.00    -0.089 HD
ATOM     18  H   UNL     1       6.312   0.096  -1.557  0.00  0.00    -0.089 HD
ENDBRANCH  14  15
ENDBRANCH   2  14
TORSDOF 3
