REMARK  Name = ZINC34720037
REMARK  7 active torsions:
REMARK  status: ('A' for Active; 'I' for Inactive)
REMARK    1  A    between atoms: C_1  and  C_2
REMARK    2  A    between atoms: N_13  and  C_19
REMARK    3  A    between atoms: C_19  and  C_20
REMARK    4  A    between atoms: N_22  and  N_23
REMARK    5  A    between atoms: C_24  and  C_25
REMARK    6  A    between atoms: C_29  and  O_31
REMARK    7  A    between atoms: O_31  and  C_32
REMARK                            x       y       z     vdW  Elec       q    Type
REMARK                         _______ _______ _______ _____ _____    ______ ____
ROOT
ATOM      1  C   UNL     1       0.992   1.365  -0.463  0.00  0.00    +0.044 C 
ATOM      2  C   UNL     1       0.870  -0.137  -0.489  0.00  0.00    -0.050 A 
ATOM      3  C   UNL     1       0.285  -0.744  -1.588  0.00  0.00    +0.005 A 
ATOM      4  C   UNL     1       0.139  -2.116  -1.681  0.00  0.00    +0.026 A 
ATOM      5  C   UNL     1       0.608  -2.881  -0.614  0.00  0.00    +0.049 A 
ATOM      6  C   UNL     1       1.211  -2.251   0.515  0.00  0.00    +0.003 A 
ATOM      7  C   UNL     1       1.347  -0.860   0.575  0.00  0.00    +0.013 A 
ATOM      8  C   UNL     1       1.579  -3.312   1.413  0.00  0.00    -0.020 A 
ATOM      9  C   UNL     1       1.221  -4.464   0.812  0.00  0.00    +0.009 A 
ATOM     10  N   UNL     1       0.615  -4.224  -0.390  0.00  0.00    -0.347 N 
ATOM     11  C   UNL     1       0.084  -5.328  -1.204  0.00  0.00    +0.103 C 
ATOM     12  C   UNL     1       0.692  -6.635  -0.678  0.00  0.00    -0.055 C 
ATOM     13  N   UNL     1       0.534  -6.748   0.778  0.00  0.00    +0.392 N 
ATOM     14  C   UNL     1       1.458  -5.813   1.452  0.00  0.00    -0.020 C 
ATOM     15  C   UNL     1       1.119  -5.702   2.930  0.00  0.00    -0.009 C 
ATOM     16  C   UNL     1       1.514  -4.419   3.617  0.00  0.00    +0.003 C 
ATOM     17  C   UNL     1       2.220  -3.369   2.772  0.00  0.00    +0.037 C 
ATOM     18  H   UNL     1      -0.416  -6.522   1.032  0.00  0.00    -0.080 HD
ENDROOT
BRANCH  13  19
ATOM     19  C   UNL     1       0.839  -8.122   1.198  0.00  0.00    +0.021 C 
BRANCH  19  20
ATOM     20  C   UNL     1      -0.182  -9.064   0.611  0.00  0.00    +0.216 C 
ATOM     21  O   UNL     1      -1.075  -8.632  -0.087  0.00  0.00    -0.276 OA
ATOM     22  N   UNL     1      -0.102 -10.385   0.863  0.00  0.00    -0.209 N 
ATOM     23  H   UNL     1       0.612 -10.731   1.421  0.00  0.00    +0.177 HD
BRANCH  22  24
ATOM     24  N   UNL     1      -1.051 -11.261   0.318  0.00  0.00    -0.188 NA
ATOM     25  C   UNL     1      -1.046 -12.514   0.653  0.00  0.00    +0.138 C 
BRANCH  25  26
ATOM     26  C   UNL     1      -0.402 -12.938   1.911  0.00  0.00    -0.002 A 
ATOM     27  C   UNL     1      -0.050 -11.989   2.874  0.00  0.00    +0.010 A 
ATOM     28  C   UNL     1       0.551 -12.389   4.049  0.00  0.00    +0.004 A 
ATOM     29  C   UNL     1       0.808 -13.729   4.277  0.00  0.00    +0.045 A 
ATOM     30  C   UNL     1       0.463 -14.680   3.327  0.00  0.00    +0.121 A 
ATOM     31  C   UNL     1      -0.147 -14.290   2.146  0.00  0.00    +0.055 A 
BRANCH  30  32
ATOM     32  O   UNL     1       0.719 -15.994   3.557  0.00  0.00    -0.495 OA
ATOM     33  C   UNL     1       1.345 -16.326   4.798  0.00  0.00    +0.277 C 
ENDBRANCH  30  32
ENDBRANCH  25  26
ENDBRANCH  22  24
ENDBRANCH  19  20
ENDBRANCH  13  19
TORSDOF 5
