REMARK  Name = ZINC18260525
REMARK  7 active torsions:
REMARK  status: ('A' for Active; 'I' for Inactive)
REMARK    1  A    between atoms: C_1  and  C_2
REMARK    2  A    between atoms: N_13  and  C_29
REMARK    3  A    between atoms: C_14  and  S_16
REMARK    4  A    between atoms: S_16  and  C_17
REMARK    5  A    between atoms: C_17  and  C_18
REMARK    6  A    between atoms: C_26  and  N_28
REMARK    7  A    between atoms: C_29  and  C_30
REMARK                            x       y       z     vdW  Elec       q    Type
REMARK                         _______ _______ _______ _____ _____    ______ ____
ROOT
ATOM      1  C   UNL     1       5.790  -2.792   7.898  0.00  0.00    +0.008 C 
ATOM      2  C   UNL     1       4.898  -1.828   7.114  0.00  0.00    -0.009 C 
ATOM      3  C   UNL     1       3.475  -1.864   7.679  0.00  0.00    +0.008 C 
ATOM      4  C   UNL     1       2.646  -0.733   7.071  0.00  0.00    +0.037 C 
ATOM      5  C   UNL     1       2.752  -0.807   5.550  0.00  0.00    -0.023 A 
ATOM      6  C   UNL     1       3.751  -1.495   4.962  0.00  0.00    -0.004 A 
ATOM      7  S   UNL     1       3.477  -1.308   3.221  0.00  0.00    -0.073 S 
ATOM      8  C   UNL     1       2.015  -0.303   3.288  0.00  0.00    +0.117 A 
ATOM      9  C   UNL     1       1.790  -0.146   4.666  0.00  0.00    +0.076 A 
ATOM     10  C   UNL     1       0.649   0.639   5.027  0.00  0.00    +0.264 A 
ATOM     11  O   UNL     1       0.375   0.829   6.199  0.00  0.00    -0.267 OA
ATOM     12  N   UNL     1      -0.115   1.167   4.053  0.00  0.00    -0.280 N 
ATOM     13  C   UNL     1       0.174   0.961   2.735  0.00  0.00    +0.173 A 
ATOM     14  N   UNL     1       1.219   0.242   2.376  0.00  0.00    -0.216 NA
ATOM     15  C   UNL     1       4.853  -2.252   5.639  0.00  0.00    +0.046 C 
ENDROOT
BRANCH  13  16
ATOM     16  S   UNL     1      -0.860   1.669   1.497  0.00  0.00    -0.080 S 
BRANCH  16  17
ATOM     17  C   UNL     1      -0.013   1.086   0.008  0.00  0.00    +0.153 C 
BRANCH  17  18
ATOM     18  C   UNL     1      -0.742   1.585  -1.213  0.00  0.00    +0.142 A 
ATOM     19  N   UNL     1      -1.694   0.840  -1.722  0.00  0.00    -0.231 NA
ATOM     20  C   UNL     1      -2.371   1.249  -2.805  0.00  0.00    +0.076 A 
ATOM     21  C   UNL     1      -3.398   0.481  -3.372  0.00  0.00    +0.028 A 
ATOM     22  C   UNL     1      -4.051   0.942  -4.477  0.00  0.00    +0.002 A 
ATOM     23  C   UNL     1      -3.714   2.164  -5.051  0.00  0.00    +0.001 A 
ATOM     24  C   UNL     1      -2.721   2.936  -4.525  0.00  0.00    +0.013 A 
ATOM     25  C   UNL     1      -2.031   2.492  -3.391  0.00  0.00    +0.040 A 
ATOM     26  C   UNL     1      -0.990   3.248  -2.799  0.00  0.00    +0.127 A 
ATOM     27  N   UNL     1      -0.389   2.753  -1.726  0.00  0.00    -0.216 NA
BRANCH  26  28
ATOM     28  N   UNL     1      -0.614   4.466  -3.323  0.00  0.00    -0.343 N 
ATOM     29  H   UNL     1       0.101   4.973  -2.906  0.00  0.00    +0.144 HD
ATOM     30  H   UNL     1      -1.063   4.816  -4.109  0.00  0.00    +0.144 HD
ENDBRANCH  26  28
ENDBRANCH  17  18
ENDBRANCH  16  17
ENDBRANCH  13  16
BRANCH  12  31
ATOM     31  C   UNL     1      -1.281   1.977   4.415  0.00  0.00    +0.201 C 
BRANCH  31  32
ATOM     32  C   UNL     1      -2.490   1.086   4.545  0.00  0.00    +0.125 A 
ATOM     33  C   UNL     1      -2.893   0.467   5.669  0.00  0.00    +0.046 A 
ATOM     34  C   UNL     1      -4.063  -0.257   5.340  0.00  0.00    +0.041 A 
ATOM     35  C   UNL     1      -4.299  -0.044   4.033  0.00  0.00    +0.195 A 
ATOM     36  O   UNL     1      -3.343   0.770   3.557  0.00  0.00    -0.466 OA
ENDBRANCH  31  32
ENDBRANCH  12  31
TORSDOF 6
