REMARK  Name = ZINC44607961
REMARK  3 active torsions:
REMARK  status: ('A' for Active; 'I' for Inactive)
REMARK    1  A    between atoms: C_5  and  S_8
REMARK    2  A    between atoms: S_8  and  N_11
REMARK    3  A    between atoms: C_16  and  C_19
REMARK                            x       y       z     vdW  Elec       q    Type
REMARK                         _______ _______ _______ _____ _____    ______ ____
ROOT
ATOM      1  C   UNL     1      -0.017   1.376   0.010  0.00  0.00    +0.047 A 
ATOM      2  C   UNL     1       1.178   2.094   0.002  0.00  0.00    +0.056 A 
ATOM      3  C   UNL     1       2.381   1.400  -0.023  0.00  0.00    +0.128 A 
ATOM      4  C   UNL     1       2.396   0.021  -0.020  0.00  0.00    +0.060 A 
ATOM      5  C   UNL     1       1.207  -0.685  -0.009  0.00  0.00    +0.125 A 
ATOM      6  C   UNL     1       0.002  -0.004   0.002  0.00  0.00    +0.069 A 
ATOM      7 CL   UNL     1      -1.491  -0.889   0.006  0.00  0.00    -0.081 Cl
ATOM      8  S   UNL     1       3.903   2.297  -0.076  0.00  0.00    +0.062 S 
ATOM      9  O   UNL     1       4.679   1.865   1.033  0.00  0.00    -0.153 OA
ATOM     10  O   UNL     1       4.374   2.235  -1.415  0.00  0.00    -0.153 OA
ATOM     11  N   UNL     1       3.473   3.882   0.218  0.00  0.00    -0.170 NA
ATOM     12  C   UNL     1       2.221   4.339  -0.419  0.00  0.00    +0.163 C 
ATOM     13  N   UNL     1       1.126   3.485   0.032  0.00  0.00    -0.326 N 
ATOM     14  H   UNL     1       4.011   4.467   0.774  0.00  0.00    +0.150 HD
ATOM     15  H   UNL     1       0.321   3.908   0.370  0.00  0.00    +0.148 HD
ENDROOT
BRANCH  12  16
ATOM     16  C   UNL     1       2.356   4.246  -1.940  0.00  0.00    +0.033 C 
ATOM     17  C   UNL     1       1.088   4.802  -2.634  0.00  0.00    +0.015 C 
ATOM     18  C   UNL     1       1.625   6.005  -3.474  0.00  0.00    +0.012 C 
ATOM     19  C   UNL     1       2.733   6.556  -2.505  0.00  0.00    +0.015 C 
ATOM     20  C   UNL     1       3.500   5.180  -2.449  0.00  0.00    +0.018 C 
ATOM     21  C   UNL     1       3.593   4.873  -3.948  0.00  0.00    -0.027 C 
ATOM     22  C   UNL     1       2.494   5.348  -4.553  0.00  0.00    -0.027 C 
ENDBRANCH  12  16
BRANCH   5  23
ATOM     23  S   UNL     1       1.226  -2.447  -0.008  0.00  0.00    +0.057 S 
ATOM     24  O   UNL     1       0.325  -2.863  -1.025  0.00  0.00    -0.153 OA
ATOM     25  O   UNL     1       2.592  -2.839   0.006  0.00  0.00    -0.153 OA
BRANCH  23  26
ATOM     26  N   UNL     1       0.576  -2.943   1.432  0.00  0.00    -0.203 NA
ATOM     27  H   UNL     1       0.274  -2.287   2.079  0.00  0.00    +0.144 HD
ATOM     28  H   UNL     1       0.497  -3.890   1.628  0.00  0.00    +0.144 HD
ENDBRANCH  23  26
ENDBRANCH   5  23
TORSDOF 3
