REMARK  Name = ZINC00259969
REMARK  3 active torsions:
REMARK  status: ('A' for Active; 'I' for Inactive)
REMARK    1  A    between atoms: C_4  and  S_8
REMARK    2  A    between atoms: S_8  and  N_11
REMARK    3  A    between atoms: C_14  and  C_17
REMARK                            x       y       z     vdW  Elec       q    Type
REMARK                         _______ _______ _______ _____ _____    ______ ____
ROOT
ATOM      1  S   UNL     1       2.671   4.069  -0.003  0.00  0.00    +0.062 S 
ATOM      2  O   UNL     1       3.468   3.512  -1.039  0.00  0.00    -0.153 OA
ATOM      3  O   UNL     1       2.323   5.446   0.034  0.00  0.00    -0.153 OA
ENDROOT
BRANCH   1   7
ATOM      4  C   UNL     1      -1.219   1.751   0.017  0.00  0.00    +0.021 A 
ATOM      5  C   UNL     1      -0.013   1.076   0.008  0.00  0.00    +0.023 A 
ATOM      6  C   UNL     1       1.176   1.784   0.000  0.00  0.00    +0.067 A 
ATOM      7  C   UNL     1       1.157   3.167   0.007  0.00  0.00    +0.125 A 
ATOM      8  C   UNL     1      -0.049   3.842   0.022  0.00  0.00    +0.050 A 
ATOM      9  C   UNL     1      -1.238   3.134   0.030  0.00  0.00    +0.043 A 
ATOM     10 CL   UNL     1      -2.753   3.981   0.048  0.00  0.00    -0.083 Cl
ATOM     11 CL   UNL     1       2.691   0.936  -0.018  0.00  0.00    -0.082 Cl
ENDBRANCH   1   7
BRANCH   1  12
ATOM     12  N   UNL     1       3.447   3.739   1.422  0.00  0.00    -0.176 NA
ATOM     13  C   UNL     1       3.222   4.575   2.609  0.00  0.00    +0.110 C 
ATOM     14  C   UNL     1       4.570   5.060   3.139  0.00  0.00    +0.030 C 
ATOM     15  C   UNL     1       5.483   3.856   3.382  0.00  0.00    +0.077 C 
ATOM     16  C   UNL     1       5.719   3.118   2.062  0.00  0.00    +0.030 C 
ATOM     17  C   UNL     1       4.379   2.607   1.521  0.00  0.00    +0.110 C 
BRANCH  15  18
ATOM     18  C   UNL     1       6.803   4.331   3.934  0.00  0.00    +0.214 C 
ATOM     19  O   UNL     1       7.830   4.101   3.332  0.00  0.00    -0.276 OA
ATOM     20  N   UNL     1       6.841   5.010   5.097  0.00  0.00    -0.329 N 
ATOM     21  H   UNL     1       6.019   5.194   5.579  0.00  0.00    +0.145 HD
ATOM     22  H   UNL     1       7.690   5.316   5.453  0.00  0.00    +0.145 HD
ENDBRANCH  15  18
ENDBRANCH   1  12
TORSDOF 3
