REMARK  Name = ZINC43674380
REMARK  6 active torsions:
REMARK  status: ('A' for Active; 'I' for Inactive)
REMARK    1  A    between atoms: C_1  and  C_2
REMARK    2  A    between atoms: C_2  and  C_4
REMARK    3  A    between atoms: C_2  and  N_22
REMARK    4  A    between atoms: C_13  and  O_14
REMARK    5  A    between atoms: O_14  and  C_15
REMARK    6  A    between atoms: C_15  and  C_16
REMARK                            x       y       z     vdW  Elec       q    Type
REMARK                         _______ _______ _______ _____ _____    ______ ____
ROOT
ATOM      1  C   UNL     1       0.763  -0.382   1.259  0.00  0.00    -0.020 A 
ATOM      2  C   UNL     1       0.070  -0.852   2.372  0.00  0.00    +0.006 A 
ATOM      3  C   UNL     1       0.728  -1.210   3.509  0.00  0.00    +0.009 A 
ATOM      4  C   UNL     1       2.128  -1.106   3.568  0.00  0.00    -0.014 A 
ATOM      5  C   UNL     1       2.839  -1.467   4.725  0.00  0.00    +0.008 A 
ATOM      6  C   UNL     1       4.195  -1.354   4.745  0.00  0.00    +0.001 A 
ATOM      7  C   UNL     1       4.892  -0.884   3.634  0.00  0.00    +0.001 A 
ATOM      8  C   UNL     1       4.237  -0.525   2.496  0.00  0.00    +0.012 A 
ATOM      9  C   UNL     1       2.838  -0.628   2.438  0.00  0.00    +0.024 A 
ATOM     10  C   UNL     1       2.125  -0.272   1.275  0.00  0.00    +0.130 A 
ENDROOT
BRANCH   1  12
ATOM     11  C   UNL     1      -1.479   0.183   0.363  0.00  0.00    -0.009 C 
ATOM     12  C   UNL     1       0.001   0.004   0.018  0.00  0.00    -0.044 C 
BRANCH  12  13
ATOM     13  N   UNL     1       0.143  -1.052  -0.993  0.00  0.00    +0.383 N 
ATOM     14  H   UNL     1      -0.367  -0.793  -1.824  0.00  0.00    -0.089 HD
ATOM     15  H   UNL     1       1.119  -1.169  -1.221  0.00  0.00    -0.089 HD
ATOM     16  H   UNL     1      -0.224  -1.918  -0.629  0.00  0.00    -0.089 HD
ENDBRANCH  12  13
ENDBRANCH   1  12
BRANCH  10  17
ATOM     17  O   UNL     1       2.787   0.183   0.180  0.00  0.00    -0.486 OA
BRANCH  17  18
ATOM     18  C   UNL     1       3.094   1.578   0.141  0.00  0.00    +0.272 C 
BRANCH  18  19
ATOM     19  C   UNL     1       3.935   1.873  -1.074  0.00  0.00    +0.041 A 
ATOM     20  C   UNL     1       3.538   2.223  -2.323  0.00  0.00    +0.031 A 
ATOM     21  C   UNL     1       4.498   2.448  -3.292  0.00  0.00    +0.023 A 
ATOM     22  C   UNL     1       5.807   2.313  -2.966  0.00  0.00    +0.046 A 
ATOM     23  S   UNL     1       5.713   1.861  -1.241  0.00  0.00    -0.097 S 
ATOM     24 BR   UNL     1       1.701   2.398  -2.732  0.00  0.00    -0.049 Br
ENDBRANCH  18  19
ENDBRANCH  17  18
ENDBRANCH  10  17
TORSDOF 5
