REMARK  Name = ZINC17114510
REMARK  6 active torsions:
REMARK  status: ('A' for Active; 'I' for Inactive)
REMARK    1  A    between atoms: C_1  and  C_2
REMARK    2  A    between atoms: C_5  and  C_34
REMARK    3  A    between atoms: N_8  and  S_10
REMARK    4  A    between atoms: S_10  and  C_13
REMARK    5  A    between atoms: C_17  and  C_19
REMARK    6  A    between atoms: N_21  and  N_22
REMARK                            x       y       z     vdW  Elec       q    Type
REMARK                         _______ _______ _______ _____ _____    ______ ____
ROOT
ATOM      1  C   UNL     1       2.547  -3.268  -0.217  0.00  0.00    +0.106 A 
ATOM      2  C   UNL     1       2.078  -4.392  -0.874  0.00  0.00    +0.028 A 
ATOM      3  C   UNL     1       2.503  -4.677  -2.159  0.00  0.00    +0.003 A 
ATOM      4  C   UNL     1       3.399  -3.842  -2.794  0.00  0.00    +0.013 A 
ATOM      5  C   UNL     1       3.876  -2.707  -2.137  0.00  0.00    +0.040 A 
ATOM      6  C   UNL     1       3.438  -2.421  -0.843  0.00  0.00    +0.041 A 
ENDROOT
BRANCH   5   7
ATOM      7  C   UNL     1       4.837  -1.807  -2.811  0.00  0.00    +0.261 C 
ATOM      8  O   UNL     1       5.250  -0.819  -2.236  0.00  0.00    -0.269 OA
ATOM      9  N   UNL     1       5.254  -2.083  -4.063  0.00  0.00    -0.220 N 
ATOM     10  H   UNL     1       4.924  -2.871  -4.521  0.00  0.00    +0.174 HD
BRANCH   9  11
ATOM     11  N   UNL     1       6.164  -1.231  -4.702  0.00  0.00    -0.137 N 
ATOM     12  C   UNL     1       5.832  -0.360  -5.677  0.00  0.00    +0.263 C 
ATOM     13  O   UNL     1       4.731  -0.173  -6.150  0.00  0.00    -0.271 OA
ATOM     14  C   UNL     1       7.120   0.333  -6.056  0.00  0.00    +0.114 C 
ATOM     15  C   UNL     1       7.016   1.831  -5.791  0.00  0.00    +0.035 C 
ATOM     16  C   UNL     1       8.340   2.509  -6.152  0.00  0.00    +0.003 C 
ATOM     17  C   UNL     1       8.655   2.256  -7.628  0.00  0.00    +0.000 C 
ATOM     18  C   UNL     1       8.780   0.750  -7.872  0.00  0.00    +0.003 C 
ATOM     19  C   UNL     1       7.458   0.066  -7.518  0.00  0.00    +0.035 C 
ATOM     20  N   UNL     1       8.125  -0.276  -5.175  0.00  0.00    -0.284 N 
ATOM     21  C   UNL     1       7.471  -1.175  -4.416  0.00  0.00    +0.326 C 
ATOM     22  O   UNL     1       8.007  -1.862  -3.568  0.00  0.00    -0.251 OA
ATOM     23  H   UNL     1       9.072  -0.069  -5.144  0.00  0.00    +0.151 HD
ENDBRANCH   9  11
ENDBRANCH   5   7
BRANCH   1  24
ATOM     24  S   UNL     1       1.999  -2.914   1.419  0.00  0.00    +0.061 S 
ATOM     25  O   UNL     1       2.998  -2.098   2.015  0.00  0.00    -0.153 OA
ATOM     26  O   UNL     1       1.587  -4.150   1.986  0.00  0.00    -0.153 OA
BRANCH  24  32
ATOM     27  C   UNL     1      -0.019   1.526   0.010  0.00  0.00    +0.009 C 
ATOM     28  C   UNL     1       0.002  -0.004   0.002  0.00  0.00    +0.002 C 
ATOM     29  C   UNL     1      -1.433  -0.534   0.015  0.00  0.00    +0.009 C 
ATOM     30  C   UNL     1      -1.414  -2.064  -0.027  0.00  0.00    +0.002 C 
ATOM     31  C   UNL     1      -0.692  -2.596   1.215  0.00  0.00    +0.112 C 
ATOM     32  N   UNL     1       0.639  -1.977   1.288  0.00  0.00    -0.176 NA
ATOM     33  C   UNL     1       0.742  -0.512   1.244  0.00  0.00    +0.112 C 
ATOM     34  C   UNL     1      -2.850  -2.592  -0.049  0.00  0.00    +0.009 C 
ENDBRANCH  24  32
ENDBRANCH   1  24
TORSDOF 4
