REMARK  Name = ZINC39958110
REMARK  10 active torsions:
REMARK  status: ('A' for Active; 'I' for Inactive)
REMARK    1  A    between atoms: C_1  and  C_2
REMARK    2  A    between atoms: C_4  and  C_16
REMARK    3  A    between atoms: C_6  and  C_14
REMARK    4  A    between atoms: C_7  and  N_13
REMARK    5  A    between atoms: N_18  and  C_25
REMARK    6  A    between atoms: C_25  and  C_26
REMARK    7  A    between atoms: C_26  and  O_27
REMARK    8  A    between atoms: O_27  and  C_28
REMARK    9  A    between atoms: C_33  and  O_34
REMARK   10  A    between atoms: O_34  and  C_35
REMARK                            x       y       z     vdW  Elec       q    Type
REMARK                         _______ _______ _______ _____ _____    ______ ____
ROOT
ATOM      1  C   UNL     1      -3.201  -0.585   1.227  0.00  0.00    -0.010 A 
ATOM      2  C   UNL     1      -3.231  -1.660   2.030  0.00  0.00    +0.091 A 
ATOM      3  N   UNL     1      -3.925  -1.370   3.173  0.00  0.00    -0.343 N 
ATOM      4  C   UNL     1      -4.370  -0.068   3.132  0.00  0.00    +0.049 A 
ATOM      5  C   UNL     1      -3.931   0.483   1.915  0.00  0.00    +0.004 A 
ATOM      6  C   UNL     1      -4.235   1.809   1.600  0.00  0.00    +0.010 A 
ATOM      7  C   UNL     1      -4.955   2.567   2.480  0.00  0.00    +0.001 A 
ATOM      8  C   UNL     1      -5.388   2.029   3.684  0.00  0.00    +0.002 A 
ATOM      9  C   UNL     1      -5.107   0.720   4.010  0.00  0.00    +0.026 A 
ENDROOT
BRANCH   1  13
ATOM     10  C   UNL     1      -0.018   1.503   0.010  0.00  0.00    +0.067 C 
ATOM     11  C   UNL     1       0.002  -0.004   0.002  0.00  0.00    +0.066 C 
ATOM     12  C   UNL     1      -1.064  -0.768   0.003  0.00  0.00    +0.030 C 
ATOM     13  C   UNL     1      -2.537  -0.492  -0.122  0.00  0.00    +0.100 C 
ATOM     14  C   UNL     1      -3.075  -1.565  -1.050  0.00  0.00    +0.098 C 
ATOM     15  C   UNL     1      -2.317  -2.612  -1.438  0.00  0.00    +0.195 C 
ATOM     16  O   UNL     1      -1.033  -2.841  -1.107  0.00  0.00    -0.448 OA
ATOM     17  C   UNL     1      -0.528  -2.199   0.066  0.00  0.00    +0.343 C 
ATOM     18  N   UNL     1       0.921  -1.985   0.002  0.00  0.00    -0.138 NA
ATOM     19  N   UNL     1       1.127  -0.765  -0.013  0.00  0.00    -0.155 NA
BRANCH  15  20
ATOM     20  N   UNL     1      -2.917  -3.538  -2.254  0.00  0.00    -0.329 N 
ATOM     21  H   UNL     1      -3.842  -3.421  -2.523  0.00  0.00    +0.145 HD
ATOM     22  H   UNL     1      -2.417  -4.310  -2.562  0.00  0.00    +0.145 HD
ENDBRANCH  15  20
BRANCH  14  23
ATOM     23  C   UNL     1      -4.422  -1.466  -1.525  0.00  0.00    +0.101 C 
ATOM     24  N   UNL     1      -5.491  -1.387  -1.903  0.00  0.00    -0.191 NA
ENDBRANCH  14  23
ENDBRANCH   1  13
BRANCH   3  25
ATOM     25  C   UNL     1      -4.160  -2.306   4.275  0.00  0.00    +0.162 C 
BRANCH  25  26
ATOM     26  C   UNL     1      -5.522  -2.979   4.092  0.00  0.00    +0.250 C 
BRANCH  26  27
ATOM     27  O   UNL     1      -5.751  -3.892   5.167  0.00  0.00    -0.487 OA
BRANCH  27  28
ATOM     28  C   UNL     1      -6.925  -4.577   5.156  0.00  0.00    +0.162 A 
ATOM     29  C   UNL     1      -7.834  -4.380   4.128  0.00  0.00    +0.049 A 
ATOM     30  C   UNL     1      -9.027  -5.079   4.118  0.00  0.00    +0.004 A 
ATOM     31  C   UNL     1      -9.316  -5.974   5.131  0.00  0.00    +0.004 A 
ATOM     32  C   UNL     1      -8.414  -6.175   6.159  0.00  0.00    +0.049 A 
ATOM     33  C   UNL     1      -7.214  -5.483   6.172  0.00  0.00    +0.161 A 
BRANCH  33  34
ATOM     34  O   UNL     1      -6.323  -5.684   7.179  0.00  0.00    -0.491 OA
ATOM     35  C   UNL     1      -6.686  -6.628   8.188  0.00  0.00    +0.277 C 
ENDBRANCH  33  34
ENDBRANCH  27  28
ENDBRANCH  26  27
ENDBRANCH  25  26
ENDBRANCH   3  25
TORSDOF 8
