REMARK  Name = ZINC16254628
REMARK  6 active torsions:
REMARK  status: ('A' for Active; 'I' for Inactive)
REMARK    1  A    between atoms: C_4  and  C_7
REMARK    2  A    between atoms: C_7  and  C_28
REMARK    3  A    between atoms: N_10  and  C_14
REMARK    4  A    between atoms: C_14  and  C_15
REMARK    5  A    between atoms: N_17  and  C_18
REMARK    6  A    between atoms: C_22  and  N_24
REMARK                            x       y       z     vdW  Elec       q    Type
REMARK                         _______ _______ _______ _____ _____    ______ ____
ROOT
ATOM      1  C   UNL     1       1.500   0.185  -0.183  0.00  0.00    +0.164 C 
ATOM      2  C   UNL     1       1.468   1.473   0.615  0.00  0.00    +0.256 C 
ATOM      3  O   UNL     1       2.392   1.994   1.202  0.00  0.00    -0.272 OA
ATOM      4  N   UNL     1       0.199   1.919   0.534  0.00  0.00    -0.215 N 
ATOM      5  C   UNL     1      -0.567   1.101  -0.196  0.00  0.00    +0.310 C 
ATOM      6  O   UNL     1      -1.748   1.292  -0.410  0.00  0.00    -0.252 OA
ATOM      7  N   UNL     1       0.116   0.041  -0.666  0.00  0.00    -0.278 N 
ATOM      8  H   UNL     1      -0.235  -0.677  -1.216  0.00  0.00    +0.152 HD
ENDROOT
BRANCH   1  12
ATOM      9  C   UNL     1       2.568  -3.108   2.320  0.00  0.00    +0.000 A 
ATOM     10  C   UNL     1       3.340  -1.961   2.320  0.00  0.00    +0.000 A 
ATOM     11  C   UNL     1       2.994  -0.895   1.510  0.00  0.00    +0.006 A 
ATOM     12  C   UNL     1       1.877  -0.977   0.700  0.00  0.00    -0.011 A 
ATOM     13  C   UNL     1       1.102  -2.122   0.704  0.00  0.00    +0.006 A 
ATOM     14  C   UNL     1       1.450  -3.189   1.511  0.00  0.00    +0.000 A 
ENDBRANCH   1  12
BRANCH   1  15
ATOM     15  C   UNL     1       2.457   0.299  -1.343  0.00  0.00    -0.011 A 
ATOM     16  C   UNL     1       3.748   0.746  -1.132  0.00  0.00    +0.006 A 
ATOM     17  C   UNL     1       4.626   0.847  -2.195  0.00  0.00    +0.000 A 
ATOM     18  C   UNL     1       4.211   0.510  -3.469  0.00  0.00    +0.000 A 
ATOM     19  C   UNL     1       2.918   0.068  -3.681  0.00  0.00    +0.000 A 
ATOM     20  C   UNL     1       2.041  -0.037  -2.617  0.00  0.00    +0.006 A 
ENDBRANCH   1  15
BRANCH   4  21
ATOM     21  C   UNL     1      -0.281   3.152   1.164  0.00  0.00    +0.214 C 
BRANCH  21  22
ATOM     22  C   UNL     1      -0.782   2.845   2.552  0.00  0.00    +0.235 C 
ATOM     23  O   UNL     1      -0.743   1.708   2.973  0.00  0.00    -0.274 OA
ATOM     24  N   UNL     1      -1.275   3.833   3.324  0.00  0.00    -0.284 N 
ATOM     25  H   UNL     1      -1.377   4.727   2.961  0.00  0.00    +0.155 HD
BRANCH  24  26
ATOM     26  C   UNL     1      -1.639   3.570   4.650  0.00  0.00    +0.036 A 
ATOM     27  C   UNL     1      -2.700   4.255   5.229  0.00  0.00    +0.026 A 
ATOM     28  C   UNL     1      -3.062   3.989   6.535  0.00  0.00    +0.042 A 
ATOM     29  C   UNL     1      -2.360   3.050   7.272  0.00  0.00    +0.154 A 
ATOM     30  C   UNL     1      -1.298   2.370   6.698  0.00  0.00    +0.163 A 
ATOM     31  C   UNL     1      -0.937   2.629   5.390  0.00  0.00    +0.059 A 
ATOM     32  F   UNL     1      -2.711   2.796   8.551  0.00  0.00    -0.203 F 
BRANCH  30  33
ATOM     33  N   UNL     1      -0.550   1.366   7.487  0.00  0.00    +0.059 N 
ATOM     34  O   UNL     1       0.384   0.768   6.984  0.00  0.00    -0.126 OA
ATOM     35  O   UNL     1      -0.868   1.138   8.641  0.00  0.00    -0.126 OA
ENDBRANCH  30  33
ENDBRANCH  24  26
ENDBRANCH  21  22
ENDBRANCH   4  21
TORSDOF 6
