REMARK  Name = ZINC39687153
REMARK  7 active torsions:
REMARK  status: ('A' for Active; 'I' for Inactive)
REMARK    1  A    between atoms: C_1  and  C_2
REMARK    2  A    between atoms: C_2  and  C_4
REMARK    3  A    between atoms: C_2  and  N_12
REMARK    4  A    between atoms: C_4  and  C_5
REMARK    5  A    between atoms: C_13  and  C_15
REMARK    6  A    between atoms: C_26  and  C_28
REMARK    7  A    between atoms: C_31  and  C_33
REMARK                            x       y       z     vdW  Elec       q    Type
REMARK                         _______ _______ _______ _____ _____    ______ ____
ROOT
ATOM      1  C   UNL     1       2.231  -2.019   1.558  0.00  0.00    +0.100 C 
ATOM      2  C   UNL     1       2.093  -3.535   1.824  0.00  0.00    +0.121 C 
ATOM      3  N   UNL     1       3.296  -4.136   1.201  0.00  0.00    -0.294 N 
ATOM      4  C   UNL     1       4.387  -3.180   1.509  0.00  0.00    +0.115 C 
ATOM      5  C   UNL     1       3.738  -1.790   1.355  0.00  0.00    -0.004 C 
ATOM      6  C   UNL     1       4.006  -1.236  -0.041  0.00  0.00    -0.010 C 
ATOM      7  C   UNL     1       5.504  -0.963  -0.198  0.00  0.00    -0.082 C 
ATOM      8  N   UNL     1       5.938  -0.002   0.823  0.00  0.00    +0.379 N 
ATOM      9  C   UNL     1       5.763  -0.579   2.161  0.00  0.00    -0.082 C 
ATOM     10  C   UNL     1       4.276  -0.836   2.418  0.00  0.00    -0.010 C 
ATOM     11  C   UNL     1       3.380  -5.290   0.511  0.00  0.00    +0.282 C 
ATOM     12  O   UNL     1       4.463  -5.695   0.131  0.00  0.00    -0.267 OA
ATOM     13  H   UNL     1       6.911   0.223   0.679  0.00  0.00    -0.086 HD
ATOM     14  H   UNL     1       5.387   0.840   0.746  0.00  0.00    -0.086 HD
ENDROOT
BRANCH  11  15
ATOM     15  C   UNL     1       2.167  -6.059   0.219  0.00  0.00    +0.190 A 
ATOM     16  C   UNL     1       2.119  -7.297  -0.384  0.00  0.00    +0.055 A 
ATOM     17  C   UNL     1       0.770  -7.654  -0.465  0.00  0.00    +0.051 A 
ATOM     18  C   UNL     1       0.050  -6.633   0.086  0.00  0.00    +0.139 A 
ATOM     19  O   UNL     1       0.902  -5.680   0.499  0.00  0.00    -0.450 OA
BRANCH  18  20
ATOM     20  C   UNL     1      -1.420  -6.586   0.211  0.00  0.00    +0.052 A 
ATOM     21  C   UNL     1      -2.227  -6.774  -0.913  0.00  0.00    +0.014 A 
ATOM     22  C   UNL     1      -3.599  -6.729  -0.789  0.00  0.00    +0.001 A 
ATOM     23  C   UNL     1      -4.180  -6.499   0.446  0.00  0.00    +0.003 A 
ATOM     24  C   UNL     1      -3.390  -6.311   1.565  0.00  0.00    +0.039 A 
ATOM     25  C   UNL     1      -2.012  -6.360   1.458  0.00  0.00    +0.134 A 
ATOM     26  F   UNL     1      -1.240  -6.183   2.552  0.00  0.00    -0.205 F 
ENDBRANCH  18  20
ENDBRANCH  11  15
BRANCH   1  28
ATOM     27  N   UNL     1       1.059  -0.361   0.146  0.00  0.00    -0.312 N 
ATOM     28  C   UNL     1       1.470  -1.633   0.316  0.00  0.00    +0.218 C 
ATOM     29  O   UNL     1       1.228  -2.466  -0.531  0.00  0.00    -0.275 OA
ATOM     30  H   UNL     1       1.190   0.290   0.853  0.00  0.00    +0.149 HD
BRANCH  27  32
ATOM     31  C   UNL     1       1.482   0.387  -2.144  0.00  0.00    +0.028 C 
ATOM     32  C   UNL     1       0.412   0.039  -1.106  0.00  0.00    +0.074 C 
BRANCH  32  33
ATOM     33  C   UNL     1      -0.472   1.262  -0.856  0.00  0.00    +0.060 C 
BRANCH  33  34
ATOM     34  C   UNL     1      -1.616   0.879   0.047  0.00  0.00    -0.010 A 
ATOM     35  C   UNL     1      -2.826   0.491  -0.497  0.00  0.00    +0.006 A 
ATOM     36  C   UNL     1      -3.876   0.139   0.330  0.00  0.00    +0.000 A 
ATOM     37  C   UNL     1      -3.717   0.175   1.703  0.00  0.00    +0.003 A 
ATOM     38  C   UNL     1      -2.508   0.562   2.250  0.00  0.00    +0.038 A 
ATOM     39  C   UNL     1      -1.454   0.910   1.421  0.00  0.00    +0.127 A 
ATOM     40  F   UNL     1      -0.271   1.284   1.954  0.00  0.00    -0.205 F 
ENDBRANCH  33  34
ENDBRANCH  32  33
ENDBRANCH  27  32
ENDBRANCH   1  28
TORSDOF 6
