REMARK  Name = ZINC24660103
REMARK  13 active torsions:
REMARK  status: ('A' for Active; 'I' for Inactive)
REMARK    1  A    between atoms: C_1  and  C_2
REMARK    2  A    between atoms: C_2  and  C_3
REMARK    3  A    between atoms: C_3  and  C_4
REMARK    4  A    between atoms: C_3  and  C_5
REMARK    5  A    between atoms: C_3  and  C_6
REMARK    6  A    between atoms: C_13  and  N_17
REMARK    7  A    between atoms: C_14  and  C_15
REMARK    8  A    between atoms: C_18  and  C_20
REMARK    9  A    between atoms: C_20  and  S_21
REMARK   10  A    between atoms: S_21  and  C_22
REMARK   11  A    between atoms: C_25  and  S_27
REMARK   12  A    between atoms: S_27  and  C_28
REMARK   13  A    between atoms: C_28  and  C_29
REMARK                            x       y       z     vdW  Elec       q    Type
REMARK                         _______ _______ _______ _____ _____    ______ ____
ROOT
ATOM      1  N   UNL     1      -1.121   2.576   0.022  0.00  0.00    -0.278 N 
ATOM      2  C   UNL     1      -2.367   2.063   0.026  0.00  0.00    +0.228 C 
ATOM      3  O   UNL     1      -2.528   0.861   0.020  0.00  0.00    -0.275 OA
ATOM      4  H   UNL     1      -0.975   3.666   0.027  0.00  0.00    +0.155 HD
ENDROOT
BRANCH   1  11
ATOM      5  C   UNL     1       3.951  -1.290  -0.425  0.00  0.00    -0.000 C 
ATOM      6  C   UNL     1       4.473  -0.119   0.414  0.00  0.00    +0.009 C 
ATOM      7  C   UNL     1       3.797   1.180  -0.028  0.00  0.00    +0.037 C 
ATOM      8  C   UNL     1       2.287   0.976  -0.015  0.00  0.00    -0.018 A 
ATOM      9  C   UNL     1       1.753  -0.266  -0.017  0.00  0.00    -0.004 A 
ATOM     10  S   UNL     1       0.002  -0.004   0.002  0.00  0.00    -0.077 S 
ATOM     11  C   UNL     1      -0.021   1.728   0.011  0.00  0.00    +0.090 A 
ATOM     12  C   UNL     1       1.324   2.063   0.001  0.00  0.00    +0.084 A 
ATOM     13  C   UNL     1       2.493  -1.567  -0.032  0.00  0.00    +0.047 C 
BRANCH   5  14
ATOM     14  C   UNL     1       4.801  -2.533  -0.154  0.00  0.00    -0.032 C 
ATOM     15  C   UNL     1       6.257  -2.248  -0.530  0.00  0.00    +0.011 C 
ATOM     16  C   UNL     1       4.718  -2.894   1.330  0.00  0.00    +0.011 C 
BRANCH  14  18
ATOM     17  C   UNL     1       5.127  -4.944  -0.723  0.00  0.00    +0.004 C 
ATOM     18  C   UNL     1       4.278  -3.701  -0.993  0.00  0.00    +0.003 C 
ENDBRANCH  14  18
ENDBRANCH   5  14
BRANCH  12  19
ATOM     19  C   UNL     1       1.749   3.430   0.003  0.00  0.00    +0.102 C 
ATOM     20  N   UNL     1       2.086   4.515   0.005  0.00  0.00    -0.191 NA
ENDBRANCH  12  19
ENDBRANCH   1  11
BRANCH   2  21
ATOM     21  C   UNL     1      -3.560   2.983   0.037  0.00  0.00    +0.172 C 
BRANCH  21  22
ATOM     22  S   UNL     1      -5.083   1.998   0.040  0.00  0.00    -0.088 S 
BRANCH  22  23
ATOM     23  C   UNL     1      -6.370   3.202   0.053  0.00  0.00    +0.160 A 
ATOM     24  N   UNL     1      -6.283   4.518   0.058  0.00  0.00    -0.134 NA
ATOM     25  N   UNL     1      -7.428   5.280   0.068  0.00  0.00    -0.134 NA
ATOM     26  C   UNL     1      -8.609   4.690   0.071  0.00  0.00    +0.160 A 
ATOM     27  S   UNL     1      -8.141   2.966   0.053  0.00  0.00    -0.033 S 
BRANCH  26  28
ATOM     28  S   UNL     1     -10.217   5.410   0.082  0.00  0.00    -0.088 S 
BRANCH  28  29
ATOM     29  C   UNL     1      -9.898   7.196   0.088  0.00  0.00    +0.171 C 
BRANCH  29  30
ATOM     30  C   UNL     1     -11.208   7.941   0.098  0.00  0.00    +0.221 C 
ATOM     31  O   UNL     1     -12.254   7.327   0.101  0.00  0.00    -0.275 OA
ATOM     32  N   UNL     1     -11.217   9.288   0.104  0.00  0.00    -0.329 N 
ATOM     33  H   UNL     1     -12.174   9.832   0.111  0.00  0.00    +0.145 HD
ATOM     34  H   UNL     1     -10.268   9.845   0.102  0.00  0.00    +0.145 HD
ENDBRANCH  29  30
ENDBRANCH  28  29
ENDBRANCH  26  28
ENDBRANCH  22  23
ENDBRANCH  21  22
ENDBRANCH   2  21
TORSDOF 10
