REMARK  Name = ZINC06003213
REMARK  12 active torsions:
REMARK  status: ('A' for Active; 'I' for Inactive)
REMARK    1  A    between atoms: C_1  and  C_2
REMARK    2  A    between atoms: C_4  and  C_23
REMARK    3  A    between atoms: C_13  and  N_15
REMARK    4  A    between atoms: N_15  and  N_16
REMARK    5  A    between atoms: N_16  and  C_17
REMARK    6  A    between atoms: C_17  and  N_19
REMARK    7  A    between atoms: C_25  and  O_33
REMARK    8  A    between atoms: C_26  and  O_31
REMARK    9  A    between atoms: C_27  and  O_29
REMARK   10  A    between atoms: O_29  and  C_30
REMARK   11  A    between atoms: O_31  and  C_32
REMARK   12  A    between atoms: O_33  and  C_34
REMARK                            x       y       z     vdW  Elec       q    Type
REMARK                         _______ _______ _______ _____ _____    ______ ____
ROOT
ATOM      1  C   UNL     1       2.425   6.353   0.648  0.00  0.00    +0.013 C 
ATOM      2  C   UNL     1       1.719   5.808  -0.595  0.00  0.00    +0.055 C 
ATOM      3  C   UNL     1       0.212   6.048  -0.478  0.00  0.00    +0.061 C 
ATOM      4  C   UNL     1      -0.449   5.787  -1.809  0.00  0.00    +0.006 A 
ATOM      5  C   UNL     1      -1.818   5.577  -1.841  0.00  0.00    +0.057 A 
ATOM      6  C   UNL     1      -2.461   5.336  -3.042  0.00  0.00    +0.167 A 
ATOM      7  C   UNL     1      -1.728   5.306  -4.226  0.00  0.00    +0.170 A 
ATOM      8  C   UNL     1      -0.361   5.515  -4.192  0.00  0.00    +0.095 A 
ATOM      9  C   UNL     1       0.283   5.754  -2.982  0.00  0.00    +0.130 A 
ATOM     10  O   UNL     1       1.629   5.943  -2.992  0.00  0.00    -0.472 OA
ATOM     11  C   UNL     1       2.228   6.542  -1.842  0.00  0.00    +0.262 C 
ATOM     12  O   UNL     1      -2.581   5.054  -5.261  0.00  0.00    -0.452 OA
ATOM     13  C   UNL     1      -3.775   4.526  -4.656  0.00  0.00    +0.466 C 
ATOM     14  O   UNL     1      -3.775   5.103  -3.337  0.00  0.00    -0.453 OA
ENDROOT
BRANCH   3  15
ATOM     15  C   UNL     1      -0.365   5.119   0.559  0.00  0.00    -0.032 A 
ATOM     16  C   UNL     1      -0.999   5.638   1.672  0.00  0.00    +0.054 A 
ATOM     17  C   UNL     1      -1.531   4.787   2.629  0.00  0.00    +0.165 A 
ATOM     18  C   UNL     1      -1.426   3.410   2.467  0.00  0.00    +0.204 A 
ATOM     19  C   UNL     1      -0.787   2.893   1.346  0.00  0.00    +0.165 A 
ATOM     20  C   UNL     1      -0.254   3.751   0.397  0.00  0.00    +0.054 A 
BRANCH  19  21
ATOM     21  O   UNL     1      -0.682   1.547   1.184  0.00  0.00    -0.491 OA
ATOM     22  C   UNL     1      -0.013   1.086   0.008  0.00  0.00    +0.277 C 
ENDBRANCH  19  21
BRANCH  18  23
ATOM     23  O   UNL     1      -1.946   2.571   3.404  0.00  0.00    -0.488 OA
ATOM     24  C   UNL     1      -1.086   2.183   4.477  0.00  0.00    +0.277 C 
ENDBRANCH  18  23
BRANCH  17  25
ATOM     25  O   UNL     1      -2.155   5.298   3.724  0.00  0.00    -0.491 OA
ATOM     26  C   UNL     1      -2.226   6.721   3.825  0.00  0.00    +0.277 C 
ENDBRANCH  17  25
ENDBRANCH   3  15
BRANCH  11  27
ATOM     27  N   UNL     1       3.690   6.421  -1.926  0.00  0.00    -0.203 NA
ATOM     28  H   UNL     1       4.096   6.301  -1.010  0.00  0.00    +0.148 HD
BRANCH  27  29
ATOM     29  N   UNL     1       4.234   7.499  -2.566  0.00  0.00    -0.259 N 
ATOM     30  H   UNL     1       3.660   8.210  -2.892  0.00  0.00    +0.168 HD
BRANCH  29  31
ATOM     31  C   UNL     1       5.568   7.574  -2.743  0.00  0.00    +0.142 C 
ATOM     32  S   UNL     1       6.250   8.925  -3.544  0.00  0.00    -0.018 S 
BRANCH  31  33
ATOM     33  N   UNL     1       6.365   6.587  -2.289  0.00  0.00    -0.340 N 
ATOM     34  H   UNL     1       5.979   5.822  -1.835  0.00  0.00    +0.144 HD
ATOM     35  H   UNL     1       7.325   6.641  -2.416  0.00  0.00    +0.144 HD
ENDBRANCH  31  33
ENDBRANCH  29  31
ENDBRANCH  27  29
ENDBRANCH  11  27
TORSDOF 8
