REMARK  Name = ZINC39683174
REMARK  10 active torsions:
REMARK  status: ('A' for Active; 'I' for Inactive)
REMARK    1  A    between atoms: C_1  and  C_2
REMARK    2  A    between atoms: C_2  and  C_3
REMARK    3  A    between atoms: C_2  and  C_4
REMARK    4  A    between atoms: C_4  and  O_5
REMARK    5  A    between atoms: O_5  and  C_6
REMARK    6  A    between atoms: C_6  and  C_7
REMARK    7  A    between atoms: C_7  and  C_8
REMARK    8  A    between atoms: C_8  and  N_9
REMARK    9  A    between atoms: C_10  and  C_12
REMARK   10  A    between atoms: C_23  and  C_25
REMARK                            x       y       z     vdW  Elec       q    Type
REMARK                         _______ _______ _______ _____ _____    ______ ____
ROOT
ATOM      1  C   UNL     1      -4.638  -8.659  -0.589  0.00  0.00    +0.100 C 
ATOM      2  C   UNL     1      -3.837  -9.180   0.627  0.00  0.00    +0.121 C 
ATOM      3  N   UNL     1      -4.868  -9.521   1.635  0.00  0.00    -0.296 N 
ATOM      4  C   UNL     1      -5.966 -10.131   0.848  0.00  0.00    +0.115 C 
ATOM      5  C   UNL     1      -6.033  -9.289  -0.441  0.00  0.00    -0.004 C 
ATOM      6  C   UNL     1      -7.092  -8.199  -0.304  0.00  0.00    -0.010 C 
ATOM      7  C   UNL     1      -8.476  -8.848  -0.216  0.00  0.00    -0.082 C 
ATOM      8  N   UNL     1      -8.721  -9.648  -1.423  0.00  0.00    +0.379 N 
ATOM      9  C   UNL     1      -7.755 -10.750  -1.498  0.00  0.00    -0.082 C 
ATOM     10  C   UNL     1      -6.340 -10.181  -1.640  0.00  0.00    -0.010 C 
ATOM     11  C   UNL     1      -4.818  -9.322   2.967  0.00  0.00    +0.247 C 
ATOM     12  O   UNL     1      -5.712  -9.739   3.678  0.00  0.00    -0.270 OA
ATOM     13  H   UNL     1      -9.657 -10.024  -1.391  0.00  0.00    -0.086 HD
ATOM     14  H   UNL     1      -8.626  -9.062  -2.239  0.00  0.00    -0.086 HD
ENDROOT
BRANCH  11  15
ATOM     15  C   UNL     1      -3.677  -8.597   3.564  0.00  0.00    +0.045 A 
ATOM     16  C   UNL     1      -2.366  -8.972   3.250  0.00  0.00    +0.014 A 
ATOM     17  C   UNL     1      -1.300  -8.298   3.805  0.00  0.00    +0.001 A 
ATOM     18  C   UNL     1      -1.513  -7.242   4.678  0.00  0.00    +0.012 A 
ATOM     19  C   UNL     1      -2.808  -6.855   5.003  0.00  0.00    +0.031 A 
ATOM     20  C   UNL     1      -3.904  -7.529   4.440  0.00  0.00    +0.006 A 
ATOM     21  C   UNL     1      -5.154  -6.910   4.947  0.00  0.00    -0.006 A 
ATOM     22  C   UNL     1      -6.492  -7.198   4.710  0.00  0.00    +0.009 A 
ATOM     23  C   UNL     1      -7.482  -6.447   5.325  0.00  0.00    +0.001 A 
ATOM     24  C   UNL     1      -7.148  -5.411   6.176  0.00  0.00    +0.001 A 
ATOM     25  C   UNL     1      -5.818  -5.112   6.422  0.00  0.00    +0.012 A 
ATOM     26  C   UNL     1      -4.816  -5.856   5.813  0.00  0.00    +0.030 A 
ATOM     27  C   UNL     1      -3.337  -5.788   5.887  0.00  0.00    +0.194 C 
ATOM     28  O   UNL     1      -2.682  -5.000   6.537  0.00  0.00    -0.287 OA
ENDBRANCH  11  15
BRANCH   1  30
ATOM     29  N   UNL     1      -4.823  -6.456  -1.697  0.00  0.00    -0.315 N 
ATOM     30  C   UNL     1      -4.733  -7.156  -0.549  0.00  0.00    +0.218 C 
ATOM     31  O   UNL     1      -4.729  -6.576   0.516  0.00  0.00    -0.275 OA
ATOM     32  H   UNL     1      -4.827  -6.920  -2.549  0.00  0.00    +0.149 HD
BRANCH  29  33
ATOM     33  C   UNL     1      -4.916  -4.995  -1.659  0.00  0.00    +0.106 C 
BRANCH  33  34
ATOM     34  C   UNL     1      -5.008  -4.452  -3.086  0.00  0.00    +0.047 C 
BRANCH  34  35
ATOM     35  C   UNL     1      -5.105  -2.925  -3.046  0.00  0.00    +0.161 C 
BRANCH  35  36
ATOM     36  O   UNL     1      -5.190  -2.418  -4.380  0.00  0.00    -0.379 OA
BRANCH  36  37
ATOM     37  C   UNL     1      -5.285  -0.994  -4.455  0.00  0.00    +0.162 C 
BRANCH  37  39
ATOM     38  C   UNL     1      -5.597   0.945  -5.999  0.00  0.00    +0.009 C 
ATOM     39  C   UNL     1      -5.370  -0.566  -5.921  0.00  0.00    +0.009 C 
ATOM     40  C   UNL     1      -4.064  -0.923  -6.634  0.00  0.00    +0.009 C 
ENDBRANCH  37  39
ENDBRANCH  36  37
ENDBRANCH  35  36
ENDBRANCH  34  35
ENDBRANCH  33  34
ENDBRANCH  29  33
ENDBRANCH   1  30
TORSDOF 8
