REMARK  Name = ZINC40113355
REMARK  5 active torsions:
REMARK  status: ('A' for Active; 'I' for Inactive)
REMARK    1  A    between atoms: C_1  and  N_2
REMARK    2  A    between atoms: C_10  and  C_12
REMARK    3  A    between atoms: C_13  and  C_14
REMARK    4  A    between atoms: C_13  and  C_16
REMARK    5  A    between atoms: N_18  and  C_19
REMARK                            x       y       z     vdW  Elec       q    Type
REMARK                         _______ _______ _______ _____ _____    ______ ____
ROOT
ATOM      1  C   UNL     1       4.899  -2.713  -0.502  0.00  0.00    +0.032 C 
ATOM      2  C   UNL     1       4.927  -4.020  -0.941  0.00  0.00    +0.114 C 
ENDROOT
BRANCH   1  12
ATOM      3  C   UNL     1      -0.041   1.390   0.295  0.00  0.00    +0.129 C 
ATOM      4  N   UNL     1      -0.011  -0.071   0.199  0.00  0.00    -0.333 N 
ATOM      5  C   UNL     1      -1.254  -0.849   0.278  0.00  0.00    +0.105 C 
ATOM      6  C   UNL     1      -1.006  -2.038   1.215  0.00  0.00    +0.024 C 
ATOM      7  C   UNL     1       0.069  -2.934   0.599  0.00  0.00    +0.038 C 
ATOM      8  C   UNL     1       1.277  -2.120   0.218  0.00  0.00    -0.026 A 
ATOM      9  C   UNL     1       1.196  -0.743   0.027  0.00  0.00    +0.033 A 
ATOM     10  C   UNL     1       2.329  -0.013  -0.337  0.00  0.00    +0.024 A 
ATOM     11  C   UNL     1       3.527  -0.643  -0.510  0.00  0.00    +0.010 A 
ATOM     12  C   UNL     1       3.618  -2.030  -0.321  0.00  0.00    -0.023 A 
ATOM     13  C   UNL     1       2.476  -2.759   0.053  0.00  0.00    +0.013 A 
ENDBRANCH   1  12
BRANCH   2  14
ATOM     14  C   UNL     1       6.198  -4.760  -0.967  0.00  0.00    +0.259 C 
ATOM     15  O   UNL     1       7.224  -4.219  -0.601  0.00  0.00    -0.269 OA
ATOM     16  N   UNL     1       6.225  -6.037  -1.395  0.00  0.00    -0.281 N 
ATOM     17  H   UNL     1       5.398  -6.491  -1.620  0.00  0.00    +0.155 HD
BRANCH  16  18
ATOM     18  C   UNL     1       7.446  -6.708  -1.516  0.00  0.00    +0.035 A 
ATOM     19  C   UNL     1       7.642  -7.617  -2.549  0.00  0.00    +0.023 A 
ATOM     20  C   UNL     1       8.849  -8.278  -2.666  0.00  0.00    +0.003 A 
ATOM     21  C   UNL     1       9.862  -8.036  -1.756  0.00  0.00    +0.015 A 
ATOM     22  C   UNL     1       9.671  -7.133  -0.727  0.00  0.00    +0.020 A 
ATOM     23  C   UNL     1       8.467  -6.463  -0.608  0.00  0.00    +0.038 A 
ATOM     24 BR   UNL     1      11.060  -6.807   0.515  0.00  0.00    -0.050 Br
ENDBRANCH  16  18
ENDBRANCH   2  14
BRANCH   2  25
ATOM     25  C   UNL     1       3.719  -4.657  -1.371  0.00  0.00    +0.104 C 
ATOM     26  N   UNL     1       2.760  -5.162  -1.713  0.00  0.00    -0.191 NA
ENDBRANCH   2  25
TORSDOF 4
