REMARK  Name = ZINC27240178
REMARK  12 active torsions:
REMARK  status: ('A' for Active; 'I' for Inactive)
REMARK    1  A    between atoms: C_1  and  C_2
REMARK    2  A    between atoms: C_2  and  C_3
REMARK    3  A    between atoms: C_6  and  C_9
REMARK    4  A    between atoms: C_9  and  C_10
REMARK    5  A    between atoms: C_9  and  C_18
REMARK    6  A    between atoms: C_9  and  O_35
REMARK    7  A    between atoms: C_15  and  O_16
REMARK    8  A    between atoms: O_16  and  C_17
REMARK    9  A    between atoms: C_18  and  C_20
REMARK   10  A    between atoms: C_18  and  O_28
REMARK   11  A    between atoms: C_20  and  N_21
REMARK   12  A    between atoms: O_28  and  C_29
REMARK                            x       y       z     vdW  Elec       q    Type
REMARK                         _______ _______ _______ _____ _____    ______ ____
ROOT
ATOM      1  C   UNL     1      -1.965   2.140   2.998  0.00  0.00    +0.154 C 
ENDROOT
BRANCH   1   5
ATOM      2  C   UNL     1      -4.927   1.938   6.069  0.00  0.00    -0.048 A 
ATOM      3  C   UNL     1      -4.941   1.022   5.034  0.00  0.00    +0.004 A 
ATOM      4  C   UNL     1      -3.982   1.087   4.040  0.00  0.00    +0.007 A 
ATOM      5  C   UNL     1      -3.010   2.069   4.081  0.00  0.00    -0.008 A 
ATOM      6  C   UNL     1      -2.993   2.982   5.119  0.00  0.00    +0.007 A 
ATOM      7  C   UNL     1      -3.954   2.919   6.110  0.00  0.00    +0.004 A 
BRANCH   2   9
ATOM      8  C   UNL     1      -5.474   0.966   8.284  0.00  0.00    +0.009 C 
ATOM      9  C   UNL     1      -5.972   1.867   7.152  0.00  0.00    +0.032 C 
ENDBRANCH   2   9
ENDBRANCH   1   5
BRANCH   1  10
ATOM     10  C   UNL     1      -0.840   1.191   3.321  0.00  0.00    +0.033 A 
ATOM     11  C   UNL     1      -0.450   0.240   2.397  0.00  0.00    +0.010 A 
ATOM     12  C   UNL     1       0.578  -0.634   2.695  0.00  0.00    +0.001 A 
ATOM     13  C   UNL     1       1.222  -0.558   3.917  0.00  0.00    +0.004 A 
ATOM     14  C   UNL     1       0.839   0.393   4.842  0.00  0.00    +0.046 A 
ATOM     15  C   UNL     1      -0.193   1.273   4.545  0.00  0.00    +0.126 A 
BRANCH  15  16
ATOM     16  O   UNL     1      -0.572   2.210   5.454  0.00  0.00    -0.495 OA
ATOM     17  C   UNL     1       0.206   2.306   6.649  0.00  0.00    +0.277 C 
ENDBRANCH  15  16
ENDBRANCH   1  10
BRANCH   1  18
ATOM     18  O   UNL     1      -2.551   1.776   1.746  0.00  0.00    -0.376 OA
ATOM     19  H   UNL     1      -1.937   1.769   0.833  0.00  0.00    +0.211 HD
ENDBRANCH   1  18
BRANCH   1  20
ATOM     20  C   UNL     1      -1.419   3.566   2.909  0.00  0.00    +0.198 C 
BRANCH  20  21
ATOM     21  C   UNL     1      -2.569   4.537   2.638  0.00  0.00    -0.030 C 
BRANCH  21  22
ATOM     22  N   UNL     1      -2.045   5.907   2.553  0.00  0.00    +0.382 N 
ATOM     23  C   UNL     1      -1.407   6.311   3.826  0.00  0.00    -0.079 C 
ATOM     24  C   UNL     1      -1.099   7.782   3.884  0.00  0.00    -0.019 C 
ATOM     25  C   UNL     1      -2.279   8.502   4.569  0.00  0.00    -0.002 C 
ATOM     26  C   UNL     1      -3.408   8.693   3.666  0.00  0.00    -0.002 C 
ATOM     27  C   UNL     1      -3.977   7.353   3.154  0.00  0.00    -0.019 C 
ATOM     28  C   UNL     1      -3.080   6.842   2.058  0.00  0.00    -0.079 C 
ATOM     29  H   UNL     1      -1.242   5.934   1.801  0.00  0.00    -0.082 HD
ENDBRANCH  21  22
ENDBRANCH  20  21
BRANCH  20  30
ATOM     30  O   UNL     1      -0.467   3.647   1.846  0.00  0.00    -0.487 OA
BRANCH  30  31
ATOM     31  C   UNL     1       0.847   3.582   2.187  0.00  0.00    +0.121 A 
ATOM     32  C   UNL     1       1.218   3.572   3.524  0.00  0.00    +0.045 A 
ATOM     33  C   UNL     1       2.553   3.501   3.869  0.00  0.00    +0.004 A 
ATOM     34  C   UNL     1       3.521   3.450   2.882  0.00  0.00    +0.000 A 
ATOM     35  C   UNL     1       3.154   3.465   1.549  0.00  0.00    +0.004 A 
ATOM     36  C   UNL     1       1.820   3.531   1.200  0.00  0.00    +0.045 A 
ENDBRANCH  30  31
ENDBRANCH  20  30
ENDBRANCH   1  20
TORSDOF 10
