REMARK  Name = ZINC39990895
REMARK  10 active torsions:
REMARK  status: ('A' for Active; 'I' for Inactive)
REMARK    1  A    between atoms: C_1  and  C_2
REMARK    2  A    between atoms: C_3  and  C_30
REMARK    3  A    between atoms: C_4  and  C_29
REMARK    4  A    between atoms: C_7  and  C_8
REMARK    5  A    between atoms: C_8  and  C_10
REMARK    6  A    between atoms: C_10  and  C_12
REMARK    7  A    between atoms: C_10  and  S_13
REMARK    8  A    between atoms: S_13  and  C_14
REMARK    9  A    between atoms: C_18  and  C_20
REMARK   10  A    between atoms: C_30  and  C_32
REMARK                            x       y       z     vdW  Elec       q    Type
REMARK                         _______ _______ _______ _____ _____    ______ ____
ROOT
ATOM      1  S   UNL     1      -1.367  -1.543   4.935  0.00  0.00    -0.085 S 
ENDROOT
BRANCH   1   2
ATOM      2  C   UNL     1      -1.432  -3.088   5.883  0.00  0.00    +0.340 C 
ATOM      3  N   UNL     1      -0.071  -3.555   6.200  0.00  0.00    -0.219 N 
ATOM      4  N   UNL     1       0.050  -4.808   5.582  0.00  0.00    -0.145 NA
ATOM      5  C   UNL     1      -1.058  -5.111   4.960  0.00  0.00    +0.238 C 
ATOM      6  O   UNL     1      -1.998  -4.140   5.089  0.00  0.00    -0.443 OA
ATOM      7  H   UNL     1       0.601  -3.092   6.725  0.00  0.00    +0.173 HD
BRANCH   5   8
ATOM      8  C   UNL     1      -1.255  -6.301   4.244  0.00  0.00    +0.043 C 
ATOM      9  C   UNL     1      -0.343  -7.344   4.074  0.00  0.00    +0.008 A 
ATOM     10  C   UNL     1       0.979  -7.537   4.529  0.00  0.00    +0.010 A 
ATOM     11  C   UNL     1       1.643  -8.677   4.203  0.00  0.00    +0.001 A 
ATOM     12  C   UNL     1       1.049  -9.672   3.424  0.00  0.00    +0.002 A 
ATOM     13  C   UNL     1      -0.217  -9.552   2.954  0.00  0.00    +0.026 A 
ATOM     14  C   UNL     1      -0.974  -8.389   3.253  0.00  0.00    +0.043 A 
ATOM     15  N   UNL     1      -2.201  -8.038   2.922  0.00  0.00    -0.380 N 
ATOM     16  C   UNL     1      -2.502  -6.725   3.500  0.00  0.00    +0.154 C 
ATOM     17  H   UNL     1      -2.810  -8.567   2.384  0.00  0.00    +0.160 HD
ENDBRANCH   5   8
ENDBRANCH   1   2
BRANCH   1  18
ATOM     18  C   UNL     1      -0.399  -1.972   3.462  0.00  0.00    +0.121 C 
ATOM     19  C   UNL     1       1.030  -2.327   3.877  0.00  0.00    +0.027 C 
BRANCH  18  20
ATOM     20  C   UNL     1      -0.371  -0.797   2.519  0.00  0.00    +0.192 C 
ATOM     21  O   UNL     1      -0.525   0.329   2.947  0.00  0.00    -0.289 OA
BRANCH  20  28
ATOM     22  C   UNL     1      -0.275   1.458   0.383  0.00  0.00    +0.047 C 
ATOM     23  C   UNL     1      -0.118  -0.026   0.167  0.00  0.00    -0.012 A 
ATOM     24  C   UNL     1       0.111  -0.678  -1.065  0.00  0.00    +0.041 A 
ATOM     25  C   UNL     1       0.189  -2.038  -0.799  0.00  0.00    +0.024 A 
ATOM     26  N   UNL     1       0.018  -2.227   0.517  0.00  0.00    -0.355 N 
ATOM     27  H   UNL     1       0.028  -3.086   0.966  0.00  0.00    +0.166 HD
ATOM     28  C   UNL     1      -0.166  -1.006   1.134  0.00  0.00    +0.087 A 
ATOM     29  C   UNL     1       0.424  -3.121  -1.819  0.00  0.00    +0.064 C 
BRANCH  24  30
ATOM     30  C   UNL     1       0.242  -0.039  -2.379  0.00  0.00    +0.162 C 
ATOM     31  O   UNL     1      -0.746   0.181  -3.047  0.00  0.00    -0.292 OA
ATOM     32  C   UNL     1       1.604   0.344  -2.898  0.00  0.00    +0.091 C 
ENDBRANCH  24  30
ENDBRANCH  20  28
ENDBRANCH  18  20
ENDBRANCH   1  18
TORSDOF 6
