REMARK  Name = ZINC09509328
REMARK  9 active torsions:
REMARK  status: ('A' for Active; 'I' for Inactive)
REMARK    1  A    between atoms: C_1  and  C_2
REMARK    2  A    between atoms: C_2  and  C_3
REMARK    3  A    between atoms: C_3  and  N_4
REMARK    4  A    between atoms: C_5  and  N_34
REMARK    5  A    between atoms: C_6  and  C_13
REMARK    6  A    between atoms: C_13  and  C_15
REMARK    7  A    between atoms: C_15  and  S_16
REMARK    8  A    between atoms: S_16  and  C_17
REMARK    9  A    between atoms: N_27  and  C_28
REMARK                            x       y       z     vdW  Elec       q    Type
REMARK                         _______ _______ _______ _____ _____    ______ ____
ROOT
ATOM      1  C   UNL     1       3.853  -1.711  -0.482  0.00  0.00    +0.157 C 
ENDROOT
BRANCH   1   2
ATOM      2  C   UNL     1       3.773  -3.171  -0.120  0.00  0.00    +0.182 C 
ATOM      3  O   UNL     1       2.696  -3.731  -0.090  0.00  0.00    -0.291 OA
BRANCH   2   6
ATOM      4  N   UNL     1       6.083  -5.927   0.691  0.00  0.00    -0.281 N 
ATOM      5  C   UNL     1       4.917  -5.276   0.405  0.00  0.00    +0.116 A 
ATOM      6  C   UNL     1       4.950  -3.889   0.184  0.00  0.00    +0.120 A 
ATOM      7  C   UNL     1       6.247  -3.208   0.285  0.00  0.00    +0.266 A 
ATOM      8  O   UNL     1       6.334  -2.007   0.108  0.00  0.00    -0.267 OA
ATOM      9  N   UNL     1       7.341  -3.942   0.578  0.00  0.00    -0.274 N 
ATOM     10  H   UNL     1       8.231  -3.493   0.650  0.00  0.00    +0.173 HD
ATOM     11  C   UNL     1       7.248  -5.267   0.774  0.00  0.00    +0.331 A 
ATOM     12  O   UNL     1       8.258  -5.891   1.036  0.00  0.00    -0.246 OA
BRANCH   5  13
ATOM     13  N   UNL     1       3.743  -5.961   0.330  0.00  0.00    -0.344 N 
ATOM     14  H   UNL     1       3.008  -5.607  -0.195  0.00  0.00    +0.144 HD
ATOM     15  H   UNL     1       3.642  -6.802   0.802  0.00  0.00    +0.144 HD
ENDBRANCH   5  13
BRANCH   4  16
ATOM     16  C   UNL     1       6.060  -7.375   0.918  0.00  0.00    +0.128 C 
BRANCH  16  18
ATOM     17  C   UNL     1       5.801  -9.165   2.641  0.00  0.00    +0.005 C 
ATOM     18  C   UNL     1       5.824  -7.654   2.404  0.00  0.00    +0.018 C 
ENDBRANCH  16  18
ENDBRANCH   4  16
ENDBRANCH   2   6
ENDBRANCH   1   2
BRANCH   1  19
ATOM     19  S   UNL     1       2.190  -1.080  -0.815  0.00  0.00    -0.080 S 
BRANCH  19  20
ATOM     20  C   UNL     1       2.570   0.597  -1.201  0.00  0.00    +0.173 A 
ATOM     21  N   UNL     1       3.824   0.977  -1.168  0.00  0.00    -0.223 NA
ATOM     22  C   UNL     1       4.185   2.249  -1.454  0.00  0.00    +0.080 A 
ATOM     23  C   UNL     1       5.522   2.656  -1.419  0.00  0.00    +0.048 A 
ATOM     24  C   UNL     1       5.842   3.962  -1.718  0.00  0.00    +0.043 A 
ATOM     25  C   UNL     1       4.852   4.880  -2.053  0.00  0.00    +0.021 A 
ATOM     26  C   UNL     1       3.538   4.505  -2.093  0.00  0.00    +0.017 A 
ATOM     27  C   UNL     1       3.186   3.189  -1.796  0.00  0.00    +0.065 A 
ATOM     28  C   UNL     1       1.790   2.735  -1.830  0.00  0.00    +0.263 A 
ATOM     29  O   UNL     1       0.885   3.495  -2.123  0.00  0.00    -0.267 OA
ATOM     30  N   UNL     1       1.545   1.440  -1.521  0.00  0.00    -0.284 N 
ATOM     31 CL   UNL     1       7.502   4.470  -1.675  0.00  0.00    -0.083 Cl
BRANCH  30  32
ATOM     32  C   UNL     1       0.169   0.938  -1.536  0.00  0.00    +0.093 C 
ATOM     33  C   UNL     1      -0.657   1.625  -0.428  0.00  0.00    +0.025 C 
ATOM     34  C   UNL     1      -1.365   2.796  -1.154  0.00  0.00    +0.002 C 
ATOM     35  C   UNL     1      -1.721   2.180  -2.531  0.00  0.00    +0.002 C 
ATOM     36  C   UNL     1      -0.507   1.291  -2.872  0.00  0.00    +0.025 C 
ENDBRANCH  30  32
ENDBRANCH  19  20
ENDBRANCH   1  19
TORSDOF 8
