REMARK  Name = ZINC21537407
REMARK  8 active torsions:
REMARK  status: ('A' for Active; 'I' for Inactive)
REMARK    1  A    between atoms: C_1  and  C_2
REMARK    2  A    between atoms: C_2  and  C_3
REMARK    3  A    between atoms: C_6  and  N_9
REMARK    4  A    between atoms: C_10  and  C_12
REMARK    5  A    between atoms: C_12  and  S_13
REMARK    6  A    between atoms: S_13  and  C_14
REMARK    7  A    between atoms: C_16  and  C_25
REMARK    8  A    between atoms: C_30  and  C_31
REMARK                            x       y       z     vdW  Elec       q    Type
REMARK                         _______ _______ _______ _____ _____    ______ ____
ROOT
ATOM      1  C   UNL     1      -9.776  -3.042  -2.610  0.00  0.00    +0.192 A 
ATOM      2  N   UNL     1     -10.293  -3.206  -1.402  0.00  0.00    -0.202 NA
ATOM      3  C   UNL     1     -11.501  -3.753  -1.244  0.00  0.00    +0.165 A 
ATOM      4  N   UNL     1     -12.217  -4.149  -2.289  0.00  0.00    -0.208 NA
ATOM      5  C   UNL     1     -11.735  -4.002  -3.526  0.00  0.00    +0.162 A 
ATOM      6  N   UNL     1     -10.490  -3.433  -3.705  0.00  0.00    -0.210 N 
ATOM      7  N   UNL     1     -10.231  -3.392  -5.079  0.00  0.00    -0.256 N 
ATOM      8  H   UNL     1      -9.425  -3.044  -5.493  0.00  0.00    +0.191 HD
ATOM      9  C   UNL     1     -11.288  -3.916  -5.729  0.00  0.00    +0.267 A 
ATOM     10  O   UNL     1     -11.394  -4.035  -6.939  0.00  0.00    -0.266 OA
ATOM     11  C   UNL     1     -12.236  -4.311  -4.784  0.00  0.00    +0.119 A 
ENDROOT
BRANCH   3  12
ATOM     12  C   UNL     1     -12.050  -3.923   0.121  0.00  0.00    +0.022 A 
ATOM     13  C   UNL     1     -11.260  -3.637   1.234  0.00  0.00    +0.012 A 
ATOM     14  C   UNL     1     -11.777  -3.797   2.503  0.00  0.00    +0.001 A 
ATOM     15  C   UNL     1     -13.076  -4.240   2.673  0.00  0.00    +0.000 A 
ATOM     16  C   UNL     1     -13.865  -4.526   1.573  0.00  0.00    +0.004 A 
ATOM     17  C   UNL     1     -13.361  -4.364   0.298  0.00  0.00    -0.040 A 
ATOM     18  C   UNL     1     -14.224  -4.670  -0.899  0.00  0.00    +0.044 C 
ENDBRANCH   3  12
BRANCH   1  19
ATOM     19  S   UNL     1      -8.182  -2.317  -2.802  0.00  0.00    -0.077 S 
BRANCH  19  20
ATOM     20  C   UNL     1      -7.648  -1.974  -1.102  0.00  0.00    +0.173 C 
BRANCH  20  22
ATOM     21  N   UNL     1      -5.677  -1.001   0.033  0.00  0.00    -0.285 N 
ATOM     22  C   UNL     1      -6.279  -1.344  -1.123  0.00  0.00    +0.227 C 
ATOM     23  O   UNL     1      -5.719  -1.145  -2.180  0.00  0.00    -0.275 OA
ATOM     24  H   UNL     1      -6.091  -1.227   0.881  0.00  0.00    +0.155 HD
BRANCH  21  28
ATOM     25  C   UNL     1      -2.042   1.032  -0.033  0.00  0.00    -0.048 A 
ATOM     26  C   UNL     1      -2.981   1.266  -1.020  0.00  0.00    +0.005 A 
ATOM     27  C   UNL     1      -4.188   0.594  -1.001  0.00  0.00    +0.023 A 
ATOM     28  C   UNL     1      -4.456  -0.318   0.011  0.00  0.00    +0.033 A 
ATOM     29  C   UNL     1      -3.510  -0.551   1.000  0.00  0.00    +0.023 A 
ATOM     30  C   UNL     1      -2.304   0.121   0.973  0.00  0.00    +0.005 A 
BRANCH  25  32
ATOM     31  C   UNL     1       0.292   0.965  -0.868  0.00  0.00    +0.009 C 
ATOM     32  C   UNL     1      -0.727   1.768  -0.057  0.00  0.00    +0.032 C 
ENDBRANCH  25  32
ENDBRANCH  21  28
ENDBRANCH  20  22
ENDBRANCH  19  20
ENDBRANCH   1  19
TORSDOF 6
