REMARK  Name = ZINC04554091
REMARK  8 active torsions:
REMARK  status: ('A' for Active; 'I' for Inactive)
REMARK    1  A    between atoms: C_1  and  C_2
REMARK    2  A    between atoms: C_2  and  O_3
REMARK    3  A    between atoms: O_3  and  C_4
REMARK    4  A    between atoms: C_13  and  C_14
REMARK    5  A    between atoms: C_25  and  C_26
REMARK    6  A    between atoms: C_25  and  C_27
REMARK    7  A    between atoms: C_25  and  N_57
REMARK    8  A    between atoms: C_28  and  O_30
REMARK                            x       y       z     vdW  Elec       q    Type
REMARK                         _______ _______ _______ _____ _____    ______ ____
ROOT
ATOM      1  C   UNL     1      -0.102  -6.828   1.718  0.00  0.00    +0.228 C 
ATOM      2  N   UNL     1       1.265  -6.299   1.879  0.00  0.00    -0.313 N 
ATOM      3  C   UNL     1       1.405  -4.935   1.797  0.00  0.00    +0.080 A 
ATOM      4  C   UNL     1       0.489  -4.126   1.110  0.00  0.00    +0.067 A 
ATOM      5  C   UNL     1       0.781  -2.706   1.106  0.00  0.00    -0.027 A 
ATOM      6  C   UNL     1       1.902  -2.334   1.770  0.00  0.00    -0.021 A 
ATOM      7  S   UNL     1       2.578  -3.846   2.401  0.00  0.00    -0.080 S 
ATOM      8  C   UNL     1       2.428  -0.942   1.918  0.00  0.00    -0.035 C 
ATOM      9  C   UNL     1       0.286  -0.283   0.999  0.00  0.00    -0.073 C 
ATOM     10  C   UNL     1      -0.081  -1.652   0.419  0.00  0.00    +0.018 C 
ATOM     11  C   UNL     1      -0.658  -4.806   0.455  0.00  0.00    +0.220 C 
ATOM     12  N   UNL     1      -0.861  -6.063   0.736  0.00  0.00    -0.223 NA
ATOM     13  H   UNL     1       2.024  -6.883   2.034  0.00  0.00    +0.149 HD
ATOM     14  N   UNL     1       1.748  -0.090   0.913  0.00  0.00    +0.384 N 
ATOM     15  H   UNL     1       2.066  -0.360  -0.025  0.00  0.00    -0.081 HD
ENDROOT
BRANCH   1  25
ATOM     16  C   UNL     1      -2.067  -6.229   3.127  0.00  0.00    +0.128 A 
ATOM     17  C   UNL     1      -2.740  -6.163   4.351  0.00  0.00    +0.046 A 
ATOM     18  C   UNL     1      -2.165  -6.630   5.491  0.00  0.00    +0.012 A 
ATOM     19  C   UNL     1      -0.875  -7.187   5.444  0.00  0.00    -0.017 A 
ATOM     20  C   UNL     1      -0.250  -7.678   6.603  0.00  0.00    +0.008 A 
ATOM     21  C   UNL     1       1.000  -8.210   6.521  0.00  0.00    +0.001 A 
ATOM     22  C   UNL     1       1.673  -8.277   5.302  0.00  0.00    +0.001 A 
ATOM     23  C   UNL     1       1.099  -7.811   4.159  0.00  0.00    +0.009 A 
ATOM     24  C   UNL     1      -0.193  -7.259   4.203  0.00  0.00    -0.008 A 
ATOM     25  C   UNL     1      -0.813  -6.764   3.045  0.00  0.00    +0.044 A 
BRANCH  16  26
ATOM     26  O   UNL     1      -2.669  -5.754   2.005  0.00  0.00    -0.492 OA
BRANCH  26  28
ATOM     27  C   UNL     1      -4.490  -4.728   0.793  0.00  0.00    +0.048 C 
ATOM     28  C   UNL     1      -3.980  -5.207   2.154  0.00  0.00    +0.225 C 
ENDBRANCH  26  28
ENDBRANCH  16  26
ENDBRANCH   1  25
BRANCH  14  29
ATOM     29  C   UNL     1       2.084   1.332   1.143  0.00  0.00    -0.074 C 
ATOM     30  C   UNL     1       3.606   1.483   1.197  0.00  0.00    -0.014 C 
ATOM     31  C   UNL     1       1.529   2.166  -0.013  0.00  0.00    -0.014 C 
ENDBRANCH  14  29
BRANCH  11  32
ATOM     32  O   UNL     1      -1.465  -4.142  -0.405  0.00  0.00    -0.492 OA
ATOM     33  H   UNL     1      -2.178  -4.683  -0.771  0.00  0.00    +0.294 HD
ENDBRANCH  11  32
TORSDOF 5
