REMARK  Name = ZINC07181812
REMARK  9 active torsions:
REMARK  status: ('A' for Active; 'I' for Inactive)
REMARK    1  A    between atoms: C_1  and  C_2
REMARK    2  A    between atoms: C_6  and  C_9
REMARK    3  A    between atoms: C_7  and  N_8
REMARK    4  A    between atoms: C_9  and  O_11
REMARK    5  A    between atoms: O_11  and  C_12
REMARK    6  A    between atoms: C_12  and  C_14
REMARK    7  A    between atoms: C_12  and  C_15
REMARK    8  A    between atoms: C_15  and  C_17
REMARK    9  A    between atoms: C_18  and  C_27
REMARK                            x       y       z     vdW  Elec       q    Type
REMARK                         _______ _______ _______ _____ _____    ______ ____
ROOT
ATOM      1  C   UNL     1       1.221   6.977  -1.252  0.00  0.00    +0.244 C 
ATOM      2  C   UNL     1       1.620   7.790  -2.485  0.00  0.00    +0.061 C 
ENDROOT
BRANCH   1   3
ATOM      3  C   UNL     1       0.578   5.685  -1.688  0.00  0.00    +0.205 C 
ATOM      4  O   UNL     1      -0.628   5.558  -1.632  0.00  0.00    -0.288 OA
BRANCH   3   5
ATOM      5  C   UNL     1       1.382   4.619  -2.164  0.00  0.00    +0.049 A 
ATOM      6  C   UNL     1       2.041   3.676  -1.405  0.00  0.00    +0.025 A 
ATOM      7  N   UNL     1       2.701   2.825  -2.214  0.00  0.00    -0.358 N 
ATOM      8  H   UNL     1       3.237   2.077  -1.907  0.00  0.00    +0.166 HD
ATOM      9  C   UNL     1       2.510   3.163  -3.538  0.00  0.00    +0.047 A 
ATOM     10  C   UNL     1       1.681   4.295  -3.573  0.00  0.00    +0.011 A 
ATOM     11  C   UNL     1       1.319   4.860  -4.793  0.00  0.00    +0.011 A 
ATOM     12  C   UNL     1       1.779   4.301  -5.966  0.00  0.00    +0.001 A 
ATOM     13  C   UNL     1       2.598   3.183  -5.934  0.00  0.00    +0.002 A 
ATOM     14  C   UNL     1       2.964   2.614  -4.733  0.00  0.00    +0.026 A 
ATOM     15  C   UNL     1       2.027   3.609   0.100  0.00  0.00    +0.064 C 
ENDBRANCH   3   5
ENDBRANCH   1   3
BRANCH   1  16
ATOM     16  O   UNL     1       0.279   7.740  -0.453  0.00  0.00    -0.450 OA
BRANCH  16  17
ATOM     17  C   UNL     1       0.795   8.544   0.498  0.00  0.00    +0.342 C 
ATOM     18  O   UNL     1       1.998   8.606   0.655  0.00  0.00    -0.245 OA
BRANCH  17  24
ATOM     19  C   UNL     1       0.141  12.032   4.024  0.00  0.00    +0.045 C 
ATOM     20  C   UNL     1      -0.423  11.031   3.049  0.00  0.00    -0.029 A 
ATOM     21  C   UNL     1      -1.789  10.863   2.946  0.00  0.00    +0.005 A 
ATOM     22  C   UNL     1      -2.318   9.945   2.053  0.00  0.00    +0.001 A 
ATOM     23  C   UNL     1      -1.486   9.190   1.256  0.00  0.00    +0.017 A 
ATOM     24  C   UNL     1      -0.101   9.349   1.347  0.00  0.00    +0.080 A 
ATOM     25  C   UNL     1       0.432  10.276   2.257  0.00  0.00    +0.042 A 
BRANCH  25  26
ATOM     26  N   UNL     1       1.807  10.439   2.362  0.00  0.00    -0.357 N 
ATOM     27  H   UNL     1       2.385  10.162   1.634  0.00  0.00    +0.142 HD
ATOM     28  H   UNL     1       2.189  10.831   3.163  0.00  0.00    +0.142 HD
ENDBRANCH  25  26
ENDBRANCH  17  24
ENDBRANCH  16  17
ENDBRANCH   1  16
TORSDOF 6
