REMARK  Name = ZINC20464334
REMARK  9 active torsions:
REMARK  status: ('A' for Active; 'I' for Inactive)
REMARK    1  A    between atoms: C_1  and  N_2
REMARK    2  A    between atoms: C_4  and  N_25
REMARK    3  A    between atoms: C_7  and  C_9
REMARK    4  A    between atoms: C_11  and  C_14
REMARK    5  A    between atoms: C_17  and  O_20
REMARK    6  A    between atoms: O_20  and  C_21
REMARK    7  A    between atoms: N_25  and  S_26
REMARK    8  A    between atoms: S_26  and  C_29
REMARK    9  A    between atoms: C_32  and  C_35
REMARK                            x       y       z     vdW  Elec       q    Type
REMARK                         _______ _______ _______ _____ _____    ______ ____
ROOT
ATOM      1  C   UNL     1      -3.466   6.452  -6.514  0.00  0.00    -0.095 C 
ATOM      2  N   UNL     1      -3.235   6.229  -5.080  0.00  0.00    +0.387 N 
ATOM      3  C   UNL     1      -3.091   7.512  -4.359  0.00  0.00    -0.058 C 
ATOM      4  C   UNL     1      -3.708   7.252  -2.963  0.00  0.00    +0.059 C 
ATOM      5  C   UNL     1      -4.900   6.323  -3.314  0.00  0.00    +0.012 C 
ATOM      6  C   UNL     1      -4.348   5.473  -4.477  0.00  0.00    +0.023 C 
ATOM      7  H   UNL     1      -2.305   5.646  -4.996  0.00  0.00    -0.081 HD
ENDROOT
BRANCH   6   8
ATOM      8  C   UNL     1      -5.428   5.245  -5.503  0.00  0.00    +0.214 A 
ATOM      9  N   UNL     1      -5.894   4.086  -5.897  0.00  0.00    -0.193 NA
ATOM     10  C   UNL     1      -6.842   4.370  -6.819  0.00  0.00    +0.202 A 
ATOM     11  N   UNL     1      -6.896   5.673  -6.928  0.00  0.00    -0.056 NA
ATOM     12  O   UNL     1      -6.095   6.187  -6.177  0.00  0.00    -0.339 OA
BRANCH  10  13
ATOM     13  C   UNL     1      -7.667   3.389  -7.566  0.00  0.00    +0.023 A 
ATOM     14  C   UNL     1      -7.494   2.023  -7.348  0.00  0.00    +0.015 A 
ATOM     15  C   UNL     1      -8.266   1.114  -8.040  0.00  0.00    +0.046 A 
ATOM     16  C   UNL     1      -9.206   1.557  -8.961  0.00  0.00    +0.130 A 
ATOM     17  C   UNL     1      -9.376   2.917  -9.184  0.00  0.00    +0.046 A 
ATOM     18  C   UNL     1      -8.612   3.831  -8.490  0.00  0.00    +0.015 A 
BRANCH  16  19
ATOM     19  O   UNL     1      -9.961   0.658  -9.644  0.00  0.00    -0.406 OA
BRANCH  19  20
ATOM     20  C   UNL     1      -9.735  -0.725  -9.366  0.00  0.00    +0.575 C 
ATOM     21  F   UNL     1      -9.985  -0.976  -8.013  0.00  0.00    -0.133 F 
ATOM     22  F   UNL     1     -10.590  -1.505 -10.151  0.00  0.00    -0.133 F 
ATOM     23  F   UNL     1      -8.406  -1.048  -9.662  0.00  0.00    -0.133 F 
ENDBRANCH  19  20
ENDBRANCH  16  19
ENDBRANCH  10  13
ENDBRANCH   6   8
BRANCH   4  24
ATOM     24  N   UNL     1      -4.176   8.500  -2.355  0.00  0.00    -0.189 NA
ATOM     25  H   UNL     1      -5.060   9.012  -2.761  0.00  0.00    +0.148 HD
BRANCH  24  26
ATOM     26  S   UNL     1      -3.243   9.271  -1.224  0.00  0.00    +0.059 S 
ATOM     27  O   UNL     1      -2.853   8.284  -0.279  0.00  0.00    -0.153 OA
ATOM     28  O   UNL     1      -3.947  10.447  -0.851  0.00  0.00    -0.153 OA
BRANCH  26  29
ATOM     29  C   UNL     1      -1.771   9.800  -2.036  0.00  0.00    +0.105 A 
ATOM     30  C   UNL     1      -1.723  11.049  -2.629  0.00  0.00    +0.030 A 
ATOM     31  C   UNL     1      -0.574  11.470  -3.265  0.00  0.00    +0.021 A 
ATOM     32  C   UNL     1       0.542  10.633  -3.311  0.00  0.00    +0.052 A 
ATOM     33  C   UNL     1       0.485   9.371  -2.715  0.00  0.00    +0.021 A 
ATOM     34  C   UNL     1      -0.669   8.965  -2.077  0.00  0.00    +0.030 A 
BRANCH  32  35
ATOM     35  C   UNL     1       1.738  11.063  -3.970  0.00  0.00    +0.099 C 
ATOM     36  N   UNL     1       2.687  11.405  -4.493  0.00  0.00    -0.191 NA
ENDBRANCH  32  35
ENDBRANCH  26  29
ENDBRANCH  24  26
ENDBRANCH   4  24
TORSDOF 8
