REMARK  Name = ZINC33070715
REMARK  4 active torsions:
REMARK  status: ('A' for Active; 'I' for Inactive)
REMARK    1  A    between atoms: C_1  and  C_2
REMARK    2  A    between atoms: C_15  and  C_18
REMARK    3  A    between atoms: N_23  and  C_26
REMARK    4  A    between atoms: C_26  and  C_27
REMARK                            x       y       z     vdW  Elec       q    Type
REMARK                         _______ _______ _______ _____ _____    ______ ____
ROOT
ATOM      1  C   UNL     1      12.504  -0.315   6.899  0.00  0.00    +0.044 C 
ATOM      2  C   UNL     1      11.104  -0.852   7.044  0.00  0.00    -0.048 A 
ATOM      3  C   UNL     1      10.661  -1.296   8.282  0.00  0.00    +0.005 A 
ATOM      4  C   UNL     1       9.385  -1.789   8.431  0.00  0.00    +0.028 A 
ATOM      5  C   UNL     1       8.528  -1.844   7.329  0.00  0.00    +0.065 A 
ATOM      6  C   UNL     1       8.982  -1.394   6.078  0.00  0.00    +0.066 A 
ATOM      7  C   UNL     1      10.271  -0.900   5.946  0.00  0.00    +0.031 A 
ATOM      8  N   UNL     1       7.926  -1.572   5.199  0.00  0.00    -0.327 N 
ATOM      9  H   UNL     1       8.037  -1.289   4.142  0.00  0.00    +0.169 HD
ATOM     10  C   UNL     1       6.892  -2.107   5.912  0.00  0.00    +0.174 A 
ATOM     11  N   UNL     1       7.245  -2.261   7.163  0.00  0.00    -0.327 N 
ATOM     12  N   UNL     1       5.656  -2.432   5.392  0.00  0.00    -0.303 N 
ATOM     13  C   UNL     1       4.778  -2.986   6.430  0.00  0.00    +0.108 C 
ATOM     14  C   UNL     1       3.473  -3.468   5.792  0.00  0.00    +0.032 C 
ATOM     15  C   UNL     1       2.788  -2.291   5.092  0.00  0.00    +0.078 C 
ATOM     16  C   UNL     1       3.741  -1.701   4.050  0.00  0.00    +0.032 C 
ATOM     17  C   UNL     1       5.039  -1.271   4.738  0.00  0.00    +0.108 C 
ATOM     18  H   UNL     1       6.679  -2.653   8.021  0.00  0.00    +0.169 HD
ENDROOT
BRANCH  15  19
ATOM     19  C   UNL     1       1.532  -2.772   4.411  0.00  0.00    +0.219 C 
ATOM     20  O   UNL     1       1.411  -3.944   4.121  0.00  0.00    -0.275 OA
ATOM     21  N   UNL     1       0.545  -1.901   4.124  0.00  0.00    -0.299 N 
ATOM     22  C   UNL     1       0.628  -0.497   4.555  0.00  0.00    +0.123 C 
ATOM     23  C   UNL     1      -0.670  -0.133   5.283  0.00  0.00    +0.103 C 
ATOM     24  N   UNL     1      -1.817  -0.452   4.421  0.00  0.00    -0.295 NA
ATOM     25  C   UNL     1      -1.893  -1.893   4.146  0.00  0.00    +0.103 C 
ATOM     26  C   UNL     1      -0.644  -2.329   3.372  0.00  0.00    +0.123 C 
BRANCH  24  27
ATOM     27  C   UNL     1      -3.070   0.040   5.009  0.00  0.00    +0.119 C 
BRANCH  27  28
ATOM     28  C   UNL     1      -4.181  -0.082   3.998  0.00  0.00    -0.033 A 
ATOM     29  C   UNL     1      -4.450   0.966   3.138  0.00  0.00    +0.005 A 
ATOM     30  C   UNL     1      -5.466   0.853   2.208  0.00  0.00    +0.000 A 
ATOM     31  C   UNL     1      -6.219  -0.304   2.144  0.00  0.00    +0.000 A 
ATOM     32  C   UNL     1      -5.953  -1.350   3.008  0.00  0.00    +0.000 A 
ATOM     33  C   UNL     1      -4.934  -1.239   3.935  0.00  0.00    +0.005 A 
ENDBRANCH  27  28
ENDBRANCH  24  27
ENDBRANCH  15  19
TORSDOF 3
