REMARK  Name = ZINC39981081
REMARK  8 active torsions:
REMARK  status: ('A' for Active; 'I' for Inactive)
REMARK    1  A    between atoms: C_1  and  C_2
REMARK    2  A    between atoms: C_2  and  C_3
REMARK    3  A    between atoms: C_15  and  S_17
REMARK    4  A    between atoms: S_17  and  C_18
REMARK    5  A    between atoms: C_18  and  C_19
REMARK    6  A    between atoms: N_21  and  C_22
REMARK    7  A    between atoms: C_25  and  C_28
REMARK    8  A    between atoms: N_30  and  C_31
REMARK                            x       y       z     vdW  Elec       q    Type
REMARK                         _______ _______ _______ _____ _____    ______ ____
ROOT
ATOM      1  C   UNL     1      -7.300  -5.634  -2.820  0.00  0.00    +0.173 C 
ENDROOT
BRANCH   1   2
ATOM      2  C   UNL     1      -7.911  -6.910  -3.341  0.00  0.00    +0.227 C 
ATOM      3  O   UNL     1      -7.656  -7.290  -4.463  0.00  0.00    -0.275 OA
ATOM      4  N   UNL     1      -8.741  -7.628  -2.558  0.00  0.00    -0.285 N 
ATOM      5  H   UNL     1      -8.893  -7.360  -1.638  0.00  0.00    +0.155 HD
BRANCH   4   6
ATOM      6  C   UNL     1      -9.382  -8.755  -3.071  0.00  0.00    +0.033 A 
ATOM      7  C   UNL     1      -8.726  -9.568  -3.990  0.00  0.00    +0.024 A 
ATOM      8  C   UNL     1      -9.355 -10.682  -4.498  0.00  0.00    +0.015 A 
ATOM      9  C   UNL     1     -10.654 -10.996  -4.090  0.00  0.00    +0.037 A 
ATOM     10  C   UNL     1     -11.310 -10.177  -3.167  0.00  0.00    +0.015 A 
ATOM     11  C   UNL     1     -10.673  -9.068  -2.658  0.00  0.00    +0.024 A 
BRANCH   9  12
ATOM     12  C   UNL     1     -11.332 -12.189  -4.633  0.00  0.00    +0.244 C 
ATOM     13  O   UNL     1     -10.761 -12.900  -5.437  0.00  0.00    -0.270 OA
ATOM     14  N   UNL     1     -12.585 -12.490  -4.239  0.00  0.00    -0.308 N 
ATOM     15  H   UNL     1     -13.041 -11.923  -3.597  0.00  0.00    +0.149 HD
BRANCH  14  16
ATOM     16  C   UNL     1     -13.258 -13.674  -4.778  0.00  0.00    +0.073 C 
ATOM     17  C   UNL     1     -14.722 -13.525  -5.198  0.00  0.00    +0.024 C 
ATOM     18  C   UNL     1     -14.366 -14.305  -3.931  0.00  0.00    +0.024 C 
ENDBRANCH  14  16
ENDBRANCH   9  12
ENDBRANCH   4   6
ENDBRANCH   1   2
BRANCH   1  19
ATOM     19  S   UNL     1      -6.240  -4.906  -4.099  0.00  0.00    -0.075 S 
BRANCH  19  31
ATOM     20  C   UNL     1      -1.375  -0.563   0.010  0.00  0.00    -0.047 A 
ATOM     21  C   UNL     1      -1.992  -0.802   1.246  0.00  0.00    +0.005 A 
ATOM     22  C   UNL     1      -3.262  -1.260   1.330  0.00  0.00    +0.026 A 
ATOM     23  C   UNL     1      -4.017  -1.515   0.097  0.00  0.00    +0.046 A 
ATOM     24  N   UNL     1      -5.226  -1.981  -0.107  0.00  0.00    -0.358 N 
ATOM     25  C   UNL     1      -5.519  -1.915  -1.529  0.00  0.00    +0.252 C 
ATOM     26  C   UNL     1      -4.203  -1.582  -2.208  0.00  0.00    +0.117 C 
ATOM     27  C   UNL     1      -3.330  -1.263  -1.196  0.00  0.00    +0.025 A 
ATOM     28  C   UNL     1      -2.004  -0.774  -1.168  0.00  0.00    +0.015 A 
ATOM     29  N   UNL     1      -4.027  -1.750  -3.521  0.00  0.00    -0.147 NA
ATOM     30  N   UNL     1      -4.766  -2.666  -4.071  0.00  0.00    -0.122 NA
ATOM     31  C   UNL     1      -5.609  -3.443  -3.347  0.00  0.00    +0.208 C 
ATOM     32  N   UNL     1      -5.986  -3.169  -2.119  0.00  0.00    -0.227 NA
ATOM     33  H   UNL     1      -5.825  -2.316   0.578  0.00  0.00    +0.162 HD
BRANCH  20  35
ATOM     34  C   UNL     1       0.025   1.484   0.011  0.00  0.00    +0.009 C 
ATOM     35  C   UNL     1       0.041  -0.046  -0.005  0.00  0.00    +0.032 C 
ENDBRANCH  20  35
ENDBRANCH  19  31
ENDBRANCH   1  19
TORSDOF 7
