REMARK  Name = ZINC08738857
REMARK  12 active torsions:
REMARK  status: ('A' for Active; 'I' for Inactive)
REMARK    1  A    between atoms: C_1  and  C_2
REMARK    2  A    between atoms: C_2  and  C_4
REMARK    3  A    between atoms: C_8  and  C_37
REMARK    4  A    between atoms: C_17  and  C_36
REMARK    5  A    between atoms: N_21  and  O_22
REMARK    6  A    between atoms: C_23  and  C_34
REMARK    7  A    between atoms: C_23  and  C_35
REMARK    8  A    between atoms: C_28  and  C_33
REMARK    9  A    between atoms: C_29  and  C_32
REMARK   10  A    between atoms: C_37  and  O_38
REMARK   11  A    between atoms: O_38  and  C_39
REMARK   12  A    between atoms: C_39  and  C_41
REMARK                            x       y       z     vdW  Elec       q    Type
REMARK                         _______ _______ _______ _____ _____    ______ ____
ROOT
ATOM      1  C   UNL     1       0.165  12.068   0.922  0.00  0.00    +0.018 C 
ATOM      2  C   UNL     1       0.853  12.939  -0.157  0.00  0.00    +0.009 C 
ATOM      3  C   UNL     1       2.354  12.820   0.171  0.00  0.00    +0.011 C 
ATOM      4  C   UNL     1       2.471  11.674   1.193  0.00  0.00    +0.009 C 
ATOM      5  C   UNL     1       1.152  10.879   1.098  0.00  0.00    +0.009 C 
ATOM      6  C   UNL     1       1.131   9.943  -0.090  0.00  0.00    -0.000 C 
ATOM      7  C   UNL     1      -0.077   9.012  -0.119  0.00  0.00    +0.005 C 
ATOM      8  C   UNL     1       0.050   7.859   0.881  0.00  0.00    +0.005 C 
ATOM      9  C   UNL     1       1.272   7.034   0.485  0.00  0.00    +0.002 C 
ATOM     10  C   UNL     1       1.332   5.703   1.226  0.00  0.00    -0.025 C 
ATOM     11  C   UNL     1       0.181   4.823   0.684  0.00  0.00    +0.013 C 
ATOM     12  C   UNL     1       0.112   3.529   1.482  0.00  0.00    +0.055 C 
ATOM     13  C   UNL     1       1.452   2.862   1.595  0.00  0.00    +0.063 C 
ATOM     14  N   UNL     1       1.491   1.580   1.790  0.00  0.00    -0.096 NA
ATOM     15  C   UNL     1       2.762   3.601   1.497  0.00  0.00    +0.010 C 
ATOM     16  C   UNL     1       2.627   4.979   0.880  0.00  0.00    +0.007 C 
ATOM     17  C   UNL     1       3.841   5.856   1.168  0.00  0.00    +0.005 C 
ATOM     18  C   UNL     1       3.768   7.102   0.272  0.00  0.00    +0.008 C 
ATOM     19  C   UNL     1       2.511   7.908   0.619  0.00  0.00    -0.023 C 
ATOM     20  C   UNL     1       2.400   9.123  -0.305  0.00  0.00    -0.023 C 
ATOM     21  C   UNL     1       3.660   9.974  -0.245  0.00  0.00    +0.008 C 
ATOM     22  C   UNL     1       3.735  10.891   0.952  0.00  0.00    +0.011 C 
ATOM     23  C   UNL     1       2.338   8.613  -1.771  0.00  0.00    +0.012 C 
ATOM     24  C   UNL     1       2.669   8.388   2.069  0.00  0.00    +0.012 C 
ATOM     25  C   UNL     1       3.424   3.650   2.879  0.00  0.00    +0.017 C 
ATOM     26  C   UNL     1       3.687   2.758   0.585  0.00  0.00    +0.017 C 
ATOM     27  C   UNL     1       1.121   5.866   2.724  0.00  0.00    +0.012 C 
ENDROOT
BRANCH   1  29
ATOM     28  C   UNL     1      -2.161  11.109   1.554  0.00  0.00    +0.039 C 
ATOM     29  C   UNL     1      -1.241  11.752   0.548  0.00  0.00    -0.076 C 
ATOM     30  C   UNL     1      -1.678  12.031  -0.654  0.00  0.00    +0.007 C 
ENDBRANCH   1  29
BRANCH  14  31
ATOM     31  O   UNL     1       0.286   0.842   1.893  0.00  0.00    -0.409 OA
ATOM     32  H   UNL     1       0.416  -0.105   2.038  0.00  0.00    +0.328 HD
ENDBRANCH  14  31
BRANCH   4  33
ATOM     33  C   UNL     1       2.566  12.294   2.596  0.00  0.00    +0.239 C 
BRANCH  33  34
ATOM     34  O   UNL     1       3.732  13.156   2.665  0.00  0.00    -0.464 OA
BRANCH  34  35
ATOM     35  C   UNL     1       3.961  13.779   3.832  0.00  0.00    +0.304 C 
ATOM     36  O   UNL     1       3.212  13.609   4.765  0.00  0.00    -0.251 OA
ATOM     37  C   UNL     1       5.152  14.691   3.979  0.00  0.00    +0.136 C 
ENDBRANCH  34  35
ENDBRANCH  33  34
ENDBRANCH   4  33
TORSDOF 5
