REMARK  Name = ZINC09856931
REMARK  4 active torsions:
REMARK  status: ('A' for Active; 'I' for Inactive)
REMARK    1  A    between atoms: C_1  and  C_2
REMARK    2  A    between atoms: C_2  and  N_3
REMARK    3  A    between atoms: N_14  and  N_15
REMARK    4  A    between atoms: C_16  and  C_18
REMARK                            x       y       z     vdW  Elec       q    Type
REMARK                         _______ _______ _______ _____ _____    ______ ____
ROOT
ATOM      1  N   UNL     1      -3.521  -1.998   0.028  0.00  0.00    -0.230 N 
ATOM      2  C   UNL     1      -4.696  -2.659   0.036  0.00  0.00    +0.267 C 
ATOM      3  O   UNL     1      -4.710  -3.876   0.030  0.00  0.00    -0.268 OA
ATOM      4  H   UNL     1      -3.510  -1.028   0.032  0.00  0.00    +0.173 HD
ENDROOT
BRANCH   1  16
ATOM      5  N   UNL     1       0.035  -2.766  -0.012  0.00  0.00    -0.280 N 
ATOM      6  C   UNL     1       1.238  -2.146  -0.021  0.00  0.00    +0.263 A 
ATOM      7  O   UNL     1       2.275  -2.782  -0.034  0.00  0.00    -0.267 OA
ATOM      8  C   UNL     1       1.245  -0.677  -0.013  0.00  0.00    +0.065 A 
ATOM      9  C   UNL     1       2.432   0.054  -0.021  0.00  0.00    +0.015 A 
ATOM     10  C   UNL     1       2.381   1.421  -0.013  0.00  0.00    +0.001 A 
ATOM     11  C   UNL     1       1.161   2.086   0.002  0.00  0.00    +0.002 A 
ATOM     12  C   UNL     1      -0.017   1.394   0.010  0.00  0.00    +0.028 A 
ATOM     13  C   UNL     1       0.002  -0.004   0.002  0.00  0.00    +0.080 A 
ATOM     14  N   UNL     1      -1.141  -0.730   0.009  0.00  0.00    -0.214 NA
ATOM     15  C   UNL     1      -1.120  -2.039   0.003  0.00  0.00    +0.216 A 
ATOM     16  N   UNL     1      -2.316  -2.712   0.012  0.00  0.00    -0.234 N 
ATOM     17  H   UNL     1      -2.327  -3.682   0.007  0.00  0.00    +0.173 HD
BRANCH   5  19
ATOM     18  C   UNL     1      -0.036  -4.747   1.421  0.00  0.00    +0.027 C 
ATOM     19  C   UNL     1      -0.028  -4.230  -0.019  0.00  0.00    +0.125 C 
ENDBRANCH   5  19
ENDBRANCH   1  16
BRANCH   2  20
ATOM     20  C   UNL     1      -5.956  -1.912   0.053  0.00  0.00    +0.076 A 
ATOM     21  C   UNL     1      -7.256  -2.397   0.063  0.00  0.00    +0.025 A 
ATOM     22  C   UNL     1      -8.309  -1.515   0.076  0.00  0.00    -0.032 A 
ATOM     23  C   UNL     1      -7.978  -0.157   0.089  0.00  0.00    +0.023 A 
ATOM     24  S   UNL     1      -6.213  -0.143   0.072  0.00  0.00    -0.083 S 
ATOM     25  C   UNL     1      -8.965   0.918   0.123  0.00  0.00    -0.008 A 
ATOM     26  C   UNL     1      -8.653   2.247  -0.130  0.00  0.00    +0.009 A 
ATOM     27  C   UNL     1      -9.650   3.202  -0.102  0.00  0.00    +0.001 A 
ATOM     28  C   UNL     1     -10.953   2.832   0.183  0.00  0.00    +0.000 A 
ATOM     29  C   UNL     1     -11.265   1.514   0.461  0.00  0.00    +0.004 A 
ATOM     30  C   UNL     1     -10.280   0.550   0.454  0.00  0.00    -0.039 A 
ATOM     31  C   UNL     1     -10.593  -0.868   0.841  0.00  0.00    +0.040 C 
ATOM     32  C   UNL     1      -9.784  -1.896   0.059  0.00  0.00    +0.041 C 
ENDBRANCH   2  20
TORSDOF 3
