REMARK  Name = ZINC05091909
REMARK  3 active torsions:
REMARK  status: ('A' for Active; 'I' for Inactive)
REMARK    1  A    between atoms: C_11  and  S_13
REMARK    2  A    between atoms: S_13  and  C_14
REMARK    3  A    between atoms: C_14  and  C_15
REMARK                            x       y       z     vdW  Elec       q    Type
REMARK                         _______ _______ _______ _____ _____    ______ ____
ROOT
ATOM      1  S   UNL     1       5.234  -2.693  -0.062  0.00  0.00    -0.082 S 
ENDROOT
BRANCH   1  12
ATOM      2  C   UNL     1      -0.017   1.363   0.009  0.00  0.00    +0.001 A 
ATOM      3  C   UNL     1       1.168   2.089   0.002  0.00  0.00    +0.002 A 
ATOM      4  C   UNL     1       2.379   1.458  -0.013  0.00  0.00    +0.028 A 
ATOM      5  C   UNL     1       2.432   0.061  -0.021  0.00  0.00    +0.079 A 
ATOM      6  C   UNL     1       1.224  -0.674  -0.013  0.00  0.00    +0.065 A 
ATOM      7  C   UNL     1       0.002  -0.004   0.002  0.00  0.00    +0.015 A 
ATOM      8  C   UNL     1       1.305  -2.141  -0.021  0.00  0.00    +0.260 A 
ATOM      9  O   UNL     1       0.301  -2.829  -0.015  0.00  0.00    -0.267 OA
ATOM     10  N   UNL     1       2.538  -2.699  -0.036  0.00  0.00    -0.301 N 
ATOM     11  H   UNL     1       2.630  -3.664  -0.042  0.00  0.00    +0.171 HD
ATOM     12  C   UNL     1       3.654  -1.911  -0.043  0.00  0.00    +0.170 A 
ATOM     13  N   UNL     1       3.605  -0.602  -0.036  0.00  0.00    -0.223 NA
ENDBRANCH   1  12
BRANCH   1  14
ATOM     14  C   UNL     1       6.407  -1.310  -0.066  0.00  0.00    +0.133 C 
BRANCH  14  15
ATOM     15  C   UNL     1       7.816  -1.846  -0.082  0.00  0.00    +0.059 A 
ATOM     16  C   UNL     1       8.562  -1.792  -1.243  0.00  0.00    +0.094 A 
ATOM     17  C   UNL     1       9.867  -2.296  -1.233  0.00  0.00    +0.259 A 
ATOM     18  O   UNL     1      10.553  -2.262  -2.243  0.00  0.00    -0.267 OA
ATOM     19  N   UNL     1      10.357  -2.820  -0.089  0.00  0.00    -0.267 N 
ATOM     20  C   UNL     1      11.626  -3.314  -0.064  0.00  0.00    +0.116 A 
ATOM     21  C   UNL     1      12.139  -3.844   1.071  0.00  0.00    +0.058 A 
ATOM     22  C   UNL     1      11.364  -3.889   2.240  0.00  0.00    +0.025 A 
ATOM     23  C   UNL     1      10.094  -3.397   2.223  0.00  0.00    +0.048 A 
ATOM     24  C   UNL     1       9.579  -2.850   1.034  0.00  0.00    +0.141 A 
ATOM     25  N   UNL     1       8.338  -2.364   1.018  0.00  0.00    -0.233 NA
ATOM     26 CL   UNL     1      13.758  -4.468   1.081  0.00  0.00    -0.082 Cl
ENDBRANCH  14  15
ENDBRANCH   1  14
TORSDOF 3
