REMARK  Name = ZINC10000430
REMARK  14 active torsions:
REMARK  status: ('A' for Active; 'I' for Inactive)
REMARK    1  A    between atoms: C_1  and  C_2
REMARK    2  A    between atoms: C_2  and  C_3
REMARK    3  A    between atoms: C_3  and  O_4
REMARK    4  A    between atoms: O_4  and  C_5
REMARK    5  A    between atoms: C_5  and  C_7
REMARK    6  A    between atoms: C_12  and  C_13
REMARK    7  A    between atoms: C_16  and  C_18
REMARK    8  A    between atoms: N_19  and  N_20
REMARK    9  A    between atoms: C_21  and  C_23
REMARK   10  A    between atoms: C_23  and  C_25
REMARK   11  A    between atoms: C_23  and  N_28
REMARK   12  A    between atoms: C_25  and  C_26
REMARK   13  A    between atoms: C_25  and  C_27
REMARK   14  A    between atoms: C_29  and  C_31
REMARK                            x       y       z     vdW  Elec       q    Type
REMARK                         _______ _______ _______ _____ _____    ______ ____
ROOT
ATOM      1  C   UNL     1      -2.542   4.758   0.669  0.00  0.00    +0.176 C 
ATOM      2  N   UNL     1      -2.118   5.311   1.768  0.00  0.00    -0.185 NA
ENDROOT
BRANCH   1   6
ATOM      3  C   UNL     1      -0.194   2.194  -0.327  0.00  0.00    +0.137 A 
ATOM      4  C   UNL     1      -1.022   2.166  -1.412  0.00  0.00    +0.050 A 
ATOM      5  C   UNL     1      -2.023   3.119  -1.191  0.00  0.00    +0.051 A 
ATOM      6  C   UNL     1      -1.756   3.701   0.030  0.00  0.00    +0.148 A 
ATOM      7  O   UNL     1      -0.646   3.126   0.535  0.00  0.00    -0.454 OA
BRANCH   3  13
ATOM      8  C   UNL     1       2.259   1.944   0.084  0.00  0.00    +0.070 A 
ATOM      9  C   UNL     1       3.380   1.130   0.260  0.00  0.00    +0.016 A 
ATOM     10  C   UNL     1       3.248  -0.242   0.221  0.00  0.00    +0.001 A 
ATOM     11  C   UNL     1       2.008  -0.824   0.008  0.00  0.00    +0.001 A 
ATOM     12  C   UNL     1       0.888  -0.040  -0.168  0.00  0.00    +0.012 A 
ATOM     13  C   UNL     1       0.997   1.351  -0.133  0.00  0.00    +0.031 A 
BRANCH   8  14
ATOM     14  C   UNL     1       2.394   3.410   0.124  0.00  0.00    +0.340 C 
ATOM     15  O   UNL     1       1.406   4.113   0.042  0.00  0.00    -0.245 OA
BRANCH  14  16
ATOM     16  O   UNL     1       3.612   3.972   0.251  0.00  0.00    -0.461 OA
BRANCH  16  17
ATOM     17  C   UNL     1       3.660   5.416   0.398  0.00  0.00    +0.232 C 
BRANCH  17  19
ATOM     18  C   UNL     1       5.155   7.376   0.806  0.00  0.00    +0.007 C 
ATOM     19  C   UNL     1       5.104   5.855   0.652  0.00  0.00    +0.038 C 
ENDBRANCH  17  19
ENDBRANCH  16  17
ENDBRANCH  14  16
ENDBRANCH   8  14
ENDBRANCH   3  13
ENDBRANCH   1   6
BRANCH   2  20
ATOM     20  N   UNL     1      -0.841   5.008   2.257  0.00  0.00    -0.205 N 
ATOM     21  C   UNL     1      -0.444   5.492   3.451  0.00  0.00    +0.253 C 
ATOM     22  O   UNL     1       0.687   5.291   3.841  0.00  0.00    -0.272 OA
ATOM     23  H   UNL     1      -0.242   4.450   1.737  0.00  0.00    +0.177 HD
BRANCH  21  24
ATOM     24  C   UNL     1      -1.404   6.284   4.300  0.00  0.00    +0.163 C 
BRANCH  24  25
ATOM     25  N   UNL     1      -0.653   7.079   5.275  0.00  0.00    -0.300 N 
ATOM     26  C   UNL     1      -1.192   8.204   5.786  0.00  0.00    +0.245 C 
ATOM     27  O   UNL     1      -2.300   8.560   5.436  0.00  0.00    -0.270 OA
ATOM     28  H   UNL     1       0.231   6.794   5.554  0.00  0.00    +0.150 HD
BRANCH  26  29
ATOM     29  C   UNL     1      -0.434   9.005   6.770  0.00  0.00    +0.037 A 
ATOM     30  C   UNL     1       0.837   8.595   7.177  0.00  0.00    +0.014 A 
ATOM     31  C   UNL     1       1.542   9.351   8.090  0.00  0.00    +0.021 A 
ATOM     32  C   UNL     1       0.986  10.507   8.613  0.00  0.00    +0.041 A 
ATOM     33  C   UNL     1      -0.277  10.915   8.218  0.00  0.00    +0.021 A 
ATOM     34  C   UNL     1      -0.989  10.171   7.300  0.00  0.00    +0.014 A 
ATOM     35 CL   UNL     1       1.876  11.448   9.769  0.00  0.00    -0.084 Cl
ENDBRANCH  26  29
ENDBRANCH  24  25
BRANCH  24  36
ATOM     36  C   UNL     1      -2.343   5.327   5.036  0.00  0.00    +0.012 C 
ATOM     37  C   UNL     1      -3.108   4.479   4.018  0.00  0.00    +0.009 C 
ATOM     38  C   UNL     1      -1.524   4.412   5.949  0.00  0.00    +0.009 C 
ENDBRANCH  24  36
ENDBRANCH  21  24
ENDBRANCH   2  20
TORSDOF 11
