REMARK  Name = ZINC49508922
REMARK  8 active torsions:
REMARK  status: ('A' for Active; 'I' for Inactive)
REMARK    1  A    between atoms: C_1  and  N_2
REMARK    2  A    between atoms: N_5  and  C_8
REMARK    3  A    between atoms: C_8  and  C_10
REMARK    4  A    between atoms: C_8  and  C_30
REMARK    5  A    between atoms: C_10  and  N_11
REMARK    6  A    between atoms: C_12  and  C_14
REMARK    7  A    between atoms: N_16  and  C_17
REMARK    8  A    between atoms: N_39  and  C_40
REMARK                            x       y       z     vdW  Elec       q    Type
REMARK                         _______ _______ _______ _____ _____    ______ ____
ROOT
ATOM      1  C   UNL     1       0.125  -3.889   0.278  0.00  0.00    +0.128 C 
ENDROOT
BRANCH   1   2
ATOM      2  N   UNL     1      -0.687  -3.437  -0.855  0.00  0.00    -0.306 N 
ATOM      3  C   UNL     1      -2.028  -3.367  -0.737  0.00  0.00    +0.299 C 
ATOM      4  O   UNL     1      -2.562  -3.678   0.307  0.00  0.00    -0.265 OA
ATOM      5  H   UNL     1      -0.260  -3.189  -1.689  0.00  0.00    +0.149 HD
BRANCH   3   6
ATOM      6  C   UNL     1      -2.855  -2.906  -1.891  0.00  0.00    +0.303 C 
ATOM      7  O   UNL     1      -2.321  -2.595  -2.936  0.00  0.00    -0.265 OA
ATOM      8  N   UNL     1      -4.196  -2.836  -1.774  0.00  0.00    -0.278 N 
ATOM      9  H   UNL     1      -4.618  -3.009  -0.917  0.00  0.00    +0.155 HD
BRANCH   8  10
ATOM     10  C   UNL     1      -4.980  -2.513  -2.886  0.00  0.00    +0.034 A 
ATOM     11  C   UNL     1      -6.144  -1.772  -2.695  0.00  0.00    +0.028 A 
ATOM     12  C   UNL     1      -6.935  -1.424  -3.764  0.00  0.00    -0.023 A 
ATOM     13  C   UNL     1      -6.505  -1.834  -5.028  0.00  0.00    +0.043 A 
ATOM     14  C   UNL     1      -5.362  -2.593  -5.225  0.00  0.00    -0.022 A 
ATOM     15  C   UNL     1      -4.564  -2.939  -4.151  0.00  0.00    +0.028 A 
ATOM     16  C   UNL     1      -5.262  -2.894  -6.690  0.00  0.00    +0.056 C 
ATOM     17  C   UNL     1      -6.491  -2.196  -7.321  0.00  0.00    +0.118 C 
ATOM     18  N   UNL     1      -7.166  -1.524  -6.215  0.00  0.00    -0.271 N 
ATOM     19  C   UNL     1      -8.222  -0.681  -6.207  0.00  0.00    +0.220 C 
ATOM     20  O   UNL     1      -8.943  -0.578  -7.177  0.00  0.00    -0.275 OA
ATOM     21  C   UNL     1      -8.482   0.128  -4.959  0.00  0.00    +0.101 C 
ATOM     22  C   UNL     1      -8.225  -0.664  -3.679  0.00  0.00    +0.046 C 
ENDBRANCH   8  10
ENDBRANCH   3   6
ENDBRANCH   1   2
BRANCH   1  23
ATOM     23  C   UNL     1       1.590  -3.987  -0.152  0.00  0.00    +0.104 C 
BRANCH  23  24
ATOM     24  C   UNL     1       2.438  -4.362   1.036  0.00  0.00    -0.028 A 
ATOM     25  C   UNL     1       2.267  -3.706   2.241  0.00  0.00    +0.007 A 
ATOM     26  C   UNL     1       3.045  -4.049   3.329  0.00  0.00    +0.024 A 
ATOM     27  C   UNL     1       3.999  -5.054   3.212  0.00  0.00    +0.033 A 
ATOM     28  C   UNL     1       4.168  -5.714   2.005  0.00  0.00    -0.026 A 
ATOM     29  C   UNL     1       3.381  -5.365   0.920  0.00  0.00    +0.010 A 
ATOM     30  C   UNL     1       5.184  -6.814   1.845  0.00  0.00    +0.038 C 
ATOM     31  C   UNL     1       6.254  -6.717   2.932  0.00  0.00    +0.024 C 
ATOM     32  C   UNL     1       5.565  -6.625   4.300  0.00  0.00    +0.105 C 
ATOM     33  N   UNL     1       4.780  -5.384   4.325  0.00  0.00    -0.333 N 
ATOM     34  C   UNL     1       4.816  -4.505   5.497  0.00  0.00    +0.129 C 
ENDBRANCH  23  24
BRANCH  23  39
ATOM     35  C   UNL     1       4.190   0.856  -1.395  0.00  0.00    -0.096 C 
ATOM     36  N   UNL     1       3.790  -0.442  -0.834  0.00  0.00    +0.379 N 
ATOM     37  C   UNL     1       2.461  -0.322  -0.222  0.00  0.00    -0.064 C 
ATOM     38  C   UNL     1       2.052  -1.669   0.379  0.00  0.00    +0.066 C 
ATOM     39  N   UNL     1       2.033  -2.689  -0.679  0.00  0.00    -0.297 NA
ATOM     40  C   UNL     1       3.352  -2.803  -1.318  0.00  0.00    +0.066 C 
ATOM     41  C   UNL     1       3.749  -1.446  -1.905  0.00  0.00    -0.064 C 
ATOM     42  H   UNL     1       4.459  -0.725  -0.133  0.00  0.00    -0.082 HD
ENDBRANCH  23  39
ENDBRANCH   1  23
TORSDOF 6
