REMARK  Name = ZINC39467584
REMARK  6 active torsions:
REMARK  status: ('A' for Active; 'I' for Inactive)
REMARK    1  A    between atoms: C_1  and  N_2
REMARK    2  A    between atoms: N_2  and  C_3
REMARK    3  A    between atoms: C_3  and  C_4
REMARK    4  A    between atoms: C_14  and  C_16
REMARK    5  A    between atoms: C_16  and  C_17
REMARK    6  A    between atoms: N_24  and  C_25
REMARK                            x       y       z     vdW  Elec       q    Type
REMARK                         _______ _______ _______ _____ _____    ______ ____
ROOT
ATOM      1  C   UNL     1      -0.101  -1.163  -3.633  0.00  0.00    +0.028 C 
ATOM      2  C   UNL     1      -0.134  -0.552  -5.005  0.00  0.00    +0.200 C 
ATOM      3  O   UNL     1      -1.075   0.153  -5.306  0.00  0.00    -0.278 OA
ATOM      4  N   UNL     1       0.831  -0.752  -5.909  0.00  0.00    -0.318 N 
ATOM      5  C   UNL     1       2.015  -1.561  -5.629  0.00  0.00    +0.085 C 
ATOM      6  C   UNL     1       1.766  -2.443  -4.405  0.00  0.00    -0.058 C 
ATOM      7  N   UNL     1       1.263  -1.599  -3.310  0.00  0.00    +0.391 N 
ATOM      8  H   UNL     1       0.742  -0.345  -6.785  0.00  0.00    +0.149 HD
ATOM      9  H   UNL     1       1.859  -0.792  -3.203  0.00  0.00    -0.080 HD
ENDROOT
BRANCH   7  10
ATOM     10  C   UNL     1       1.250  -2.373  -2.062  0.00  0.00    -0.059 C 
ATOM     11  C   UNL     1       1.090  -1.442  -0.841  0.00  0.00    +0.020 C 
ATOM     12  C   UNL     1       1.926  -2.075   0.251  0.00  0.00    -0.046 A 
ATOM     13  C   UNL     1       1.916  -1.871   1.621  0.00  0.00    +0.004 A 
ATOM     14  C   UNL     1       2.783  -2.573   2.434  0.00  0.00    +0.000 A 
ATOM     15  C   UNL     1       3.666  -3.482   1.881  0.00  0.00    +0.000 A 
ATOM     16  C   UNL     1       3.678  -3.686   0.515  0.00  0.00    +0.004 A 
ATOM     17  C   UNL     1       2.808  -2.984  -0.303  0.00  0.00    -0.046 A 
ATOM     18  C   UNL     1       2.625  -3.024  -1.805  0.00  0.00    +0.020 C 
ENDBRANCH   7  10
BRANCH   1  19
ATOM     19  C   UNL     1      -0.559  -0.127  -2.605  0.00  0.00    +0.090 C 
BRANCH  19  22
ATOM     20  C   UNL     1      -0.711   1.860  -0.587  0.00  0.00    +0.132 C 
ATOM     21  N   UNL     1       0.307   1.977  -1.634  0.00  0.00    -0.302 N 
ATOM     22  C   UNL     1       0.426   1.014  -2.569  0.00  0.00    +0.214 C 
ATOM     23  O   UNL     1       1.326   1.064  -3.380  0.00  0.00    -0.276 OA
BRANCH  21  24
ATOM     24  C   UNL     1       1.194   3.142  -1.665  0.00  0.00    +0.140 C 
BRANCH  24  25
ATOM     25  C   UNL     1       2.401   2.888  -0.759  0.00  0.00    +0.173 C 
ATOM     26  C   UNL     1       3.239   4.134  -0.623  0.00  0.00    -0.019 C 
ATOM     27  C   UNL     1       3.204   4.431   0.681  0.00  0.00    +0.065 C 
ATOM     28  C   UNL     1       3.922   5.624   1.272  0.00  0.00    +0.057 C 
ATOM     29  C   UNL     1       4.973   6.107   0.268  0.00  0.00    +0.006 C 
ATOM     30  C   UNL     1       4.328   6.286  -1.109  0.00  0.00    +0.005 C 
ATOM     31  C   UNL     1       3.968   4.907  -1.681  0.00  0.00    +0.035 C 
ATOM     32  N   UNL     1       2.452   3.524   1.342  0.00  0.00    -0.158 NA
ATOM     33  N   UNL     1       1.969   2.632   0.629  0.00  0.00    -0.178 NA
ENDBRANCH  24  25
ENDBRANCH  21  24
ENDBRANCH  19  22
ENDBRANCH   1  19
TORSDOF 5
