REMARK  Name = ZINC42421418
REMARK  4 active torsions:
REMARK  status: ('A' for Active; 'I' for Inactive)
REMARK    1  A    between atoms: C_1  and  C_2
REMARK    2  A    between atoms: C_2  and  O_3
REMARK    3  A    between atoms: O_3  and  C_4
REMARK    4  A    between atoms: C_14  and  N_17
REMARK                            x       y       z     vdW  Elec       q    Type
REMARK                         _______ _______ _______ _____ _____    ______ ____
ROOT
ATOM      1  C   UNL     1      -1.432  -1.925   0.005  0.00  0.00    +0.136 C 
ATOM      2  C   UNL     1      -2.720  -2.349  -0.705  0.00  0.00    +0.035 C 
ATOM      3  C   UNL     1      -2.805  -3.876  -0.741  0.00  0.00    +0.021 C 
ATOM      4  C   UNL     1      -2.842  -4.416   0.692  0.00  0.00    +0.108 C 
ATOM      5  N   UNL     1      -1.681  -3.894   1.425  0.00  0.00    -0.297 N 
ATOM      6  C   UNL     1      -1.453  -2.442   1.447  0.00  0.00    +0.139 C 
ATOM      7  C   UNL     1      -0.815  -4.755   2.083  0.00  0.00    +0.218 A 
ATOM      8  N   UNL     1       0.219  -4.251   2.739  0.00  0.00    -0.221 NA
ATOM      9  C   UNL     1       1.065  -5.042   3.379  0.00  0.00    +0.138 A 
ATOM     10  C   UNL     1       0.856  -6.417   3.356  0.00  0.00    +0.061 A 
ATOM     11  C   UNL     1      -0.242  -6.909   2.656  0.00  0.00    +0.138 A 
ATOM     12  N   UNL     1      -1.048  -6.058   2.044  0.00  0.00    -0.221 NA
ENDROOT
BRANCH  10  13
ATOM     13  N   UNL     1       1.730  -7.287   4.021  0.00  0.00    -0.356 N 
ATOM     14  H   UNL     1       2.492  -6.932   4.506  0.00  0.00    +0.142 HD
ATOM     15  H   UNL     1       1.574  -8.244   3.998  0.00  0.00    +0.142 HD
ENDBRANCH  10  13
BRANCH   1  16
ATOM     16  O   UNL     1      -1.339  -0.499   0.012  0.00  0.00    -0.375 OA
BRANCH  16  18
ATOM     17  C   UNL     1      -0.019   1.526   0.010  0.00  0.00    +0.034 C 
ATOM     18  C   UNL     1       0.002  -0.004   0.002  0.00  0.00    +0.157 C 
ENDBRANCH  16  18
ENDBRANCH   1  16
TORSDOF 3
