REMARK  Name = ZINC08684151
REMARK  5 active torsions:
REMARK  status: ('A' for Active; 'I' for Inactive)
REMARK    1  A    between atoms: C_1  and  C_2
REMARK    2  A    between atoms: C_2  and  C_3
REMARK    3  A    between atoms: C_2  and  C_4
REMARK    4  A    between atoms: C_7  and  C_10
REMARK    5  A    between atoms: C_13  and  C_19
REMARK                            x       y       z     vdW  Elec       q    Type
REMARK                         _______ _______ _______ _____ _____    ______ ____
ROOT
ATOM      1  C   UNL     1      -5.419  -2.005   0.043  0.00  0.00    +0.136 C 
ATOM      2  C   UNL     1      -5.448  -3.482   0.484  0.00  0.00    +0.087 C 
ATOM      3  C   UNL     1      -6.025  -4.207  -0.711  0.00  0.00    +0.069 C 
ATOM      4  N   UNL     1      -6.281  -3.359  -1.646  0.00  0.00    -0.182 NA
ATOM      5  N   UNL     1      -5.970  -2.037  -1.321  0.00  0.00    -0.195 N 
ATOM      6  C   UNL     1      -6.146  -0.951  -2.134  0.00  0.00    +0.159 C 
ATOM      7  N   UNL     1      -6.670  -1.112  -3.386  0.00  0.00    -0.380 N 
ATOM      8  S   UNL     1      -5.724   0.563  -1.599  0.00  0.00    -0.015 SA
ATOM      9  H   UNL     1      -6.917  -1.997  -3.698  0.00  0.00    +0.158 HD
ATOM     10  H   UNL     1      -6.795  -0.342  -3.963  0.00  0.00    +0.158 HD
ENDROOT
BRANCH   3  11
ATOM     11  C   UNL     1      -6.260  -5.660  -0.792  0.00  0.00    -0.002 A 
ATOM     12  C   UNL     1      -5.947  -6.483   0.292  0.00  0.00    +0.011 A 
ATOM     13  C   UNL     1      -6.169  -7.842   0.210  0.00  0.00    +0.016 A 
ATOM     14  C   UNL     1      -6.700  -8.391  -0.945  0.00  0.00    +0.018 A 
ATOM     15  C   UNL     1      -7.012  -7.581  -2.024  0.00  0.00    +0.016 A 
ATOM     16  C   UNL     1      -6.800  -6.220  -1.953  0.00  0.00    +0.011 A 
ATOM     17 BR   UNL     1      -7.001 -10.255  -1.049  0.00  0.00    -0.050 Br
ENDBRANCH   3  11
BRANCH   1  21
ATOM     18  C   UNL     1      -1.412  -0.526   0.013  0.00  0.00    -0.045 A 
ATOM     19  C   UNL     1      -2.259  -0.204   1.056  0.00  0.00    +0.004 A 
ATOM     20  C   UNL     1      -3.556  -0.683   1.066  0.00  0.00    +0.006 A 
ATOM     21  C   UNL     1      -4.006  -1.482   0.032  0.00  0.00    -0.025 A 
ATOM     22  C   UNL     1      -3.159  -1.803  -1.012  0.00  0.00    +0.006 A 
ATOM     23  C   UNL     1      -1.863  -1.321  -1.024  0.00  0.00    +0.004 A 
BRANCH  18  25
ATOM     24  C   UNL     1      -0.019   1.526   0.010  0.00  0.00    +0.012 C 
ATOM     25  C   UNL     1       0.002  -0.004   0.002  0.00  0.00    +0.013 C 
ATOM     26  C   UNL     1       0.742  -0.511   1.242  0.00  0.00    +0.012 C 
ENDBRANCH  18  25
ENDBRANCH   1  21
TORSDOF 3
