REMARK  Name = ZINC39449907
REMARK  4 active torsions:
REMARK  status: ('A' for Active; 'I' for Inactive)
REMARK    1  A    between atoms: C_1  and  O_2
REMARK    2  A    between atoms: O_2  and  N_3
REMARK    3  A    between atoms: C_16  and  S_21
REMARK    4  A    between atoms: S_21  and  C_22
REMARK                            x       y       z     vdW  Elec       q    Type
REMARK                         _______ _______ _______ _____ _____    ______ ____
ROOT
ATOM      1  N   UNL     1       0.667  -0.577   1.113  0.00  0.00    -0.139 N 
ATOM      2  C   UNL     1       2.031  -0.826   1.024  0.00  0.00    +0.149 A 
ATOM      3  C   UNL     1       2.723  -1.379   2.085  0.00  0.00    +0.085 A 
ATOM      4  C   UNL     1       2.009  -1.719   3.324  0.00  0.00    +0.099 A 
ATOM      5  C   UNL     1       0.623  -1.458   3.387  0.00  0.00    +0.071 A 
ATOM      6  C   UNL     1      -0.042  -0.857   2.222  0.00  0.00    +0.293 A 
ATOM      7  O   UNL     1      -1.234  -0.618   2.258  0.00  0.00    -0.264 OA
ATOM      8  C   UNL     1      -0.077  -1.771   4.553  0.00  0.00    +0.037 A 
ATOM      9  C   UNL     1       0.630  -2.330   5.605  0.00  0.00    +0.060 A 
ATOM     10  C   UNL     1       1.994  -2.560   5.470  0.00  0.00    +0.131 A 
ATOM     11  N   UNL     1       2.636  -2.257   4.362  0.00  0.00    -0.251 NA
ATOM     12 CL   UNL     1      -0.183  -2.742   7.082  0.00  0.00    -0.082 Cl
ATOM     13  N   UNL     1       4.082  -1.604   1.979  0.00  0.00    -0.328 N 
ATOM     14  C   UNL     1       4.858  -0.764   1.054  0.00  0.00    +0.136 C 
ATOM     15  C   UNL     1       4.183  -0.816  -0.322  0.00  0.00    +0.114 C 
ATOM     16  C   UNL     1       2.717  -0.504  -0.170  0.00  0.00    +0.187 C 
ATOM     17  O   UNL     1       2.118   0.029  -1.083  0.00  0.00    -0.290 OA
ATOM     18  H   UNL     1       4.513  -2.299   2.501  0.00  0.00    +0.147 HD
ENDROOT
BRANCH   1  20
ATOM     19  C   UNL     1      -0.017   1.425   0.010  0.00  0.00    +0.311 C 
ATOM     20  O   UNL     1       0.002  -0.004   0.002  0.00  0.00    -0.411 OA
ENDBRANCH   1  20
BRANCH  14  21
ATOM     21  S   UNL     1       4.887   0.946   1.658  0.00  0.00    -0.142 S 
ATOM     22  C   UNL     1       4.330   0.812   3.380  0.00  0.00    +0.086 C 
ENDBRANCH  14  21
TORSDOF 2
