REMARK  Name = ZINC35696723
REMARK  7 active torsions:
REMARK  status: ('A' for Active; 'I' for Inactive)
REMARK    1  A    between atoms: C_1  and  C_2
REMARK    2  A    between atoms: C_5  and  C_8
REMARK    3  A    between atoms: N_6  and  C_7
REMARK    4  A    between atoms: C_8  and  O_9
REMARK    5  A    between atoms: O_9  and  C_10
REMARK    6  A    between atoms: C_11  and  C_18
REMARK    7  A    between atoms: C_18  and  N_19
REMARK                            x       y       z     vdW  Elec       q    Type
REMARK                         _______ _______ _______ _____ _____    ______ ____
ROOT
ATOM      1  C   UNL     1       1.440  -4.936   2.345  0.00  0.00    +0.141 A 
ATOM      2  C   UNL     1       1.650  -4.943   3.716  0.00  0.00    -0.020 A 
ATOM      3  C   UNL     1       2.012  -6.114   4.353  0.00  0.00    +0.025 A 
ATOM      4  C   UNL     1       2.165  -7.280   3.625  0.00  0.00    +0.043 A 
ATOM      5  C   UNL     1       1.957  -7.277   2.257  0.00  0.00    +0.043 A 
ATOM      6  C   UNL     1       1.589  -6.108   1.617  0.00  0.00    +0.084 A 
ATOM      7 CL   UNL     1       1.320  -6.105  -0.098  0.00  0.00    -0.080 Cl
ATOM      8 CL   UNL     1       2.621  -8.750   4.429  0.00  0.00    -0.083 Cl
ENDROOT
BRANCH   1   9
ATOM      9  O   UNL     1       1.084  -3.784   1.716  0.00  0.00    -0.483 OA
BRANCH   9  10
ATOM     10  C   UNL     1       2.141  -2.978   1.192  0.00  0.00    +0.305 C 
BRANCH  10  15
ATOM     11  C   UNL     1       0.137   0.534  -1.837  0.00  0.00    +0.088 C 
ATOM     12  C   UNL     1       0.713  -0.187  -0.645  0.00  0.00    +0.130 A 
ATOM     13  N   UNL     1       0.893   0.313   0.547  0.00  0.00    -0.135 NA
ATOM     14  N   UNL     1       1.403  -0.581   1.318  0.00  0.00    -0.131 NA
ATOM     15  C   UNL     1       1.571  -1.691   0.653  0.00  0.00    +0.171 A 
ATOM     16  N   UNL     1       1.133  -1.474  -0.611  0.00  0.00    -0.315 N 
ATOM     17  C   UNL     1       1.119  -2.436  -1.716  0.00  0.00    +0.152 C 
ENDBRANCH  10  15
ENDBRANCH   9  10
ENDBRANCH   1   9
BRANCH   2  18
ATOM     18  C   UNL     1       1.484  -3.673   4.510  0.00  0.00    -0.047 C 
BRANCH  18  19
ATOM     19  N   UNL     1       0.053  -3.401   4.705  0.00  0.00    +0.381 N 
ATOM     20  H   UNL     1      -0.379  -3.216   3.812  0.00  0.00    -0.090 HD
ATOM     21  H   UNL     1      -0.386  -4.202   5.132  0.00  0.00    -0.090 HD
ATOM     22  H   UNL     1      -0.058  -2.597   5.305  0.00  0.00    -0.090 HD
ENDBRANCH  18  19
ENDBRANCH   2  18
TORSDOF 5
