REMARK  Name = ZINC23454048
REMARK  12 active torsions:
REMARK  status: ('A' for Active; 'I' for Inactive)
REMARK    1  A    between atoms: C_1  and  O_2
REMARK    2  A    between atoms: O_2  and  C_3
REMARK    3  A    between atoms: C_7  and  C_9
REMARK    4  A    between atoms: C_9  and  C_11
REMARK    5  A    between atoms: C_9  and  O_29
REMARK    6  A    between atoms: C_11  and  N_12
REMARK    7  A    between atoms: N_15  and  S_18
REMARK    8  A    between atoms: S_18  and  C_21
REMARK    9  A    between atoms: C_25  and  O_27
REMARK   10  A    between atoms: O_27  and  C_28
REMARK   11  A    between atoms: O_29  and  C_30
REMARK   12  A    between atoms: C_30  and  C_31
REMARK                            x       y       z     vdW  Elec       q    Type
REMARK                         _______ _______ _______ _____ _____    ______ ____
ROOT
ATOM      1  C   UNL     1      -0.123   0.955   2.423  0.00  0.00    -0.042 C 
ENDROOT
BRANCH   1   2
ATOM      2  N   UNL     1      -0.901   1.382   1.252  0.00  0.00    +0.383 N 
ATOM      3  C   UNL     1      -0.419   0.722   0.032  0.00  0.00    -0.061 C 
ATOM      4  C   UNL     1      -1.363   1.050  -1.130  0.00  0.00    +0.091 C 
ATOM      5  N   UNL     1      -1.497   2.512  -1.224  0.00  0.00    -0.180 NA
ATOM      6  C   UNL     1      -1.844   3.259  -0.006  0.00  0.00    +0.091 C 
ATOM      7  C   UNL     1      -0.881   2.844   1.111  0.00  0.00    -0.061 C 
ATOM      8  H   UNL     1      -1.946   1.075   1.408  0.00  0.00    -0.082 HD
BRANCH   5   9
ATOM      9  S   UNL     1      -1.262   3.295  -2.664  0.00  0.00    +0.061 S 
ATOM     10  O   UNL     1      -0.907   4.634  -2.345  0.00  0.00    -0.153 OA
ATOM     11  O   UNL     1      -0.432   2.454  -3.454  0.00  0.00    -0.153 OA
BRANCH   9  12
ATOM     12  C   UNL     1      -2.823   3.369  -3.478  0.00  0.00    +0.109 A 
ATOM     13  C   UNL     1      -3.204   2.353  -4.335  0.00  0.00    +0.029 A 
ATOM     14  C   UNL     1      -4.431   2.405  -4.971  0.00  0.00    +0.005 A 
ATOM     15  C   UNL     1      -5.274   3.479  -4.760  0.00  0.00    +0.046 A 
ATOM     16  C   UNL     1      -4.891   4.503  -3.906  0.00  0.00    +0.122 A 
ATOM     17  C   UNL     1      -3.662   4.445  -3.264  0.00  0.00    +0.074 A 
BRANCH  16  18
ATOM     18  O   UNL     1      -5.719   5.560  -3.697  0.00  0.00    -0.495 OA
ATOM     19  C   UNL     1      -6.968   5.553  -4.391  0.00  0.00    +0.277 C 
ENDBRANCH  16  18
ENDBRANCH   9  12
ENDBRANCH   5   9
ENDBRANCH   1   2
BRANCH   1  20
ATOM     20  C   UNL     1      -0.591   1.730   3.656  0.00  0.00    +0.132 C 
BRANCH  20  25
ATOM     21  C   UNL     1       1.966   1.599   6.435  0.00  0.00    +0.120 A 
ATOM     22  C   UNL     1       1.610   0.424   7.081  0.00  0.00    +0.045 A 
ATOM     23  C   UNL     1       0.544  -0.322   6.616  0.00  0.00    +0.004 A 
ATOM     24  C   UNL     1      -0.170   0.104   5.511  0.00  0.00    +0.006 A 
ATOM     25  C   UNL     1       0.186   1.272   4.863  0.00  0.00    -0.017 A 
ATOM     26  C   UNL     1       1.251   2.022   5.324  0.00  0.00    +0.051 A 
BRANCH  21  28
ATOM     27  C   UNL     1       3.704   1.840   8.040  0.00  0.00    +0.277 C 
ATOM     28  O   UNL     1       3.014   2.336   6.891  0.00  0.00    -0.495 OA
ENDBRANCH  21  28
ENDBRANCH  20  25
BRANCH  20  29
ATOM     29  O   UNL     1      -1.984   1.493   3.869  0.00  0.00    -0.369 OA
BRANCH  29  30
ATOM     30  C   UNL     1      -2.673   2.583   4.484  0.00  0.00    +0.195 C 
BRANCH  30  31
ATOM     31  C   UNL     1      -4.126   2.224   4.659  0.00  0.00    -0.021 A 
ATOM     32  C   UNL     1      -4.550   1.603   5.819  0.00  0.00    +0.006 A 
ATOM     33  C   UNL     1      -5.883   1.275   5.981  0.00  0.00    +0.002 A 
ATOM     34  C   UNL     1      -6.793   1.567   4.982  0.00  0.00    +0.020 A 
ATOM     35  C   UNL     1      -6.369   2.189   3.821  0.00  0.00    +0.041 A 
ATOM     36  C   UNL     1      -5.036   2.522   3.663  0.00  0.00    +0.026 A 
ATOM     37 CL   UNL     1      -7.512   2.557   2.567  0.00  0.00    -0.084 Cl
ENDBRANCH  30  31
ENDBRANCH  29  30
ENDBRANCH  20  29
ENDBRANCH   1  20
TORSDOF 10
