REMARK  Name = ZINC39836559
REMARK  9 active torsions:
REMARK  status: ('A' for Active; 'I' for Inactive)
REMARK    1  A    between atoms: C_1  and  C_2
REMARK    2  A    between atoms: C_2  and  C_3
REMARK    3  A    between atoms: C_2  and  C_4
REMARK    4  A    between atoms: C_2  and  C_5
REMARK    5  A    between atoms: C_12  and  N_25
REMARK    6  A    between atoms: C_13  and  C_14
REMARK    7  A    between atoms: N_16  and  C_17
REMARK    8  A    between atoms: C_26  and  C_28
REMARK    9  A    between atoms: C_28  and  C_29
REMARK                            x       y       z     vdW  Elec       q    Type
REMARK                         _______ _______ _______ _____ _____    ______ ____
ROOT
ATOM      1  C   UNL     1       0.718  -0.497  -1.257  0.00  0.00    -0.000 C 
ATOM      2  C   UNL     1       0.746  -2.029  -1.264  0.00  0.00    +0.009 C 
ATOM      3  C   UNL     1       1.234  -2.534  -2.624  0.00  0.00    +0.037 C 
ATOM      4  C   UNL     1       2.546  -1.840  -2.959  0.00  0.00    -0.023 A 
ATOM      5  C   UNL     1       2.920  -0.705  -2.330  0.00  0.00    -0.004 A 
ATOM      6  S   UNL     1       4.484  -0.290  -3.046  0.00  0.00    -0.077 S 
ATOM      7  C   UNL     1       4.646  -1.558  -4.135  0.00  0.00    +0.084 A 
ATOM      8  C   UNL     1       3.496  -2.310  -3.953  0.00  0.00    +0.069 A 
ATOM      9  C   UNL     1       2.161   0.028  -1.267  0.00  0.00    +0.046 C 
ENDROOT
BRANCH   1  11
ATOM     10  C   UNL     1      -0.019   1.526   0.010  0.00  0.00    +0.011 C 
ATOM     11  C   UNL     1       0.002  -0.004   0.002  0.00  0.00    -0.035 C 
ATOM     12  C   UNL     1       0.742  -0.511   1.242  0.00  0.00    +0.011 C 
ATOM     13  C   UNL     1      -1.433  -0.534   0.013  0.00  0.00    +0.011 C 
ENDBRANCH   1  11
BRANCH   8  14
ATOM     14  C   UNL     1       3.248  -3.528  -4.730  0.00  0.00    +0.247 C 
ATOM     15  O   UNL     1       2.655  -3.463  -5.791  0.00  0.00    -0.270 OA
ATOM     16  N   UNL     1       3.677  -4.720  -4.270  0.00  0.00    -0.307 N 
ATOM     17  H   UNL     1       4.149  -4.772  -3.424  0.00  0.00    +0.149 HD
BRANCH  16  18
ATOM     18  C   UNL     1       3.429  -5.937  -5.046  0.00  0.00    +0.096 C 
ATOM     19  C   UNL     1       2.044  -6.504  -4.696  0.00  0.00    +0.046 C 
ATOM     20  C   UNL     1       1.904  -7.940  -5.257  0.00  0.00    +0.168 C 
ATOM     21  S   UNL     1       3.643  -8.539  -5.273  0.00  0.00    -0.029 S 
ATOM     22  O   UNL     1       4.028  -8.801  -6.615  0.00  0.00    -0.174 OA
ATOM     23  O   UNL     1       3.791  -9.555  -4.291  0.00  0.00    -0.174 OA
ATOM     24  C   UNL     1       4.496  -7.013  -4.692  0.00  0.00    +0.188 C 
ENDBRANCH  16  18
ENDBRANCH   8  14
BRANCH   7  25
ATOM     25  N   UNL     1       5.691  -1.799  -5.014  0.00  0.00    -0.279 N 
ATOM     26  C   UNL     1       6.741  -0.955  -5.059  0.00  0.00    +0.219 C 
ATOM     27  O   UNL     1       6.773   0.014  -4.330  0.00  0.00    -0.275 OA
ATOM     28  H   UNL     1       5.666  -2.574  -5.597  0.00  0.00    +0.155 HD
BRANCH  26  29
ATOM     29  C   UNL     1       7.877  -1.216  -6.015  0.00  0.00    +0.120 C 
BRANCH  29  30
ATOM     30  C   UNL     1       8.932  -0.118  -5.866  0.00  0.00    +0.150 C 
ATOM     31  C   UNL     1      10.090  -0.328  -6.831  0.00  0.00    +0.234 C 
ATOM     32  O   UNL     1       9.943  -0.311  -8.034  0.00  0.00    -0.274 OA
ATOM     33  N   UNL     1      11.269  -0.530  -6.266  0.00  0.00    -0.246 N 
ATOM     34  C   UNL     1      11.459  -0.553  -4.934  0.00  0.00    +0.279 C 
ATOM     35  O   UNL     1      12.498  -0.731  -4.328  0.00  0.00    -0.263 OA
ATOM     36  S   UNL     1       9.827  -0.262  -4.263  0.00  0.00    -0.054 S 
ATOM     37  H   UNL     1      12.036  -0.669  -6.842  0.00  0.00    +0.158 HD
ENDBRANCH  29  30
ENDBRANCH  26  29
ENDBRANCH   7  25
TORSDOF 6
