REMARK  Name = ZINC49549539
REMARK  6 active torsions:
REMARK  status: ('A' for Active; 'I' for Inactive)
REMARK    1  A    between atoms: C_1  and  C_2
REMARK    2  A    between atoms: C_2  and  C_3
REMARK    3  A    between atoms: C_2  and  C_4
REMARK    4  A    between atoms: C_2  and  N_5
REMARK    5  A    between atoms: C_10  and  C_16
REMARK    6  A    between atoms: N_24  and  C_27
REMARK                            x       y       z     vdW  Elec       q    Type
REMARK                         _______ _______ _______ _____ _____    ______ ____
ROOT
ATOM      1  N   UNL     1       0.688  -0.476  -1.203  0.00  0.00    -0.245 N 
ATOM      2  C   UNL     1       0.889  -1.756  -1.547  0.00  0.00    +0.128 A 
ATOM      3  C   UNL     1       1.563  -1.766  -2.741  0.00  0.00    +0.020 A 
ATOM      4  C   UNL     1       1.774  -0.450  -3.123  0.00  0.00    +0.140 A 
ATOM      5  N   UNL     1       1.246   0.331  -2.208  0.00  0.00    -0.177 NA
ATOM      6  C   UNL     1       1.954  -3.046  -3.433  0.00  0.00    +0.068 C 
ATOM      7  C   UNL     1       0.937  -4.128  -3.057  0.00  0.00    +0.109 C 
ATOM      8  C   UNL     1       0.616  -4.094  -1.591  0.00  0.00    +0.219 C 
ATOM      9  O   UNL     1       0.425  -5.141  -1.009  0.00  0.00    -0.275 OA
ATOM     10  N   UNL     1       0.532  -2.938  -0.897  0.00  0.00    -0.270 N 
ATOM     11  H   UNL     1       0.233  -2.930   0.025  0.00  0.00    +0.156 HD
ENDROOT
BRANCH   6  12
ATOM     12  C   UNL     1       3.331  -3.465  -2.985  0.00  0.00    +0.026 A 
ATOM     13  C   UNL     1       4.330  -3.582  -3.894  0.00  0.00    +0.019 A 
ATOM     14  C   UNL     1       5.656  -3.990  -3.427  0.00  0.00    -0.001 A 
ATOM     15  C   UNL     1       6.726  -4.127  -4.318  0.00  0.00    +0.010 A 
ATOM     16  C   UNL     1       7.952  -4.510  -3.850  0.00  0.00    +0.001 A 
ATOM     17  C   UNL     1       8.144  -4.763  -2.498  0.00  0.00    +0.002 A 
ATOM     18  C   UNL     1       7.104  -4.635  -1.603  0.00  0.00    +0.026 A 
ATOM     19  C   UNL     1       5.848  -4.246  -2.057  0.00  0.00    +0.052 A 
ATOM     20  N   UNL     1       4.790  -4.109  -1.183  0.00  0.00    -0.311 N 
ATOM     21  C   UNL     1       3.577  -3.728  -1.621  0.00  0.00    +0.255 A 
ATOM     22  O   UNL     1       2.666  -3.612  -0.820  0.00  0.00    -0.267 OA
ATOM     23  C   UNL     1       4.992  -4.375   0.243  0.00  0.00    +0.152 C 
ENDBRANCH   6  12
BRANCH   1  25
ATOM     24  C   UNL     1      -0.019   1.526   0.010  0.00  0.00    +0.036 C 
ATOM     25  C   UNL     1       0.002  -0.004   0.002  0.00  0.00    +0.057 C 
ATOM     26  C   UNL     1       0.742  -0.511   1.242  0.00  0.00    +0.036 C 
ATOM     27  C   UNL     1      -1.433  -0.534   0.013  0.00  0.00    +0.036 C 
ENDBRANCH   1  25
TORSDOF 2
