REMARK  Name = ZINC20038031
REMARK  3 active torsions:
REMARK  status: ('A' for Active; 'I' for Inactive)
REMARK    1  A    between atoms: C_6  and  C_7
REMARK    2  A    between atoms: N_16  and  N_17
REMARK    3  A    between atoms: C_18  and  C_19
REMARK                            x       y       z     vdW  Elec       q    Type
REMARK                         _______ _______ _______ _____ _____    ______ ____
ROOT
ATOM      1  C   UNL     1      -1.023  -1.048   1.014  0.00  0.00    +0.185 A 
ATOM      2  N   UNL     1      -2.189  -0.598   1.439  0.00  0.00    -0.127 NA
ATOM      3  N   UNL     1      -3.100  -1.489   1.254  0.00  0.00    -0.128 NA
ATOM      4  C   UNL     1      -2.562  -2.565   0.697  0.00  0.00    +0.178 A 
ATOM      5  N   UNL     1      -1.226  -2.304   0.526  0.00  0.00    -0.191 N 
ATOM      6  N   UNL     1      -0.392  -3.264  -0.051  0.00  0.00    -0.147 NA
ATOM      7  C   UNL     1      -0.877  -4.421  -0.438  0.00  0.00    +0.157 A 
ATOM      8  C   UNL     1      -2.245  -4.718  -0.281  0.00  0.00    +0.050 A 
ATOM      9  C   UNL     1      -3.080  -3.807   0.286  0.00  0.00    +0.053 A 
ATOM     10  N   UNL     1      -0.031  -5.365  -1.011  0.00  0.00    -0.242 N 
ATOM     11  H   UNL     1      -0.383  -6.221  -1.299  0.00  0.00    +0.174 HD
ENDROOT
BRANCH   1  17
ATOM     12  C   UNL     1       0.283   1.056   1.285  0.00  0.00    +0.013 A 
ATOM     13  C   UNL     1       1.487   1.729   1.322  0.00  0.00    +0.016 A 
ATOM     14  C   UNL     1       2.673   1.042   1.130  0.00  0.00    +0.018 A 
ATOM     15  C   UNL     1       2.660  -0.323   0.900  0.00  0.00    +0.016 A 
ATOM     16  C   UNL     1       1.463  -1.008   0.860  0.00  0.00    +0.013 A 
ATOM     17  C   UNL     1       0.263  -0.321   1.054  0.00  0.00    +0.021 A 
ATOM     18 BR   UNL     1       4.319   1.972   1.182  0.00  0.00    -0.050 Br
ENDBRANCH   1  17
BRANCH  10  19
ATOM     19  N   UNL     1       1.331  -5.077  -1.172  0.00  0.00    -0.312 N 
ATOM     20  C   UNL     1       2.147  -5.987  -1.725  0.00  0.00    +0.111 C 
ATOM     21  H   UNL     1       1.683  -4.221  -0.884  0.00  0.00    +0.184 HD
BRANCH  20  22
ATOM     22  C   UNL     1       3.488  -5.672  -1.958  0.00  0.00    +0.042 A 
ATOM     23  C   UNL     1       4.388  -6.652  -2.433  0.00  0.00    +0.033 A 
ATOM     24  C   UNL     1       5.689  -6.326  -2.655  0.00  0.00    +0.043 A 
ATOM     25  C   UNL     1       6.167  -5.038  -2.423  0.00  0.00    +0.044 A 
ATOM     26  C   UNL     1       5.351  -4.048  -1.965  0.00  0.00    +0.090 A 
ATOM     27  C   UNL     1       3.992  -4.314  -1.721  0.00  0.00    +0.206 A 
ATOM     28  O   UNL     1       3.246  -3.433  -1.315  0.00  0.00    -0.286 OA
ATOM     29 CL   UNL     1       5.988  -2.457  -1.689  0.00  0.00    -0.080 Cl
ATOM     30 CL   UNL     1       6.781  -7.543  -3.239  0.00  0.00    -0.083 Cl
ENDBRANCH  20  22
ENDBRANCH  10  19
TORSDOF 3
