REMARK  Name = ZINC64044123
REMARK  10 active torsions:
REMARK  status: ('A' for Active; 'I' for Inactive)
REMARK    1  A    between atoms: C_1  and  C_2
REMARK    2  A    between atoms: C_10  and  C_12
REMARK    3  A    between atoms: N_14  and  C_15
REMARK    4  A    between atoms: N_14  and  C_31
REMARK    5  A    between atoms: C_15  and  C_16
REMARK    6  A    between atoms: C_19  and  O_24
REMARK    7  A    between atoms: C_20  and  O_22
REMARK    8  A    between atoms: O_22  and  C_23
REMARK    9  A    between atoms: O_24  and  C_25
REMARK   10  A    between atoms: C_31  and  C_32
REMARK                            x       y       z     vdW  Elec       q    Type
REMARK                         _______ _______ _______ _____ _____    ______ ____
ROOT
ATOM      1  C   UNL     1       2.186  -0.931   2.330  0.00  0.00    +0.243 C 
ATOM      2  O   UNL     1       3.290  -1.411   2.184  0.00  0.00    -0.273 OA
ATOM      3  N   UNL     1       1.951  -0.078   3.347  0.00  0.00    -0.291 N 
ENDROOT
BRANCH   1  13
ATOM      4  C   UNL     1       0.773   1.194   0.351  0.00  0.00    +0.042 C 
ATOM      5  C   UNL     1       1.022  -0.289   0.241  0.00  0.00    -0.033 C 
ATOM      6  C   UNL     1       1.248  -0.993  -0.890  0.00  0.00    +0.001 A 
ATOM      7  C   UNL     1       1.326  -0.606  -2.304  0.00  0.00    +0.030 A 
ATOM      8  C   UNL     1       1.571  -1.559  -3.233  0.00  0.00    +0.042 A 
ATOM      9  C   UNL     1       1.751  -2.904  -2.880  0.00  0.00    +0.022 A 
ATOM     10  C   UNL     1       1.693  -3.336  -1.602  0.00  0.00    +0.027 A 
ATOM     11  C   UNL     1       1.442  -2.420  -0.544  0.00  0.00    +0.043 A 
ATOM     12  N   UNL     1       1.340  -2.590   0.752  0.00  0.00    -0.370 N 
ATOM     13  C   UNL     1       1.076  -1.288   1.375  0.00  0.00    +0.193 C 
ATOM     14 CL   UNL     1       1.664  -1.104  -4.906  0.00  0.00    -0.084 Cl
ATOM     15  H   UNL     1       1.428  -3.434   1.221  0.00  0.00    +0.161 HD
ENDBRANCH   1  13
BRANCH   3  16
ATOM     16  C   UNL     1       3.057   0.365   4.200  0.00  0.00    +0.143 C 
BRANCH  16  17
ATOM     17  C   UNL     1       3.666   1.617   3.623  0.00  0.00    -0.026 A 
ATOM     18  C   UNL     1       4.703   1.524   2.714  0.00  0.00    +0.009 A 
ATOM     19  C   UNL     1       5.265   2.669   2.182  0.00  0.00    +0.050 A 
ATOM     20  C   UNL     1       4.789   3.914   2.559  0.00  0.00    +0.162 A 
ATOM     21  C   UNL     1       3.745   4.009   3.474  0.00  0.00    +0.162 A 
ATOM     22  C   UNL     1       3.182   2.856   4.000  0.00  0.00    +0.054 A 
BRANCH  21  23
ATOM     23  O   UNL     1       3.274   5.229   3.848  0.00  0.00    -0.491 OA
ATOM     24  C   UNL     1       2.200   5.249   4.791  0.00  0.00    +0.277 C 
ENDBRANCH  21  23
BRANCH  20  25
ATOM     25  O   UNL     1       5.341   5.042   2.037  0.00  0.00    -0.483 OA
BRANCH  25  26
ATOM     26  C   UNL     1       6.323   4.870   1.014  0.00  0.00    +0.201 C 
ATOM     27  C   UNL     1       6.513   6.181   0.203  0.00  0.00    +0.075 C 
ATOM     28  C   UNL     1       7.982   6.027  -0.266  0.00  0.00    +0.163 C 
ATOM     29  O   UNL     1       8.661   5.393   0.830  0.00  0.00    -0.376 OA
ATOM     30  C   UNL     1       7.723   4.652   1.627  0.00  0.00    +0.204 C 
ENDBRANCH  25  26
ENDBRANCH  20  25
ENDBRANCH  16  17
ENDBRANCH   3  16
BRANCH   3  31
ATOM     31  C   UNL     1       0.592   0.406   3.599  0.00  0.00    +0.144 C 
BRANCH  31  32
ATOM     32  C   UNL     1      -0.054  -0.443   4.663  0.00  0.00    -0.012 A 
ATOM     33  C   UNL     1      -0.849  -1.524   4.313  0.00  0.00    +0.008 A 
ATOM     34  C   UNL     1      -1.423  -2.276   5.326  0.00  0.00    +0.020 A 
ATOM     35  C   UNL     1      -1.186  -1.926   6.642  0.00  0.00    +0.111 A 
ATOM     36  N   UNL     1      -0.425  -0.891   6.938  0.00  0.00    -0.263 NA
ATOM     37  C   UNL     1       0.142  -0.157   6.001  0.00  0.00    +0.115 A 
ENDBRANCH  31  32
ENDBRANCH   3  31
TORSDOF 8
