REMARK  Name = ZINC14165515
REMARK  3 active torsions:
REMARK  status: ('A' for Active; 'I' for Inactive)
REMARK    1  A    between atoms: C_8  and  C_13
REMARK    2  A    between atoms: C_13  and  C_14
REMARK    3  A    between atoms: N_16  and  C_17
REMARK                            x       y       z     vdW  Elec       q    Type
REMARK                         _______ _______ _______ _____ _____    ______ ____
ROOT
ATOM      1  C   UNL     1       0.641  -0.428  -2.374  0.00  0.00    +0.129 C 
ENDROOT
BRANCH   1   9
ATOM      2  C   UNL     1       3.592   3.325  -0.022  0.00  0.00    +0.002 A 
ATOM      3  C   UNL     1       2.425   3.999   0.290  0.00  0.00    +0.004 A 
ATOM      4  C   UNL     1       1.216   3.329   0.301  0.00  0.00    +0.048 A 
ATOM      5  C   UNL     1       1.168   1.976   0.000  0.00  0.00    +0.152 A 
ATOM      6  C   UNL     1       2.344   1.298  -0.307  0.00  0.00    +0.071 A 
ATOM      7  C   UNL     1       3.554   1.976  -0.321  0.00  0.00    +0.026 A 
ATOM      8  N   UNL     1       2.315  -0.074  -0.604  0.00  0.00    -0.328 N 
ATOM      9  C   UNL     1       1.007  -0.682  -0.910  0.00  0.00    +0.189 C 
ATOM     10  C   UNL     1      -0.005  -0.013   0.002  0.00  0.00    +0.333 C 
ATOM     11  O   UNL     1      -0.754  -0.662   0.693  0.00  0.00    -0.248 OA
ATOM     12  O   UNL     1      -0.033   1.335   0.009  0.00  0.00    -0.423 OA
ATOM     13  H   UNL     1       3.128  -0.603  -0.608  0.00  0.00    +0.147 HD
ENDBRANCH   1   9
BRANCH   1  14
ATOM     14  C   UNL     1       1.580  -1.197  -3.267  0.00  0.00    +0.220 C 
ATOM     15  O   UNL     1       2.456  -1.881  -2.781  0.00  0.00    -0.275 OA
ATOM     16  N   UNL     1       1.446  -1.125  -4.606  0.00  0.00    -0.285 N 
ATOM     17  H   UNL     1       0.706  -0.633  -4.994  0.00  0.00    +0.155 HD
BRANCH  16  18
ATOM     18  C   UNL     1       2.376  -1.761  -5.438  0.00  0.00    +0.035 A 
ATOM     19  C   UNL     1       2.943  -2.968  -5.052  0.00  0.00    +0.025 A 
ATOM     20  C   UNL     1       3.860  -3.594  -5.873  0.00  0.00    +0.023 A 
ATOM     21  C   UNL     1       4.215  -3.018  -7.080  0.00  0.00    +0.059 A 
ATOM     22  C   UNL     1       3.652  -1.814  -7.468  0.00  0.00    +0.061 A 
ATOM     23  C   UNL     1       2.729  -1.187  -6.652  0.00  0.00    +0.044 A 
ATOM     24 CL   UNL     1       4.100  -1.095  -8.983  0.00  0.00    -0.082 Cl
ATOM     25 CL   UNL     1       5.370  -3.806  -8.110  0.00  0.00    -0.082 Cl
ENDBRANCH  16  18
ENDBRANCH   1  14
TORSDOF 3
