REMARK  Name = ZINC39953341
REMARK  7 active torsions:
REMARK  status: ('A' for Active; 'I' for Inactive)
REMARK    1  A    between atoms: C_1  and  O_2
REMARK    2  A    between atoms: O_2  and  C_3
REMARK    3  A    between atoms: C_6  and  S_9
REMARK    4  A    between atoms: S_9  and  N_12
REMARK    5  A    between atoms: N_12  and  C_13
REMARK    6  A    between atoms: C_19  and  C_23
REMARK    7  A    between atoms: N_25  and  C_26
REMARK                            x       y       z     vdW  Elec       q    Type
REMARK                         _______ _______ _______ _____ _____    ______ ____
ROOT
ATOM      1  C   UNL     1       4.654  -3.645  -3.366  0.00  0.00    +0.224 C 
ATOM      2  N   UNL     1       5.877  -3.302  -2.629  0.00  0.00    -0.318 N 
ATOM      3  C   UNL     1       6.933  -4.202  -2.676  0.00  0.00    +0.043 A 
ATOM      4  C   UNL     1       8.176  -4.037  -2.032  0.00  0.00    +0.025 A 
ATOM      5  C   UNL     1       9.164  -4.980  -2.134  0.00  0.00    +0.015 A 
ATOM      6  C   UNL     1       8.972  -6.144  -2.884  0.00  0.00    +0.038 A 
ATOM      7  C   UNL     1       7.745  -6.330  -3.533  0.00  0.00    +0.029 A 
ATOM      8  C   UNL     1       6.764  -5.377  -3.421  0.00  0.00    +0.033 A 
ATOM      9  S   UNL     1       5.117  -5.270  -4.088  0.00  0.00    -0.084 S 
ATOM     10  H   UNL     1       5.945  -2.475  -2.127  0.00  0.00    +0.148 HD
ENDROOT
BRANCH   6  11
ATOM     11  C   UNL     1      10.040  -7.155  -2.990  0.00  0.00    +0.248 C 
ATOM     12  O   UNL     1       9.859  -8.164  -3.646  0.00  0.00    -0.270 OA
ATOM     13  N   UNL     1      11.216  -6.963  -2.360  0.00  0.00    -0.282 N 
ATOM     14  H   UNL     1      11.387  -6.127  -1.898  0.00  0.00    +0.155 HD
BRANCH  13  15
ATOM     15  C   UNL     1      12.180  -7.958  -2.373  0.00  0.00    +0.034 C 
ATOM     16  C   UNL     1      13.451  -7.691  -2.862  0.00  0.00    +0.029 C 
ATOM     17  C   UNL     1      14.322  -8.786  -2.878  0.00  0.00    -0.016 C 
ATOM     18  C   UNL     1      15.661  -8.893  -2.753  0.00  0.00    +0.025 C 
ATOM     19  C   UNL     1      16.004 -10.245  -2.556  0.00  0.00    +0.106 C 
ATOM     20  N   UNL     1      14.968 -11.034  -2.642  0.00  0.00    -0.279 NA
ATOM     21  C   UNL     1      13.822 -10.215  -3.011  0.00  0.00    +0.158 C 
ATOM     22  C   UNL     1      12.621 -10.365  -2.127  0.00  0.00    +0.006 C 
ATOM     23  C   UNL     1      11.864  -9.296  -1.864  0.00  0.00    +0.021 C 
ENDBRANCH  13  15
ENDBRANCH   6  11
BRANCH   1  24
ATOM     24  N   UNL     1       4.378  -2.661  -4.416  0.00  0.00    -0.160 NA
ATOM     25  H   UNL     1       5.106  -2.155  -4.810  0.00  0.00    +0.151 HD
BRANCH  24  26
ATOM     26  S   UNL     1       2.823  -2.413  -4.930  0.00  0.00    +0.061 S 
ATOM     27  O   UNL     1       2.271  -3.696  -5.188  0.00  0.00    -0.153 OA
ATOM     28  O   UNL     1       2.880  -1.395  -5.919  0.00  0.00    -0.153 OA
BRANCH  26  32
ATOM     29  C   UNL     1       0.517  -0.690  -1.434  0.00  0.00    +0.120 A 
ATOM     30  C   UNL     1       1.165   0.155  -2.323  0.00  0.00    +0.047 A 
ATOM     31  C   UNL     1       1.868  -0.373  -3.388  0.00  0.00    +0.032 A 
ATOM     32  C   UNL     1       1.926  -1.742  -3.569  0.00  0.00    +0.106 A 
ATOM     33  C   UNL     1       1.281  -2.587  -2.685  0.00  0.00    +0.032 A 
ATOM     34  C   UNL     1       0.582  -2.064  -1.614  0.00  0.00    +0.047 A 
BRANCH  29  36
ATOM     35  C   UNL     1      -0.199   1.250  -0.261  0.00  0.00    +0.277 C 
ATOM     36  O   UNL     1      -0.175  -0.174  -0.384  0.00  0.00    -0.495 OA
ENDBRANCH  29  36
ENDBRANCH  26  32
ENDBRANCH  24  26
ENDBRANCH   1  24
TORSDOF 6
