REMARK  Name = ZINC59507439
REMARK  6 active torsions:
REMARK  status: ('A' for Active; 'I' for Inactive)
REMARK    1  A    between atoms: C_14  and  C_15
REMARK    2  A    between atoms: N_16  and  N_17
REMARK    3  A    between atoms: C_18  and  C_20
REMARK    4  A    between atoms: C_20  and  N_21
REMARK    5  A    between atoms: N_21  and  C_22
REMARK    6  A    between atoms: C_26  and  N_28
REMARK                            x       y       z     vdW  Elec       q    Type
REMARK                         _______ _______ _______ _____ _____    ______ ____
ROOT
ATOM      1  N   UNL     1       6.188  -1.766  -0.027  0.00  0.00    -0.206 N 
ATOM      2  C   UNL     1       7.366  -2.393   0.162  0.00  0.00    +0.249 C 
ATOM      3  O   UNL     1       8.391  -1.749   0.234  0.00  0.00    -0.272 OA
ATOM      4  H   UNL     1       5.378  -2.284  -0.157  0.00  0.00    +0.177 HD
ENDROOT
BRANCH   1   6
ATOM      5  C   UNL     1       4.984   0.239  -0.114  0.00  0.00    +0.139 C 
ATOM      6  N   UNL     1       6.133  -0.367  -0.036  0.00  0.00    -0.188 NA
BRANCH   5  20
ATOM      7  C   UNL     1       2.958  -2.986   3.286  0.00  0.00    +0.001 A 
ATOM      8  C   UNL     1       4.142  -2.253   3.207  0.00  0.00    +0.001 A 
ATOM      9  C   UNL     1       4.415  -1.452   2.143  0.00  0.00    +0.009 A 
ATOM     10  C   UNL     1       3.488  -1.355   1.091  0.00  0.00    -0.009 A 
ATOM     11  C   UNL     1       2.245  -2.124   1.170  0.00  0.00    -0.017 A 
ATOM     12  C   UNL     1       2.022  -2.936   2.303  0.00  0.00    +0.008 A 
ATOM     13  C   UNL     1       1.303  -2.049   0.143  0.00  0.00    +0.017 A 
ATOM     14  C   UNL     1       1.545  -1.238  -0.967  0.00  0.00    -0.017 A 
ATOM     15  C   UNL     1       0.607  -1.146  -2.018  0.00  0.00    +0.008 A 
ATOM     16  C   UNL     1       0.872  -0.348  -3.084  0.00  0.00    +0.001 A 
ATOM     17  C   UNL     1       2.053   0.389  -3.171  0.00  0.00    +0.001 A 
ATOM     18  C   UNL     1       2.996   0.343  -2.192  0.00  0.00    +0.009 A 
ATOM     19  C   UNL     1       2.784  -0.464  -1.060  0.00  0.00    -0.009 A 
ATOM     20  C   UNL     1       3.741  -0.533  -0.027  0.00  0.00    +0.010 A 
ENDBRANCH   5  20
ENDBRANCH   1   6
BRANCH   2  21
ATOM     21  C   UNL     1       7.409  -3.895   0.285  0.00  0.00    +0.199 C 
BRANCH  21  22
ATOM     22  N   UNL     1       8.774  -4.319   0.604  0.00  0.00    -0.335 N 
ATOM     23  H   UNL     1       9.478  -3.659   0.702  0.00  0.00    +0.147 HD
BRANCH  22  24
ATOM     24  C   UNL     1       9.063  -5.676   0.768  0.00  0.00    +0.029 A 
ATOM     25  C   UNL     1       8.058  -6.624   0.623  0.00  0.00    +0.023 A 
ATOM     26  C   UNL     1       8.343  -7.966   0.784  0.00  0.00    +0.004 A 
ATOM     27  C   UNL     1       9.628  -8.370   1.091  0.00  0.00    +0.023 A 
ATOM     28  C   UNL     1      10.638  -7.428   1.237  0.00  0.00    +0.038 A 
ATOM     29  C   UNL     1      10.357  -6.079   1.070  0.00  0.00    +0.046 A 
BRANCH  28  30
ATOM     30  N   UNL     1      11.939  -7.838   1.548  0.00  0.00    -0.271 N 
ATOM     31  C   UNL     1      12.373  -9.239   1.614  0.00  0.00    +0.114 C 
ATOM     32  C   UNL     1      13.915  -9.196   1.549  0.00  0.00    +0.029 C 
ATOM     33  C   UNL     1      14.216  -7.785   2.104  0.00  0.00    +0.098 C 
ATOM     34  C   UNL     1      12.954  -7.000   1.819  0.00  0.00    +0.220 C 
ATOM     35  O   UNL     1      12.871  -5.790   1.835  0.00  0.00    -0.275 OA
ENDBRANCH  28  30
ENDBRANCH  22  24
ENDBRANCH  21  22
ENDBRANCH   2  21
TORSDOF 6
