REMARK  Name = ZINC22013691
REMARK  7 active torsions:
REMARK  status: ('A' for Active; 'I' for Inactive)
REMARK    1  A    between atoms: C_2  and  C_3
REMARK    2  A    between atoms: C_3  and  N_4
REMARK    3  A    between atoms: C_5  and  C_7
REMARK    4  A    between atoms: C_7  and  N_8
REMARK    5  A    between atoms: N_11  and  C_14
REMARK    6  A    between atoms: C_14  and  C_15
REMARK    7  A    between atoms: C_23  and  C_25
REMARK                            x       y       z     vdW  Elec       q    Type
REMARK                         _______ _______ _______ _____ _____    ______ ____
ROOT
ATOM      1  C   UNL     1      -6.630  -8.182  -3.748  0.00  0.00    +0.094 A 
ATOM      2  N   UNL     1      -7.760  -8.918  -3.920  0.00  0.00    -0.311 N 
ATOM      3  C   UNL     1      -7.868  -9.727  -5.001  0.00  0.00    +0.266 A 
ATOM      4  O   UNL     1      -8.869 -10.399  -5.184  0.00  0.00    -0.267 OA
ATOM      5  C   UNL     1      -6.802  -9.769  -5.900  0.00  0.00    +0.102 A 
ATOM      6  C   UNL     1      -5.643  -8.997  -5.699  0.00  0.00    +0.086 A 
ATOM      7  N   UNL     1      -5.635  -8.206  -4.574  0.00  0.00    -0.235 NA
ATOM      8  C   UNL     1      -4.649  -9.131  -6.673  0.00  0.00    +0.044 A 
ATOM      9  C   UNL     1      -4.842  -9.971  -7.730  0.00  0.00    +0.022 A 
ATOM     10  S   UNL     1      -6.468 -10.636  -7.410  0.00  0.00    -0.081 S 
ATOM     11  H   UNL     1      -8.482  -8.864  -3.275  0.00  0.00    +0.170 HD
ENDROOT
BRANCH   9  12
ATOM     12  C   UNL     1      -3.932 -10.259  -8.859  0.00  0.00    -0.011 A 
ATOM     13  C   UNL     1      -2.685  -9.636  -8.930  0.00  0.00    +0.010 A 
ATOM     14  C   UNL     1      -1.840  -9.908  -9.986  0.00  0.00    +0.020 A 
ATOM     15  C   UNL     1      -2.227 -10.797 -10.975  0.00  0.00    +0.041 A 
ATOM     16  C   UNL     1      -3.463 -11.418 -10.909  0.00  0.00    +0.020 A 
ATOM     17  C   UNL     1      -4.314 -11.159  -9.855  0.00  0.00    +0.010 A 
ATOM     18 CL   UNL     1      -1.159 -11.134 -12.301  0.00  0.00    -0.084 Cl
ENDBRANCH   9  12
BRANCH   1  19
ATOM     19  C   UNL     1      -6.535  -7.289  -2.537  0.00  0.00    -0.003 C 
BRANCH  19  23
ATOM     20  N   UNL     1      -3.673  -4.201  -2.483  0.00  0.00    -0.298 NA
ATOM     21  C   UNL     1      -3.750  -5.089  -1.314  0.00  0.00    +0.066 C 
ATOM     22  C   UNL     1      -5.101  -5.808  -1.311  0.00  0.00    -0.063 C 
ATOM     23  N   UNL     1      -5.245  -6.585  -2.549  0.00  0.00    +0.386 N 
ATOM     24  C   UNL     1      -5.191  -5.681  -3.706  0.00  0.00    -0.063 C 
ATOM     25  C   UNL     1      -3.841  -4.962  -3.729  0.00  0.00    +0.066 C 
ATOM     26  H   UNL     1      -4.496  -7.258  -2.613  0.00  0.00    -0.081 HD
BRANCH  20  27
ATOM     27  C   UNL     1      -2.411  -3.449  -2.491  0.00  0.00    +0.180 C 
BRANCH  27  29
ATOM     28  N   UNL     1      -1.318  -1.700  -1.126  0.00  0.00    -0.311 N 
ATOM     29  C   UNL     1      -2.386  -2.498  -1.322  0.00  0.00    +0.227 C 
ATOM     30  O   UNL     1      -3.326  -2.451  -0.557  0.00  0.00    -0.274 OA
ATOM     31  H   UNL     1      -0.566  -1.737  -1.737  0.00  0.00    +0.149 HD
BRANCH  28  32
ATOM     32  C   UNL     1      -1.293  -0.775   0.010  0.00  0.00    +0.131 C 
BRANCH  32  34
ATOM     33  C   UNL     1      -0.016   1.306   0.009  0.00  0.00    +0.005 C 
ATOM     34  C   UNL     1       0.002  -0.004   0.002  0.00  0.00    -0.016 C 
ENDBRANCH  32  34
ENDBRANCH  28  32
ENDBRANCH  27  29
ENDBRANCH  20  27
ENDBRANCH  19  23
ENDBRANCH   1  19
TORSDOF 7
