REMARK  Name = ZINC01230184
REMARK  4 active torsions:
REMARK  status: ('A' for Active; 'I' for Inactive)
REMARK    1  A    between atoms: C_4  and  C_7
REMARK    2  A    between atoms: N_9  and  C_10
REMARK    3  A    between atoms: C_10  and  N_12
REMARK    4  A    between atoms: N_12  and  N_13
REMARK                            x       y       z     vdW  Elec       q    Type
REMARK                         _______ _______ _______ _____ _____    ______ ____
ROOT
ATOM      1  N   UNL     1      -0.011   0.966   0.007  0.00  0.00    -0.249 N 
ATOM      2  C   UNL     1      -1.218   1.641   0.017  0.00  0.00    +0.147 A 
ATOM      3  C   UNL     1      -2.444   0.927  -0.088  0.00  0.00    +0.052 A 
ATOM      4  C   UNL     1      -2.657  -0.516  -0.215  0.00  0.00    -0.025 A 
ATOM      5  C   UNL     1      -3.934  -0.940  -0.298  0.00  0.00    -0.004 A 
ATOM      6  S   UNL     1      -4.918   0.532  -0.214  0.00  0.00    -0.073 S 
ATOM      7  C   UNL     1      -3.609   1.720  -0.067  0.00  0.00    +0.114 A 
ATOM      8  N   UNL     1      -3.548   3.033   0.042  0.00  0.00    -0.228 NA
ATOM      9  C   UNL     1      -2.381   3.639   0.135  0.00  0.00    +0.224 A 
ATOM     10  N   UNL     1      -1.248   2.959   0.129  0.00  0.00    -0.219 NA
ATOM     11  C   UNL     1      -4.414  -2.353  -0.433  0.00  0.00    +0.043 C 
ATOM     12  C   UNL     1      -3.223  -3.233  -0.838  0.00  0.00    +0.005 C 
ATOM     13  C   UNL     1      -2.038  -2.905   0.075  0.00  0.00    +0.005 C 
ATOM     14  C   UNL     1      -1.501  -1.511  -0.253  0.00  0.00    +0.037 C 
ATOM     15  H   UNL     1       0.029   0.048  -0.304  0.00  0.00    +0.172 HD
ENDROOT
BRANCH   1  16
ATOM     16  N   UNL     1       1.155   1.609   0.443  0.00  0.00    -0.246 N 
ATOM     17  H   UNL     1       1.115   2.527   0.754  0.00  0.00    +0.172 HD
BRANCH  16  18
ATOM     18  C   UNL     1       2.332   0.953   0.428  0.00  0.00    +0.153 C 
ATOM     19  S   UNL     1       3.757   1.739   0.960  0.00  0.00    -0.017 S 
BRANCH  18  22
ATOM     20  C   UNL     1       3.565  -0.978  -0.019  0.00  0.00    +0.250 C 
ATOM     21  O   UNL     1       4.576  -0.420   0.358  0.00  0.00    -0.270 OA
ATOM     22  N   UNL     1       2.388  -0.322  -0.005  0.00  0.00    -0.263 N 
ATOM     23  H   UNL     1       1.580  -0.767  -0.306  0.00  0.00    +0.157 HD
BRANCH  20  27
ATOM     24  C   UNL     1       3.740  -4.996  -1.384  0.00  0.00    +0.000 A 
ATOM     25  C   UNL     1       4.893  -4.364  -0.955  0.00  0.00    +0.001 A 
ATOM     26  C   UNL     1       4.843  -3.059  -0.510  0.00  0.00    +0.013 A 
ATOM     27  C   UNL     1       3.626  -2.376  -0.494  0.00  0.00    +0.037 A 
ATOM     28  C   UNL     1       2.465  -3.022  -0.923  0.00  0.00    +0.013 A 
ATOM     29  C   UNL     1       2.530  -4.325  -1.371  0.00  0.00    +0.001 A 
ENDBRANCH  20  27
ENDBRANCH  18  22
ENDBRANCH  16  18
ENDBRANCH   1  16
TORSDOF 4
