REMARK  Name = ZINC36162573
REMARK  5 active torsions:
REMARK  status: ('A' for Active; 'I' for Inactive)
REMARK    1  A    between atoms: C_1  and  C_2
REMARK    2  A    between atoms: C_7  and  N_12
REMARK    3  A    between atoms: C_9  and  C_11
REMARK    4  A    between atoms: C_13  and  N_23
REMARK    5  A    between atoms: N_23  and  C_24
REMARK                            x       y       z     vdW  Elec       q    Type
REMARK                         _______ _______ _______ _____ _____    ______ ____
ROOT
ATOM      1  N   UNL     1      -2.498  -3.617   1.655  0.00  0.00    -0.304 N 
ATOM      2  C   UNL     1      -1.237  -3.511   2.397  0.00  0.00    +0.051 C 
ATOM      3  C   UNL     1      -1.603  -3.057   3.788  0.00  0.00    -0.032 A 
ATOM      4  C   UNL     1      -0.864  -2.786   4.917  0.00  0.00    +0.004 A 
ATOM      5  C   UNL     1      -1.498  -2.377   6.077  0.00  0.00    +0.000 A 
ATOM      6  C   UNL     1      -2.875  -2.240   6.107  0.00  0.00    +0.001 A 
ATOM      7  C   UNL     1      -3.626  -2.509   4.981  0.00  0.00    +0.013 A 
ATOM      8  C   UNL     1      -2.993  -2.922   3.807  0.00  0.00    +0.040 A 
ATOM      9  C   UNL     1      -3.510  -3.272   2.470  0.00  0.00    +0.246 C 
ATOM     10  O   UNL     1      -4.683  -3.252   2.151  0.00  0.00    -0.270 OA
ENDROOT
BRANCH   1  16
ATOM     11  C   UNL     1      -5.327  -1.473  -0.768  0.00  0.00    +0.008 C 
ATOM     12  C   UNL     1      -4.672  -2.600   0.033  0.00  0.00    -0.009 C 
ATOM     13  C   UNL     1      -5.541  -3.857  -0.050  0.00  0.00    +0.003 C 
ATOM     14  C   UNL     1      -4.886  -4.984   0.750  0.00  0.00    +0.002 C 
ATOM     15  C   UNL     1      -3.502  -5.283   0.172  0.00  0.00    +0.023 C 
ATOM     16  C   UNL     1      -2.632  -4.027   0.255  0.00  0.00    +0.078 C 
ATOM     17  C   UNL     1      -3.287  -2.899  -0.546  0.00  0.00    +0.009 C 
ATOM     18  C   UNL     1      -2.418  -1.643  -0.463  0.00  0.00    +0.009 C 
ENDBRANCH   1  16
BRANCH   2  19
ATOM     19  N   UNL     1      -0.571  -4.819   2.451  0.00  0.00    +0.396 N 
ATOM     20  H   UNL     1      -1.124  -5.456   3.006  0.00  0.00    -0.082 HD
ATOM     21  H   UNL     1      -0.474  -5.186   1.516  0.00  0.00    -0.082 HD
BRANCH  19  22
ATOM     22  C   UNL     1       0.758  -4.668   3.058  0.00  0.00    -0.069 C 
ATOM     23  C   UNL     1       1.625  -3.772   2.171  0.00  0.00    -0.016 C 
ATOM     24  C   UNL     1       1.922  -2.463   2.904  0.00  0.00    -0.002 C 
ATOM     25  C   UNL     1       3.433  -2.223   2.927  0.00  0.00    -0.000 C 
ATOM     26  C   UNL     1       3.890  -1.984   4.368  0.00  0.00    -0.000 C 
ATOM     27  C   UNL     1       5.033  -2.943   4.706  0.00  0.00    -0.000 C 
ATOM     28  C   UNL     1       4.693  -3.710   5.986  0.00  0.00    -0.000 C 
ATOM     29  C   UNL     1       4.824  -5.213   5.729  0.00  0.00    -0.000 C 
ATOM     30  C   UNL     1       3.528  -5.915   6.140  0.00  0.00    -0.000 C 
ATOM     31  C   UNL     1       3.016  -6.763   4.973  0.00  0.00    -0.000 C 
ATOM     32  C   UNL     1       1.561  -6.394   4.676  0.00  0.00    -0.002 C 
ATOM     33  C   UNL     1       1.416  -6.042   3.194  0.00  0.00    -0.016 C 
ENDBRANCH  19  22
ENDBRANCH   2  19
TORSDOF 3
