REMARK  Name = ZINC45560153
REMARK  9 active torsions:
REMARK  status: ('A' for Active; 'I' for Inactive)
REMARK    1  A    between atoms: C_1  and  C_2
REMARK    2  A    between atoms: C_2  and  C_4
REMARK    3  A    between atoms: C_2  and  N_15
REMARK    4  A    between atoms: C_7  and  N_10
REMARK    5  A    between atoms: N_15  and  C_16
REMARK    6  A    between atoms: N_15  and  C_17
REMARK    7  A    between atoms: C_17  and  C_18
REMARK    8  A    between atoms: C_21  and  C_35
REMARK    9  A    between atoms: C_24  and  C_26
REMARK                            x       y       z     vdW  Elec       q    Type
REMARK                         _______ _______ _______ _____ _____    ______ ____
ROOT
ATOM      1  C   UNL     1       2.782  -0.379   2.461  0.00  0.00    +0.219 C 
ATOM      2  O   UNL     1       2.185  -1.022   3.299  0.00  0.00    -0.276 OA
ATOM      3  N   UNL     1       4.063  -0.019   2.674  0.00  0.00    -0.184 N 
ATOM      4  C   UNL     1       4.856  -0.343   3.870  0.00  0.00    +0.173 C 
ATOM      5  C   UNL     1       6.225   0.304   3.586  0.00  0.00    +0.093 C 
ATOM      6  C   UNL     1       6.052   0.940   2.225  0.00  0.00    +0.104 C 
ATOM      7  N   UNL     1       4.856   0.716   1.794  0.00  0.00    -0.178 NA
ENDROOT
BRANCH   6   8
ATOM      8  C   UNL     1       7.085   1.690   1.503  0.00  0.00    +0.152 A 
ATOM      9  C   UNL     1       6.925   2.265   0.281  0.00  0.00    +0.059 A 
ATOM     10  C   UNL     1       8.205   2.897  -0.040  0.00  0.00    +0.021 A 
ATOM     11  C   UNL     1       8.681   3.633  -1.127  0.00  0.00    +0.011 A 
ATOM     12  C   UNL     1       9.967   4.096  -1.120  0.00  0.00    +0.001 A 
ATOM     13  C   UNL     1      10.801   3.839  -0.041  0.00  0.00    +0.004 A 
ATOM     14  C   UNL     1      10.349   3.113   1.042  0.00  0.00    +0.047 A 
ATOM     15  C   UNL     1       9.046   2.634   1.057  0.00  0.00    +0.136 A 
ATOM     16  O   UNL     1       8.336   1.918   1.953  0.00  0.00    -0.454 OA
ENDBRANCH   6   8
BRANCH   4  17
ATOM     17  C   UNL     1       4.227   0.257   5.101  0.00  0.00    +0.128 A 
ATOM     18  C   UNL     1       4.162  -0.322   6.314  0.00  0.00    +0.046 A 
ATOM     19  C   UNL     1       3.494   0.587   7.166  0.00  0.00    +0.041 A 
ATOM     20  C   UNL     1       3.191   1.667   6.424  0.00  0.00    +0.195 A 
ATOM     21  O   UNL     1       3.642   1.464   5.175  0.00  0.00    -0.466 OA
ENDBRANCH   4  17
BRANCH   1  22
ATOM     22  C   UNL     1       2.091   0.018   1.182  0.00  0.00    +0.021 C 
BRANCH  22  23
ATOM     23  N   UNL     1       0.713  -0.491   1.192  0.00  0.00    +0.388 N 
ATOM     24  C   UNL     1       0.733  -1.960   1.184  0.00  0.00    -0.095 C 
ATOM     25  H   UNL     1       0.240  -0.165   2.022  0.00  0.00    -0.081 HD
BRANCH  23  27
ATOM     26  C   UNL     1      -0.019   1.526   0.010  0.00  0.00    -0.008 C 
ATOM     27  C   UNL     1       0.002  -0.004   0.002  0.00  0.00    -0.041 C 
BRANCH  27  28
ATOM     28  C   UNL     1      -1.412  -0.526   0.013  0.00  0.00    -0.061 A 
ATOM     29  C   UNL     1      -2.122  -0.570   1.198  0.00  0.00    +0.004 A 
ATOM     30  C   UNL     1      -3.418  -1.047   1.211  0.00  0.00    +0.028 A 
ATOM     31  C   UNL     1      -4.008  -1.482   0.032  0.00  0.00    +0.067 A 
ATOM     32  C   UNL     1      -3.292  -1.437  -1.157  0.00  0.00    +0.028 A 
ATOM     33  C   UNL     1      -1.998  -0.953  -1.164  0.00  0.00    +0.004 A 
BRANCH  31  34
ATOM     34  N   UNL     1      -5.323  -1.968   0.042  0.00  0.00    -0.220 N 
ATOM     35  C   UNL     1      -6.023  -2.427  -1.014  0.00  0.00    +0.225 A 
ATOM     36  N   UNL     1      -7.207  -2.785  -0.590  0.00  0.00    -0.222 NA
ATOM     37  C   UNL     1      -7.302  -2.572   0.723  0.00  0.00    +0.245 A 
ATOM     38  N   UNL     1      -6.172  -2.078   1.156  0.00  0.00    -0.154 NA
ENDBRANCH  31  34
ENDBRANCH  27  28
ENDBRANCH  23  27
ENDBRANCH  22  23
ENDBRANCH   1  22
TORSDOF 7
