REMARK  Name = ZINC10475049
REMARK  10 active torsions:
REMARK  status: ('A' for Active; 'I' for Inactive)
REMARK    1  A    between atoms: C_1  and  N_2
REMARK    2  A    between atoms: C_3  and  S_7
REMARK    3  A    between atoms: S_7  and  C_8
REMARK    4  A    between atoms: C_8  and  C_9
REMARK    5  A    between atoms: C_9  and  N_45
REMARK    6  A    between atoms: C_10  and  C_11
REMARK    7  A    between atoms: C_10  and  N_45
REMARK    8  A    between atoms: C_14  and  O_18
REMARK    9  A    between atoms: O_18  and  C_19
REMARK   10  A    between atoms: C_19  and  C_20
REMARK                            x       y       z     vdW  Elec       q    Type
REMARK                         _______ _______ _______ _____ _____    ______ ____
ROOT
ATOM      1  C   UNL     1      -1.441   5.785   2.449  0.00  0.00    -0.062 A 
ATOM      2  C   UNL     1      -0.401   6.486   3.031  0.00  0.00    +0.020 A 
ATOM      3  C   UNL     1      -0.396   7.868   3.004  0.00  0.00    +0.061 A 
ATOM      4  C   UNL     1      -1.442   8.553   2.401  0.00  0.00    +0.149 A 
ATOM      5  C   UNL     1      -2.487   7.847   1.822  0.00  0.00    +0.061 A 
ATOM      6  C   UNL     1      -2.484   6.464   1.848  0.00  0.00    +0.020 A 
ATOM      7 BR   UNL     1      -3.915   8.774   0.999  0.00  0.00    -0.046 Br
ATOM      8 BR   UNL     1       1.031   8.826   3.793  0.00  0.00    -0.046 Br
ENDROOT
BRANCH   1   9
ATOM      9  C   UNL     1      -1.440   4.279   2.476  0.00  0.00    -0.047 C 
BRANCH   9  10
ATOM     10  N   UNL     1      -0.754   3.774   1.271  0.00  0.00    +0.382 N 
ATOM     11  H   UNL     1      -1.248   4.108   0.435  0.00  0.00    -0.085 HD
ATOM     12  H   UNL     1       0.211   4.123   1.260  0.00  0.00    -0.085 HD
BRANCH  10  13
ATOM     13  C   UNL     1      -0.739   2.299   1.271  0.00  0.00    -0.071 C 
BRANCH  13  14
ATOM     14  C   UNL     1      -0.022   1.806   0.012  0.00  0.00    +0.058 C 
BRANCH  14  15
ATOM     15  S   UNL     1       0.002  -0.004   0.002  0.00  0.00    -0.086 S 
BRANCH  15  18
ATOM     16  C   UNL     1       0.884  -2.817  -1.481  0.00  0.00    +0.177 C 
ATOM     17  N   UNL     1       1.177  -1.495  -2.040  0.00  0.00    -0.223 N 
ATOM     18  C   UNL     1       0.859  -0.290  -1.510  0.00  0.00    +0.209 A 
ATOM     19  N   UNL     1       1.316   0.627  -2.336  0.00  0.00    -0.102 NA
ATOM     20  N   UNL     1       1.891   0.078  -3.344  0.00  0.00    -0.022 NA
ATOM     21  N   UNL     1       1.846  -1.206  -3.242  0.00  0.00    -0.043 NA
ENDBRANCH  15  18
ENDBRANCH  14  15
ENDBRANCH  13  14
ENDBRANCH  10  13
ENDBRANCH   9  10
ENDBRANCH   1   9
BRANCH   4  22
ATOM     22  O   UNL     1      -1.443   9.912   2.377  0.00  0.00    -0.485 OA
BRANCH  22  23
ATOM     23  C   UNL     1      -2.070  10.580   3.473  0.00  0.00    +0.264 C 
BRANCH  23  24
ATOM     24  C   UNL     1      -1.973  12.070   3.275  0.00  0.00    -0.010 A 
ATOM     25  C   UNL     1      -0.890  12.766   3.778  0.00  0.00    +0.007 A 
ATOM     26  C   UNL     1      -0.799  14.133   3.592  0.00  0.00    +0.000 A 
ATOM     27  C   UNL     1      -1.796  14.806   2.912  0.00  0.00    +0.000 A 
ATOM     28  C   UNL     1      -2.883  14.111   2.413  0.00  0.00    +0.000 A 
ATOM     29  C   UNL     1      -2.971  12.743   2.595  0.00  0.00    +0.007 A 
ENDBRANCH  23  24
ENDBRANCH  22  23
ENDBRANCH   4  22
TORSDOF 9
