REMARK  Name = ZINC47719629
REMARK  8 active torsions:
REMARK  status: ('A' for Active; 'I' for Inactive)
REMARK    1  A    between atoms: C_1  and  C_2
REMARK    2  A    between atoms: C_2  and  C_3
REMARK    3  A    between atoms: C_3  and  C_4
REMARK    4  A    between atoms: N_6  and  C_7
REMARK    5  A    between atoms: C_10  and  C_13
REMARK    6  A    between atoms: C_13  and  N_14
REMARK    7  A    between atoms: N_14  and  C_15
REMARK    8  A    between atoms: C_15  and  C_16
REMARK                            x       y       z     vdW  Elec       q    Type
REMARK                         _______ _______ _______ _____ _____    ______ ____
ROOT
ATOM      1  C   UNL     1      -2.268  -8.386   0.345  0.00  0.00    -0.046 C 
ENDROOT
BRANCH   1   5
ATOM      2  C   UNL     1      -2.496  -4.125   0.094  0.00  0.00    +0.033 A 
ATOM      3  C   UNL     1      -1.260  -4.752   0.180  0.00  0.00    +0.023 A 
ATOM      4  C   UNL     1      -1.190  -6.129   0.261  0.00  0.00    +0.003 A 
ATOM      5  C   UNL     1      -2.349  -6.883   0.256  0.00  0.00    -0.064 A 
ATOM      6  C   UNL     1      -3.581  -6.262   0.170  0.00  0.00    +0.003 A 
ATOM      7  C   UNL     1      -3.658  -4.885   0.095  0.00  0.00    +0.023 A 
BRANCH   2  10
ATOM      8  C   UNL     1      -3.584  -2.073   0.610  0.00  0.00    +0.217 C 
ATOM      9  O   UNL     1      -4.476  -2.695   1.148  0.00  0.00    -0.275 OA
ATOM     10  N   UNL     1      -2.571  -2.730   0.012  0.00  0.00    -0.285 N 
ATOM     11  H   UNL     1      -1.893  -2.236  -0.476  0.00  0.00    +0.155 HD
BRANCH   8  12
ATOM     12  C   UNL     1      -3.609  -0.566   0.611  0.00  0.00    +0.096 C 
BRANCH  12  14
ATOM     13  C   UNL     1      -4.881   1.453   1.351  0.00  0.00    +0.004 C 
ATOM     14  C   UNL     1      -4.856  -0.077   1.350  0.00  0.00    +0.006 C 
ENDBRANCH  12  14
ENDBRANCH   8  12
ENDBRANCH   2  10
ENDBRANCH   1   5
BRANCH   1  15
ATOM     15  N   UNL     1      -2.299  -8.795   1.755  0.00  0.00    +0.384 N 
ATOM     16  H   UNL     1      -1.514  -8.387   2.241  0.00  0.00    -0.085 HD
ATOM     17  H   UNL     1      -3.158  -8.479   2.179  0.00  0.00    -0.085 HD
BRANCH  15  18
ATOM     18  C   UNL     1      -2.221 -10.260   1.841  0.00  0.00    -0.046 C 
BRANCH  18  19
ATOM     19  C   UNL     1      -2.252 -10.680   3.288  0.00  0.00    -0.060 A 
ATOM     20  C   UNL     1      -1.071 -10.801   3.997  0.00  0.00    +0.051 A 
ATOM     21  C   UNL     1      -1.097 -11.187   5.327  0.00  0.00    +0.168 A 
ATOM     22  C   UNL     1      -2.315 -11.454   5.948  0.00  0.00    +0.180 A 
ATOM     23  C   UNL     1      -3.495 -11.331   5.231  0.00  0.00    +0.063 A 
ATOM     24  C   UNL     1      -3.462 -10.939   3.905  0.00  0.00    +0.021 A 
ATOM     25 BR   UNL     1      -5.151 -11.692   6.069  0.00  0.00    -0.046 Br
ATOM     26  O   UNL     1      -2.076 -11.811   7.243  0.00  0.00    -0.451 OA
ATOM     27  C   UNL     1      -0.679 -12.155   7.295  0.00  0.00    +0.466 C 
ATOM     28  O   UNL     1      -0.095 -11.377   6.234  0.00  0.00    -0.453 OA
ENDBRANCH  18  19
ENDBRANCH  15  18
ENDBRANCH   1  15
TORSDOF 7
