REMARK  Name = ZINC38799164
REMARK  4 active torsions:
REMARK  status: ('A' for Active; 'I' for Inactive)
REMARK    1  A    between atoms: C_1  and  C_2
REMARK    2  A    between atoms: C_4  and  C_17
REMARK    3  A    between atoms: C_25  and  C_27
REMARK    4  A    between atoms: N_31  and  C_32
REMARK                            x       y       z     vdW  Elec       q    Type
REMARK                         _______ _______ _______ _____ _____    ______ ____
ROOT
ATOM      1  C   UNL     1       2.093   0.935  -0.698  0.00  0.00    +0.035 C 
ATOM      2  C   UNL     1       0.632   1.309  -0.439  0.00  0.00    +0.129 C 
ATOM      3  C   UNL     1      -0.285   0.524  -1.353  0.00  0.00    +0.051 C 
ATOM      4  H   UNL     1      -1.277  -0.462   1.483  0.00  0.00    +0.170 HD
ATOM      5  C   UNL     1      -1.085  -0.217  -0.563  0.00  0.00    +0.098 C 
ATOM      6  N   UNL     1      -0.812  -0.021   0.754  0.00  0.00    -0.269 N 
ATOM      7  N   UNL     1       0.230   0.904   0.919  0.00  0.00    -0.228 N 
ATOM      8  C   UNL     1       0.776   1.349   2.122  0.00  0.00    +0.158 A 
ATOM      9  C   UNL     1       0.277   0.854   3.343  0.00  0.00    +0.052 A 
ATOM     10  C   UNL     1       0.810   1.288   4.515  0.00  0.00    +0.075 A 
ATOM     11  C   UNL     1       1.858   2.231   4.489  0.00  0.00    +0.265 A 
ATOM     12  O   UNL     1       2.350   2.632   5.533  0.00  0.00    -0.266 OA
ATOM     13  N   UNL     1       2.314   2.686   3.305  0.00  0.00    -0.241 N 
ATOM     14  H   UNL     1       3.035   3.334   3.282  0.00  0.00    +0.192 HD
ATOM     15  N   UNL     1       1.755   2.221   2.109  0.00  0.00    -0.154 NA
ENDROOT
BRANCH   3  16
ATOM     16  C   UNL     1      -0.300   0.563  -2.766  0.00  0.00    +0.246 C 
ATOM     17  O   UNL     1       0.509  -0.089  -3.402  0.00  0.00    -0.270 OA
ATOM     18  N   UNL     1      -1.209   1.322  -3.410  0.00  0.00    -0.289 N 
ATOM     19  C   UNL     1      -2.102   2.185  -2.613  0.00  0.00    +0.109 C 
ATOM     20  C   UNL     1      -3.552   2.153  -3.129  0.00  0.00    +0.019 C 
ATOM     21  C   UNL     1      -3.933   0.745  -3.517  0.00  0.00    +0.002 C 
ATOM     22  C   UNL     1      -3.634   0.529  -4.997  0.00  0.00    +0.002 C 
ATOM     23  C   UNL     1      -2.246   0.135  -5.283  0.00  0.00    +0.029 C 
ATOM     24  C   UNL     1      -1.265   1.261  -4.854  0.00  0.00    +0.123 C 
BRANCH  24  25
ATOM     25  C   UNL     1       0.111   0.970  -5.397  0.00  0.00    +0.039 A 
ATOM     26  C   UNL     1       1.125   1.853  -5.494  0.00  0.00    +0.024 A 
ATOM     27  C   UNL     1       2.225   1.173  -6.053  0.00  0.00    +0.019 A 
ATOM     28  C   UNL     1       1.840  -0.101  -6.277  0.00  0.00    +0.085 A 
ATOM     29  N   UNL     1       0.545  -0.232  -5.870  0.00  0.00    -0.352 N 
ATOM     30  C   UNL     1      -0.249  -1.462  -5.936  0.00  0.00    +0.148 C 
ENDBRANCH  24  25
ENDBRANCH   3  16
TORSDOF 2
