REMARK  Name = ZINC28048979
REMARK  9 active torsions:
REMARK  status: ('A' for Active; 'I' for Inactive)
REMARK    1  A    between atoms: C_1  and  C_2
REMARK    2  A    between atoms: C_2  and  N_3
REMARK    3  A    between atoms: C_12  and  O_13
REMARK    4  A    between atoms: C_14  and  N_15
REMARK    5  A    between atoms: N_15  and  S_16
REMARK    6  A    between atoms: S_16  and  C_19
REMARK    7  A    between atoms: C_22  and  O_25
REMARK    8  A    between atoms: O_25  and  C_26
REMARK    9  A    between atoms: C_26  and  C_27
REMARK                            x       y       z     vdW  Elec       q    Type
REMARK                         _______ _______ _______ _____ _____    ______ ____
ROOT
ATOM      1  N   UNL     1       0.479  -0.522  -1.101  0.00  0.00    -0.382 N 
ATOM      2  C   UNL     1       0.708  -1.887  -1.119  0.00  0.00    +0.076 A 
ATOM      3  C   UNL     1       0.200  -2.727  -2.216  0.00  0.00    +0.042 A 
ATOM      4  C   UNL     1      -0.529  -2.171  -3.269  0.00  0.00    +0.013 A 
ATOM      5  C   UNL     1      -0.992  -2.984  -4.280  0.00  0.00    +0.001 A 
ATOM      6  C   UNL     1      -0.736  -4.347  -4.255  0.00  0.00    +0.004 A 
ATOM      7  C   UNL     1      -0.016  -4.908  -3.221  0.00  0.00    +0.047 A 
ATOM      8  C   UNL     1       0.458  -4.107  -2.190  0.00  0.00    +0.141 A 
ATOM      9  O   UNL     1       1.163  -4.644  -1.171  0.00  0.00    -0.424 OA
ATOM     10  C   UNL     1       1.635  -3.894  -0.162  0.00  0.00    +0.310 A 
ATOM     11  C   UNL     1       1.426  -2.504  -0.112  0.00  0.00    +0.152 A 
ATOM     12  H   UNL     1       1.122   0.151  -1.685  0.00  0.00    +0.160 HD
ENDROOT
BRANCH   1  14
ATOM     13  C   UNL     1      -0.858   1.325  -0.208  0.00  0.00    +0.026 C 
ATOM     14  C   UNL     1      -0.666  -0.193  -0.241  0.00  0.00    +0.109 C 
ENDBRANCH   1  14
BRANCH  10  15
ATOM     15  O   UNL     1       2.265  -4.432   0.732  0.00  0.00    -0.479 OA
ATOM     16  H   UNL     1       2.658  -3.832   1.566  0.00  0.00    +0.295 HD
ENDBRANCH  10  15
BRANCH  11  17
ATOM     17  N   UNL     1       1.940  -1.748   0.958  0.00  0.00    -0.208 N 
ATOM     18  H   UNL     1       1.259  -1.167   1.598  0.00  0.00    +0.174 HD
BRANCH  17  19
ATOM     19  S   UNL     1       3.569  -1.734   1.254  0.00  0.00    +0.073 S 
ATOM     20  O   UNL     1       3.781  -0.808   2.311  0.00  0.00    -0.150 OA
ATOM     21  O   UNL     1       3.979  -3.092   1.336  0.00  0.00    -0.150 OA
BRANCH  19  22
ATOM     22  C   UNL     1       4.351  -1.057  -0.173  0.00  0.00    +0.109 A 
ATOM     23  C   UNL     1       4.675  -1.878  -1.237  0.00  0.00    +0.032 A 
ATOM     24  C   UNL     1       5.283  -1.349  -2.359  0.00  0.00    +0.047 A 
ATOM     25  C   UNL     1       5.580   0.005  -2.412  0.00  0.00    +0.121 A 
ATOM     26  C   UNL     1       5.260   0.826  -1.340  0.00  0.00    +0.047 A 
ATOM     27  C   UNL     1       4.646   0.293  -0.223  0.00  0.00    +0.032 A 
BRANCH  25  28
ATOM     28  O   UNL     1       6.183   0.527  -3.513  0.00  0.00    -0.492 OA
BRANCH  28  29
ATOM     29  C   UNL     1       6.483  -0.377  -4.578  0.00  0.00    +0.225 C 
ATOM     30  C   UNL     1       7.154   0.388  -5.721  0.00  0.00    +0.048 C 
ENDBRANCH  28  29
ENDBRANCH  25  28
ENDBRANCH  19  22
ENDBRANCH  17  19
ENDBRANCH  11  17
TORSDOF 7
