REMARK  Name = ZINC59794298
REMARK  11 active torsions:
REMARK  status: ('A' for Active; 'I' for Inactive)
REMARK    1  A    between atoms: C_1  and  C_2
REMARK    2  A    between atoms: C_2  and  O_3
REMARK    3  A    between atoms: O_3  and  C_4
REMARK    4  A    between atoms: C_4  and  C_6
REMARK    5  A    between atoms: C_10  and  N_11
REMARK    6  A    between atoms: C_12  and  C_14
REMARK    7  A    between atoms: C_14  and  C_15
REMARK    8  A    between atoms: C_15  and  S_16
REMARK    9  A    between atoms: S_16  and  C_17
REMARK   10  A    between atoms: C_20  and  C_23
REMARK   11  A    between atoms: N_21  and  N_22
REMARK                            x       y       z     vdW  Elec       q    Type
REMARK                         _______ _______ _______ _____ _____    ______ ____
ROOT
ATOM      1  C   UNL     1      -2.590  -2.597  -5.387  0.00  0.00    +0.107 C 
ENDROOT
BRANCH   1   3
ATOM      2  N   UNL     1      -0.603  -2.454  -3.921  0.00  0.00    -0.279 N 
ATOM      3  C   UNL     1      -1.118  -2.781  -5.122  0.00  0.00    +0.218 C 
ATOM      4  O   UNL     1      -0.397  -3.224  -5.991  0.00  0.00    -0.275 OA
ATOM      5  H   UNL     1      -1.180  -2.100  -3.226  0.00  0.00    +0.155 HD
BRANCH   2  10
ATOM      6  C   UNL     1       1.449  -2.344  -2.516  0.00  0.00    +0.091 A 
ATOM      7  C   UNL     1       2.885  -2.621  -2.515  0.00  0.00    -0.021 A 
ATOM      8  C   UNL     1       3.349  -3.116  -3.676  0.00  0.00    -0.004 A 
ATOM      9  S   UNL     1       1.922  -3.210  -4.726  0.00  0.00    -0.077 S 
ATOM     10  C   UNL     1       0.751  -2.623  -3.678  0.00  0.00    +0.086 A 
ATOM     11  C   UNL     1       4.830  -3.378  -3.621  0.00  0.00    +0.043 C 
ATOM     12  C   UNL     1       5.324  -2.577  -2.396  0.00  0.00    +0.010 C 
ATOM     13  C   UNL     1       4.048  -2.505  -1.532  0.00  0.00    +0.037 C 
BRANCH   6  14
ATOM     14  C   UNL     1       0.776  -1.800  -1.335  0.00  0.00    +0.342 C 
ATOM     15  O   UNL     1       0.312  -2.552  -0.499  0.00  0.00    -0.245 OA
BRANCH  14  16
ATOM     16  O   UNL     1       0.671  -0.465  -1.174  0.00  0.00    -0.461 OA
BRANCH  16  18
ATOM     17  C   UNL     1      -0.019   1.526   0.010  0.00  0.00    +0.048 C 
ATOM     18  C   UNL     1       0.002  -0.004   0.002  0.00  0.00    +0.229 C 
ENDBRANCH  16  18
ENDBRANCH  14  16
ENDBRANCH   6  14
ENDBRANCH   2  10
ENDBRANCH   1   3
BRANCH   1  19
ATOM     19  C   UNL     1      -2.912  -3.041  -6.815  0.00  0.00    +0.086 C 
BRANCH  19  20
ATOM     20  S   UNL     1      -4.684  -2.820  -7.133  0.00  0.00    -0.084 S 
BRANCH  20  21
ATOM     21  C   UNL     1      -4.890  -3.368  -8.795  0.00  0.00    +0.209 A 
ATOM     22  N   UNL     1      -3.948  -3.830  -9.586  0.00  0.00    -0.121 NA
ATOM     23  N   UNL     1      -4.445  -4.139 -10.730  0.00  0.00    -0.127 NA
ATOM     24  C   UNL     1      -5.735  -3.892 -10.740  0.00  0.00    +0.182 A 
ATOM     25  N   UNL     1      -6.060  -3.396  -9.499  0.00  0.00    -0.224 N 
BRANCH  24  26
ATOM     26  C   UNL     1      -6.663  -4.112 -11.870  0.00  0.00    +0.022 A 
ATOM     27  C   UNL     1      -7.927  -3.520 -11.863  0.00  0.00    +0.012 A 
ATOM     28  C   UNL     1      -8.789  -3.728 -12.920  0.00  0.00    +0.002 A 
ATOM     29  C   UNL     1      -8.403  -4.522 -13.986  0.00  0.00    +0.020 A 
ATOM     30  C   UNL     1      -7.150  -5.112 -13.999  0.00  0.00    +0.042 A 
ATOM     31  C   UNL     1      -6.276  -4.906 -12.950  0.00  0.00    +0.031 A 
ATOM     32 CL   UNL     1      -6.675  -6.106 -15.341  0.00  0.00    -0.084 Cl
ENDBRANCH  24  26
BRANCH  25  33
ATOM     33  N   UNL     1      -7.296  -3.010  -9.062  0.00  0.00    -0.295 N 
ATOM     34  H   UNL     1      -7.458  -2.033  -9.256  0.00  0.00    +0.163 HD
ATOM     35  H   UNL     1      -8.019  -3.584  -9.469  0.00  0.00    +0.163 HD
ENDBRANCH  25  33
ENDBRANCH  20  21
ENDBRANCH  19  20
ENDBRANCH   1  19
TORSDOF 10
