REMARK  Name = ZINC21011206
REMARK  6 active torsions:
REMARK  status: ('A' for Active; 'I' for Inactive)
REMARK    1  A    between atoms: C_1  and  C_2
REMARK    2  A    between atoms: C_7  and  N_12
REMARK    3  A    between atoms: C_9  and  C_11
REMARK    4  A    between atoms: N_12  and  S_13
REMARK    5  A    between atoms: S_13  and  C_16
REMARK    6  A    between atoms: C_20  and  N_22
REMARK                            x       y       z     vdW  Elec       q    Type
REMARK                         _______ _______ _______ _____ _____    ______ ____
ROOT
ATOM      1  S   UNL     1      -2.731   0.849   0.020  0.00  0.00    +0.059 S 
ATOM      2  O   UNL     1      -3.720   1.714  -0.522  0.00  0.00    -0.153 OA
ATOM      3  O   UNL     1      -2.445  -0.426  -0.539  0.00  0.00    -0.153 OA
ENDROOT
BRANCH   1   4
ATOM      4  C   UNL     1      -1.218   1.751   0.017  0.00  0.00    +0.107 A 
ATOM      5  C   UNL     1      -1.238   3.134   0.030  0.00  0.00    +0.030 A 
ATOM      6  C   UNL     1      -0.053   3.846   0.022  0.00  0.00    +0.024 A 
ATOM      7  C   UNL     1       1.157   3.177   0.008  0.00  0.00    +0.062 A 
ATOM      8  C   UNL     1       1.180   1.787   0.000  0.00  0.00    +0.045 A 
ATOM      9  C   UNL     1      -0.013   1.076   0.008  0.00  0.00    +0.052 A 
ATOM     10 CL   UNL     1       2.645   4.071  -0.001  0.00  0.00    -0.082 Cl
BRANCH   8  11
ATOM     11  N   UNL     1       2.401   1.107  -0.015  0.00  0.00    -0.357 N 
ATOM     12  H   UNL     1       2.418   0.007  -0.021  0.00  0.00    +0.142 HD
ATOM     13  H   UNL     1       3.345   1.672  -0.021  0.00  0.00    +0.142 HD
ENDBRANCH   8  11
ENDBRANCH   1   4
BRANCH   1  14
ATOM     14  N   UNL     1      -3.144   0.589   1.602  0.00  0.00    -0.187 NA
ATOM     15  H   UNL     1      -3.009  -0.412   2.036  0.00  0.00    +0.148 HD
BRANCH  14  21
ATOM     16  C   UNL     1      -2.832   2.345   6.213  0.00  0.00    +0.008 C 
ATOM     17  C   UNL     1      -3.326   2.627   4.793  0.00  0.00    -0.010 C 
ATOM     18  C   UNL     1      -4.843   2.830   4.811  0.00  0.00    +0.003 C 
ATOM     19  C   UNL     1      -5.337   3.111   3.391  0.00  0.00    +0.002 C 
ATOM     20  C   UNL     1      -4.991   1.927   2.486  0.00  0.00    +0.020 C 
ATOM     21  C   UNL     1      -3.475   1.724   2.468  0.00  0.00    +0.080 C 
ATOM     22  C   UNL     1      -2.981   1.442   3.889  0.00  0.00    +0.007 C 
ATOM     23  C   UNL     1      -3.658   0.178   4.423  0.00  0.00    +0.009 C 
ENDBRANCH  14  21
ENDBRANCH   1  14
TORSDOF 4
