REMARK  Name = ZINC63566894
REMARK  3 active torsions:
REMARK  status: ('A' for Active; 'I' for Inactive)
REMARK    1  A    between atoms: C_4  and  N_6
REMARK    2  A    between atoms: C_10  and  C_12
REMARK    3  A    between atoms: C_12  and  N_13
REMARK                            x       y       z     vdW  Elec       q    Type
REMARK                         _______ _______ _______ _____ _____    ______ ____
ROOT
ATOM      1  N   UNL     1       1.692  -1.613   0.817  0.00  0.00    -0.296 N 
ATOM      2  C   UNL     1       1.587  -2.842   0.273  0.00  0.00    +0.306 C 
ATOM      3  O   UNL     1       1.322  -2.964  -0.907  0.00  0.00    -0.252 OA
ATOM      4  N   UNL     1       1.776  -3.936   1.038  0.00  0.00    -0.239 N 
ATOM      5  C   UNL     1       1.671  -5.165   0.494  0.00  0.00    +0.234 C 
ATOM      6  O   UNL     1       1.407  -5.286  -0.683  0.00  0.00    -0.274 OA
ATOM      7  H   UNL     1       1.903  -1.516   1.758  0.00  0.00    +0.151 HD
ATOM      8  H   UNL     1       1.987  -3.839   1.979  0.00  0.00    +0.159 HD
ENDROOT
BRANCH   1  12
ATOM      9  C   UNL     1      -0.019   1.534   0.011  0.00  0.00    +0.002 C 
ATOM     10  C   UNL     1       1.453   1.995  -0.001  0.00  0.00    +0.002 C 
ATOM     11  C   UNL     1       2.232   0.792   0.586  0.00  0.00    +0.022 C 
ATOM     12  C   UNL     1       1.486  -0.425  -0.014  0.00  0.00    +0.074 C 
ATOM     13  C   UNL     1       0.002  -0.004   0.002  0.00  0.00    +0.022 C 
ENDBRANCH   1  12
BRANCH   5  14
ATOM     14  C   UNL     1       1.883  -6.387   1.349  0.00  0.00    +0.181 C 
BRANCH  14  15
ATOM     15  N   UNL     1       1.715  -7.594   0.527  0.00  0.00    -0.286 NA
ATOM     16  C   UNL     1       0.322  -7.735   0.077  0.00  0.00    +0.113 C 
ATOM     17  C   UNL     1       0.197  -8.975  -0.813  0.00  0.00    +0.175 C 
ATOM     18  O   UNL     1       0.659 -10.125  -0.098  0.00  0.00    -0.374 OA
ATOM     19  C   UNL     1       2.013 -10.013   0.345  0.00  0.00    +0.135 C 
ATOM     20  C   UNL     1       2.142  -8.793   1.260  0.00  0.00    +0.086 C 
ATOM     21  C   UNL     1       3.598  -8.648   1.704  0.00  0.00    +0.021 C 
ATOM     22  C   UNL     1       4.019  -9.902   2.473  0.00  0.00    +0.002 C 
ATOM     23  C   UNL     1       3.874 -11.131   1.573  0.00  0.00    +0.003 C 
ATOM     24  C   UNL     1       2.420 -11.268   1.117  0.00  0.00    +0.033 C 
ENDBRANCH  14  15
ENDBRANCH   5  14
TORSDOF 3
