REMARK  Name = ZINC64580141
REMARK  8 active torsions:
REMARK  status: ('A' for Active; 'I' for Inactive)
REMARK    1  A    between atoms: C_1  and  C_2
REMARK    2  A    between atoms: C_5  and  C_9
REMARK    3  A    between atoms: C_7  and  C_8
REMARK    4  A    between atoms: C_13  and  S_21
REMARK    5  A    between atoms: N_14  and  C_15
REMARK    6  A    between atoms: S_21  and  C_22
REMARK    7  A    between atoms: C_22  and  C_23
REMARK    8  A    between atoms: N_25  and  C_26
REMARK                            x       y       z     vdW  Elec       q    Type
REMARK                         _______ _______ _______ _____ _____    ______ ____
ROOT
ATOM      1  C   UNL     1       0.059  -4.276  -0.021  0.00  0.00    +0.213 C 
ATOM      2  N   UNL     1       0.928  -4.787   1.052  0.00  0.00    -0.242 N 
ATOM      3  N   UNL     1       1.947  -5.510   0.419  0.00  0.00    -0.162 NA
ATOM      4  C   UNL     1       1.806  -5.500  -0.864  0.00  0.00    +0.180 C 
ATOM      5  N   UNL     1       0.685  -4.777  -1.257  0.00  0.00    -0.254 N 
ATOM      6  H   UNL     1       0.818  -4.651   2.006  0.00  0.00    +0.170 HD
ENDROOT
BRANCH   1  11
ATOM      7  C   UNL     1      -0.022   1.502   0.012  0.00  0.00    +0.044 C 
ATOM      8  C   UNL     1      -0.000  -0.005   0.003  0.00  0.00    -0.048 A 
ATOM      9  C   UNL     1      -0.228  -0.692  -1.174  0.00  0.00    +0.004 A 
ATOM     10  C   UNL     1      -0.209  -2.074  -1.182  0.00  0.00    +0.007 A 
ATOM     11  C   UNL     1       0.039  -2.769  -0.013  0.00  0.00    -0.007 A 
ATOM     12  C   UNL     1       0.268  -2.082   1.164  0.00  0.00    +0.010 A 
ATOM     13  C   UNL     1       0.253  -0.699   1.171  0.00  0.00    -0.047 A 
ATOM     14  C   UNL     1       0.507   0.051   2.453  0.00  0.00    +0.044 C 
ENDBRANCH   1  11
BRANCH   5  15
ATOM     15  C   UNL     1       0.239  -4.567  -2.564  0.00  0.00    +0.038 A 
ATOM     16  C   UNL     1       1.095  -4.021  -3.512  0.00  0.00    +0.023 A 
ATOM     17  C   UNL     1       0.651  -3.815  -4.804  0.00  0.00    +0.002 A 
ATOM     18  C   UNL     1      -0.644  -4.151  -5.153  0.00  0.00    +0.000 A 
ATOM     19  C   UNL     1      -1.499  -4.694  -4.212  0.00  0.00    +0.002 A 
ATOM     20  C   UNL     1      -1.060  -4.909  -2.920  0.00  0.00    +0.023 A 
ENDBRANCH   5  15
BRANCH   4  21
ATOM     21  S   UNL     1       2.902  -6.306  -1.983  0.00  0.00    -0.079 S 
BRANCH  21  22
ATOM     22  C   UNL     1       4.147  -7.069  -0.906  0.00  0.00    +0.173 C 
BRANCH  22  23
ATOM     23  C   UNL     1       5.159  -7.802  -1.748  0.00  0.00    +0.226 C 
ATOM     24  O   UNL     1       5.052  -7.808  -2.956  0.00  0.00    -0.275 OA
ATOM     25  N   UNL     1       6.184  -8.449  -1.159  0.00  0.00    -0.278 N 
ATOM     26  H   UNL     1       6.269  -8.444  -0.193  0.00  0.00    +0.152 HD
BRANCH  25  27
ATOM     27  C   UNL     1       7.168  -9.161  -1.978  0.00  0.00    +0.269 C 
ATOM     28  N   UNL     1       6.617 -10.447  -2.423  0.00  0.00    -0.348 N 
ATOM     29  C   UNL     1       7.382 -11.386  -1.946  0.00  0.00    +0.061 A 
ATOM     30  C   UNL     1       7.346 -12.852  -2.047  0.00  0.00    +0.027 A 
ATOM     31  C   UNL     1       8.296 -13.584  -1.432  0.00  0.00    +0.002 A 
ATOM     32  C   UNL     1       9.337 -13.003  -0.686  0.00  0.00    +0.002 A 
ATOM     33  C   UNL     1       9.463 -11.670  -0.530  0.00  0.00    +0.027 A 
ATOM     34  C   UNL     1       8.484 -10.771  -1.157  0.00  0.00    +0.061 A 
ATOM     35  N   UNL     1       8.357  -9.476  -1.177  0.00  0.00    -0.348 N 
ATOM     36  H   UNL     1       5.827 -10.574  -2.972  0.00  0.00    +0.163 HD
ATOM     37  H   UNL     1       8.942  -8.835  -0.742  0.00  0.00    +0.163 HD
ENDBRANCH  25  27
ENDBRANCH  22  23
ENDBRANCH  21  22
ENDBRANCH   4  21
TORSDOF 6
