REMARK  Name = ZINC06204743
REMARK  7 active torsions:
REMARK  status: ('A' for Active; 'I' for Inactive)
REMARK    1  A    between atoms: C_1  and  C_2
REMARK    2  A    between atoms: C_5  and  N_8
REMARK    3  A    between atoms: C_9  and  C_11
REMARK    4  A    between atoms: C_11  and  N_12
REMARK    5  A    between atoms: N_12  and  C_13
REMARK    6  A    between atoms: N_16  and  C_17
REMARK    7  A    between atoms: C_20  and  C_23
REMARK                            x       y       z     vdW  Elec       q    Type
REMARK                         _______ _______ _______ _____ _____    ______ ____
ROOT
ATOM      1  N   UNL     1       0.446  -6.987   2.439  0.00  0.00    -0.280 N 
ATOM      2  C   UNL     1      -0.776  -7.171   3.226  0.00  0.00    +0.134 C 
ATOM      3  C   UNL     1       1.652  -7.122   3.025  0.00  0.00    +0.307 C 
ATOM      4  O   UNL     1       2.666  -6.970   2.372  0.00  0.00    -0.252 OA
ATOM      5  N   UNL     1       1.734  -7.425   4.336  0.00  0.00    -0.269 N 
ATOM      6  H   UNL     1       0.928  -7.622   4.839  0.00  0.00    +0.156 HD
ENDROOT
BRANCH   5   7
ATOM      7  C   UNL     1       2.981  -7.455   4.970  0.00  0.00    +0.035 A 
ATOM      8  C   UNL     1       3.216  -8.356   6.001  0.00  0.00    +0.023 A 
ATOM      9  C   UNL     1       4.447  -8.383   6.624  0.00  0.00    +0.005 A 
ATOM     10  C   UNL     1       5.447  -7.516   6.224  0.00  0.00    -0.050 A 
ATOM     11  C   UNL     1       5.216  -6.617   5.198  0.00  0.00    +0.005 A 
ATOM     12  C   UNL     1       3.988  -6.588   4.566  0.00  0.00    +0.023 A 
ATOM     13  C   UNL     1       6.790  -7.548   6.907  0.00  0.00    +0.044 C 
ENDBRANCH   5   7
BRANCH   1  14
ATOM     14  C   UNL     1       0.356  -6.658   1.014  0.00  0.00    +0.205 C 
BRANCH  14  16
ATOM     15  N   UNL     1       0.243  -4.623  -0.388  0.00  0.00    -0.284 N 
ATOM     16  C   UNL     1       0.325  -5.161   0.845  0.00  0.00    +0.235 C 
ATOM     17  O   UNL     1       0.372  -4.440   1.819  0.00  0.00    -0.274 OA
ATOM     18  H   UNL     1       0.131  -5.198  -1.161  0.00  0.00    +0.155 HD
BRANCH  15  23
ATOM     19  C   UNL     1       0.562   1.001  -1.057  0.00  0.00    +0.044 C 
ATOM     20  C   UNL     1       0.477  -0.493  -0.879  0.00  0.00    -0.050 A 
ATOM     21  C   UNL     1       1.201  -1.110   0.125  0.00  0.00    +0.005 A 
ATOM     22  C   UNL     1       1.125  -2.479   0.290  0.00  0.00    +0.023 A 
ATOM     23  C   UNL     1       0.322  -3.236  -0.553  0.00  0.00    +0.033 A 
ATOM     24  C   UNL     1      -0.404  -2.613  -1.560  0.00  0.00    +0.023 A 
ATOM     25  C   UNL     1      -0.328  -1.243  -1.717  0.00  0.00    +0.005 A 
ENDBRANCH  15  23
ENDBRANCH  14  16
ENDBRANCH   1  14
TORSDOF 4
