REMARK  Name = ZINC41599900
REMARK  7 active torsions:
REMARK  status: ('A' for Active; 'I' for Inactive)
REMARK    1  A    between atoms: C_1  and  C_2
REMARK    2  A    between atoms: C_4  and  N_9
REMARK    3  A    between atoms: C_16  and  C_18
REMARK    4  A    between atoms: C_18  and  S_19
REMARK    5  A    between atoms: S_19  and  C_20
REMARK    6  A    between atoms: C_20  and  C_21
REMARK    7  A    between atoms: C_20  and  C_22
REMARK                            x       y       z     vdW  Elec       q    Type
REMARK                         _______ _______ _______ _____ _____    ______ ____
ROOT
ATOM      1  N   UNL     1       0.028  -2.771  -2.419  0.00  0.00    -0.285 N 
ATOM      2  C   UNL     1       0.150  -4.136  -2.428  0.00  0.00    +0.200 A 
ATOM      3  N   UNL     1       0.260  -4.790  -3.616  0.00  0.00    -0.295 N 
ATOM      4  H   UNL     1       0.253  -4.292  -4.448  0.00  0.00    +0.172 HD
ATOM      5  C   UNL     1       0.381  -6.135  -3.631  0.00  0.00    +0.253 A 
ATOM      6  O   UNL     1       0.481  -6.738  -4.687  0.00  0.00    -0.268 OA
ATOM      7  C   UNL     1       0.389  -6.827  -2.408  0.00  0.00    +0.094 A 
ATOM      8  C   UNL     1       0.275  -6.117  -1.248  0.00  0.00    +0.060 A 
ATOM      9  N   UNL     1       0.164  -4.792  -1.284  0.00  0.00    -0.220 NA
ATOM     10  H   UNL     1       0.099  -2.272  -3.249  0.00  0.00    +0.155 HD
ENDROOT
BRANCH   1  14
ATOM     11  C   UNL     1       0.682   1.211   0.389  0.00  0.00    +0.045 C 
ATOM     12  C   UNL     1       0.105  -0.165   0.173  0.00  0.00    -0.035 A 
ATOM     13  C   UNL     1       0.332  -0.829  -1.017  0.00  0.00    +0.027 A 
ATOM     14  C   UNL     1      -0.200  -2.096  -1.215  0.00  0.00    +0.034 A 
ATOM     15  C   UNL     1      -0.959  -2.692  -0.216  0.00  0.00    +0.024 A 
ATOM     16  C   UNL     1      -1.182  -2.023   0.971  0.00  0.00    +0.017 A 
ATOM     17  C   UNL     1      -0.646  -0.763   1.168  0.00  0.00    +0.021 A 
ATOM     18 BR   UNL     1      -0.948   0.146   2.799  0.00  0.00    -0.050 Br
ENDBRANCH   1  14
BRANCH   8  19
ATOM     19  C   UNL     1       0.280  -6.835   0.077  0.00  0.00    +0.125 C 
BRANCH  19  20
ATOM     20  S   UNL     1       1.883  -6.590   0.891  0.00  0.00    -0.152 S 
BRANCH  20  21
ATOM     21  C   UNL     1       1.727  -7.505   2.450  0.00  0.00    +0.041 C 
ATOM     22  C   UNL     1       1.577  -8.998   2.153  0.00  0.00    +0.018 C 
ATOM     23  C   UNL     1       2.978  -7.278   3.302  0.00  0.00    +0.018 C 
ENDBRANCH  20  21
ENDBRANCH  19  20
ENDBRANCH   8  19
TORSDOF 4
