REMARK  Name = ZINC21162519
REMARK  6 active torsions:
REMARK  status: ('A' for Active; 'I' for Inactive)
REMARK    1  A    between atoms: C_5  and  C_7
REMARK    2  A    between atoms: C_7  and  N_8
REMARK    3  A    between atoms: C_20  and  C_23
REMARK    4  A    between atoms: N_25  and  C_26
REMARK    5  A    between atoms: C_26  and  C_27
REMARK    6  A    between atoms: C_27  and  C_28
REMARK                            x       y       z     vdW  Elec       q    Type
REMARK                         _______ _______ _______ _____ _____    ______ ____
ROOT
ATOM      1  N   UNL     1       3.470  12.055   2.990  0.00  0.00    -0.309 N 
ATOM      2  C   UNL     1       3.022  13.293   3.424  0.00  0.00    +0.068 A 
ATOM      3  C   UNL     1       3.556  14.572   3.396  0.00  0.00    +0.028 A 
ATOM      4  C   UNL     1       2.840  15.626   3.924  0.00  0.00    +0.002 A 
ATOM      5  C   UNL     1       1.589  15.415   4.484  0.00  0.00    +0.002 A 
ATOM      6  C   UNL     1       1.044  14.152   4.520  0.00  0.00    +0.028 A 
ATOM      7  C   UNL     1       1.756  13.073   3.989  0.00  0.00    +0.065 A 
ATOM      8  N   UNL     1       1.491  11.745   3.875  0.00  0.00    -0.327 N 
ATOM      9  C   UNL     1       2.499  11.144   3.293  0.00  0.00    +0.177 A 
ATOM     10  N   UNL     1       2.566   9.794   3.020  0.00  0.00    -0.302 N 
ATOM     11  C   UNL     1       1.597   9.045   3.830  0.00  0.00    +0.108 C 
ATOM     12  C   UNL     1       1.799   7.544   3.610  0.00  0.00    +0.032 C 
ATOM     13  C   UNL     1       1.610   7.221   2.125  0.00  0.00    +0.078 C 
ATOM     14  C   UNL     1       2.598   8.050   1.300  0.00  0.00    +0.032 C 
ATOM     15  C   UNL     1       2.374   9.536   1.587  0.00  0.00    +0.108 C 
ATOM     16  H   UNL     1       0.539  11.339   4.249  0.00  0.00    +0.169 HD
ENDROOT
BRANCH  13  17
ATOM     17  C   UNL     1       1.867   5.754   1.893  0.00  0.00    +0.216 C 
ATOM     18  O   UNL     1       2.168   5.036   2.823  0.00  0.00    -0.276 OA
ATOM     19  N   UNL     1       1.761   5.240   0.651  0.00  0.00    -0.315 N 
ATOM     20  H   UNL     1       1.488   5.891  -0.192  0.00  0.00    +0.149 HD
BRANCH  19  21
ATOM     21  C   UNL     1       2.010   3.814   0.425  0.00  0.00    +0.109 C 
BRANCH  21  22
ATOM     22  C   UNL     1       1.825   3.493  -1.059  0.00  0.00    +0.054 C 
BRANCH  22  23
ATOM     23  C   UNL     1       2.081   2.026  -1.291  0.00  0.00    -0.046 A 
ATOM     24  C   UNL     1       1.041   1.120  -1.203  0.00  0.00    +0.005 A 
ATOM     25  C   UNL     1       1.276  -0.225  -1.416  0.00  0.00    +0.020 A 
ATOM     26  C   UNL     1       2.552  -0.665  -1.719  0.00  0.00    +0.041 A 
ATOM     27  C   UNL     1       3.593   0.242  -1.808  0.00  0.00    +0.020 A 
ATOM     28  C   UNL     1       3.357   1.587  -1.594  0.00  0.00    +0.005 A 
ATOM     29 CL   UNL     1       2.847  -2.355  -1.987  0.00  0.00    -0.084 Cl
ENDBRANCH  22  23
ENDBRANCH  21  22
ENDBRANCH  19  21
ENDBRANCH  13  17
BRANCH   1  30
ATOM     30  C   UNL     1       4.748  11.776   2.330  0.00  0.00    +0.163 C 
BRANCH  30  35
ATOM     31  C   UNL     1       6.858   9.566   4.548  0.00  0.00    +0.000 A 
ATOM     32  C   UNL     1       7.607  10.501   5.239  0.00  0.00    +0.003 A 
ATOM     33  C   UNL     1       7.432  11.849   4.989  0.00  0.00    +0.039 A 
ATOM     34  C   UNL     1       6.509  12.263   4.044  0.00  0.00    +0.128 A 
ATOM     35  C   UNL     1       5.756  11.326   3.356  0.00  0.00    +0.007 A 
ATOM     36  C   UNL     1       5.933   9.979   3.607  0.00  0.00    +0.008 A 
ATOM     37  F   UNL     1       6.341  13.580   3.795  0.00  0.00    -0.205 F 
ENDBRANCH  30  35
ENDBRANCH   1  30
TORSDOF 6
