REMARK  Name = ZINC40341994
REMARK  5 active torsions:
REMARK  status: ('A' for Active; 'I' for Inactive)
REMARK    1  A    between atoms: C_1  and  C_2
REMARK    2  A    between atoms: C_5  and  C_8
REMARK    3  A    between atoms: C_11  and  C_26
REMARK    4  A    between atoms: N_18  and  C_19
REMARK    5  A    between atoms: C_19  and  C_20
REMARK                            x       y       z     vdW  Elec       q    Type
REMARK                         _______ _______ _______ _____ _____    ______ ____
ROOT
ATOM      1  C   UNL     1       0.059  -4.275  -0.021  0.00  0.00    +0.142 C 
ATOM      2  C   UNL     1       1.454  -4.777   0.236  0.00  0.00    +0.035 A 
ATOM      3  C   UNL     1       2.788  -4.819  -0.183  0.00  0.00    +0.099 A 
ATOM      4  N   UNL     1       3.453  -5.550   0.690  0.00  0.00    -0.173 NA
ATOM      5  N   UNL     1       2.671  -5.974   1.618  0.00  0.00    -0.272 N 
ATOM      6  H   UNL     1       2.942  -6.530   2.365  0.00  0.00    +0.189 HD
ATOM      7  C   UNL     1       1.399  -5.526   1.396  0.00  0.00    +0.126 A 
ATOM      8  C   UNL     1       0.018  -5.522   1.889  0.00  0.00    +0.266 C 
ATOM      9  O   UNL     1      -0.362  -6.091   2.894  0.00  0.00    -0.268 OA
ATOM     10  N   UNL     1      -0.770  -4.798   1.072  0.00  0.00    -0.281 N 
ENDROOT
BRANCH   1  15
ATOM     11  C   UNL     1      -0.018   1.503   0.010  0.00  0.00    +0.044 C 
ATOM     12  C   UNL     1       0.002  -0.004   0.002  0.00  0.00    -0.050 A 
ATOM     13  C   UNL     1       0.006  -0.689  -1.199  0.00  0.00    +0.004 A 
ATOM     14  C   UNL     1       0.025  -2.071  -1.206  0.00  0.00    +0.006 A 
ATOM     15  C   UNL     1       0.040  -2.768  -0.013  0.00  0.00    -0.022 A 
ATOM     16  C   UNL     1       0.037  -2.084   1.188  0.00  0.00    +0.006 A 
ATOM     17  C   UNL     1       0.023  -0.702   1.195  0.00  0.00    +0.004 A 
ENDBRANCH   1  15
BRANCH   3  18
ATOM     18  C   UNL     1       3.352  -4.161  -1.388  0.00  0.00    +0.003 A 
ATOM     19  C   UNL     1       2.588  -4.054  -2.548  0.00  0.00    +0.011 A 
ATOM     20  C   UNL     1       3.116  -3.442  -3.666  0.00  0.00    +0.020 A 
ATOM     21  C   UNL     1       4.404  -2.934  -3.636  0.00  0.00    +0.041 A 
ATOM     22  C   UNL     1       5.167  -3.037  -2.486  0.00  0.00    +0.020 A 
ATOM     23  C   UNL     1       4.645  -3.643  -1.361  0.00  0.00    +0.011 A 
ATOM     24 CL   UNL     1       5.064  -2.165  -5.046  0.00  0.00    -0.084 Cl
ENDBRANCH   3  18
BRANCH  10  25
ATOM     25  C   UNL     1      -2.207  -4.569   1.243  0.00  0.00    +0.144 C 
BRANCH  25  26
ATOM     26  C   UNL     1      -2.976  -5.656   0.536  0.00  0.00    -0.030 A 
ATOM     27  C   UNL     1      -3.338  -5.496  -0.788  0.00  0.00    +0.005 A 
ATOM     28  C   UNL     1      -4.043  -6.493  -1.437  0.00  0.00    +0.000 A 
ATOM     29  C   UNL     1      -4.386  -7.649  -0.761  0.00  0.00    +0.000 A 
ATOM     30  C   UNL     1      -4.023  -7.809   0.563  0.00  0.00    +0.000 A 
ATOM     31  C   UNL     1      -3.314  -6.814   1.211  0.00  0.00    +0.005 A 
ENDBRANCH  25  26
ENDBRANCH  10  25
TORSDOF 4
