REMARK  Name = ZINC10784869
REMARK  10 active torsions:
REMARK  status: ('A' for Active; 'I' for Inactive)
REMARK    1  A    between atoms: C_1  and  C_2
REMARK    2  A    between atoms: C_5  and  C_8
REMARK    3  A    between atoms: C_11  and  S_14
REMARK    4  A    between atoms: N_12  and  N_13
REMARK    5  A    between atoms: S_14  and  C_15
REMARK    6  A    between atoms: C_15  and  C_17
REMARK    7  A    between atoms: C_15  and  C_18
REMARK    8  A    between atoms: N_20  and  C_21
REMARK    9  A    between atoms: C_26  and  S_27
REMARK   10  A    between atoms: S_27  and  C_28
REMARK                            x       y       z     vdW  Elec       q    Type
REMARK                         _______ _______ _______ _____ _____    ______ ____
ROOT
ATOM      1  C   UNL     1       0.012  -4.247   0.011  0.00  0.00    +0.182 A 
ATOM      2  N   UNL     1      -0.248  -5.022  -1.016  0.00  0.00    -0.127 NA
ATOM      3  N   UNL     1      -0.129  -6.256  -0.676  0.00  0.00    -0.121 NA
ATOM      4  C   UNL     1       0.215  -6.344   0.589  0.00  0.00    +0.209 A 
ATOM      5  N   UNL     1       0.322  -5.070   1.069  0.00  0.00    -0.224 N 
ENDROOT
BRANCH   1  10
ATOM      6  C   UNL     1      -0.101   1.506   0.069  0.00  0.00    +0.044 C 
ATOM      7  C   UNL     1      -0.071  -0.001   0.053  0.00  0.00    -0.050 A 
ATOM      8  C   UNL     1      -0.066  -0.677  -1.153  0.00  0.00    +0.004 A 
ATOM      9  C   UNL     1      -0.039  -2.057  -1.174  0.00  0.00    +0.012 A 
ATOM     10  C   UNL     1      -0.017  -2.769   0.026  0.00  0.00    +0.021 A 
ATOM     11  C   UNL     1      -0.021  -2.081   1.240  0.00  0.00    +0.012 A 
ATOM     12  C   UNL     1      -0.043  -0.701   1.246  0.00  0.00    +0.004 A 
ENDBRANCH   1  10
BRANCH   5  13
ATOM     13  N   UNL     1       0.662  -4.691   2.337  0.00  0.00    -0.295 N 
ATOM     14  H   UNL     1      -0.155  -4.611   2.922  0.00  0.00    +0.163 HD
ATOM     15  H   UNL     1       1.333  -5.330   2.737  0.00  0.00    +0.163 HD
ENDBRANCH   5  13
BRANCH   4  16
ATOM     16  S   UNL     1       0.493  -7.829   1.496  0.00  0.00    -0.072 S 
BRANCH  16  17
ATOM     17  C   UNL     1       0.195  -9.146   0.284  0.00  0.00    +0.137 C 
ATOM     18  C   UNL     1       1.249  -9.068  -0.822  0.00  0.00    +0.029 C 
BRANCH  17  19
ATOM     19  C   UNL     1       0.281 -10.486   0.967  0.00  0.00    +0.230 C 
ATOM     20  O   UNL     1       0.859 -10.590   2.028  0.00  0.00    -0.274 OA
ATOM     21  N   UNL     1      -0.285 -11.569   0.399  0.00  0.00    -0.284 N 
ATOM     22  H   UNL     1      -0.803 -11.475  -0.416  0.00  0.00    +0.155 HD
BRANCH  21  23
ATOM     23  C   UNL     1      -0.126 -12.832   0.985  0.00  0.00    +0.047 A 
ATOM     24  C   UNL     1      -0.068 -12.956   2.365  0.00  0.00    +0.024 A 
ATOM     25  C   UNL     1       0.090 -14.202   2.942  0.00  0.00    +0.002 A 
ATOM     26  C   UNL     1       0.190 -15.329   2.146  0.00  0.00    +0.001 A 
ATOM     27  C   UNL     1       0.134 -15.216   0.770  0.00  0.00    +0.016 A 
ATOM     28  C   UNL     1      -0.030 -13.969   0.183  0.00  0.00    +0.029 A 
BRANCH  28  29
ATOM     29  S   UNL     1      -0.109 -13.822  -1.571  0.00  0.00    -0.127 S 
ATOM     30  C   UNL     1       0.056 -15.529  -2.163  0.00  0.00    +0.090 C 
ENDBRANCH  28  29
ENDBRANCH  21  23
ENDBRANCH  17  19
ENDBRANCH  16  17
ENDBRANCH   4  16
TORSDOF 7
