REMARK  Name = ZINC20726409
REMARK  10 active torsions:
REMARK  status: ('A' for Active; 'I' for Inactive)
REMARK    1  A    between atoms: C_1  and  N_2
REMARK    2  A    between atoms: N_2  and  C_3
REMARK    3  A    between atoms: N_2  and  C_29
REMARK    4  A    between atoms: C_3  and  C_4
REMARK    5  A    between atoms: C_4  and  C_5
REMARK    6  A    between atoms: C_5  and  N_6
REMARK    7  A    between atoms: C_7  and  C_9
REMARK    8  A    between atoms: C_9  and  N_10
REMARK    9  A    between atoms: C_19  and  C_20
REMARK   10  A    between atoms: C_29  and  C_30
REMARK                            x       y       z     vdW  Elec       q    Type
REMARK                         _______ _______ _______ _____ _____    ______ ____
ROOT
ATOM      1  N   UNL     1       4.796   5.514  -0.251  0.00  0.00    -0.257 N 
ATOM      2  C   UNL     1       4.804   4.167   0.089  0.00  0.00    +0.051 A 
ATOM      3  C   UNL     1       5.758   3.717   1.000  0.00  0.00    +0.024 A 
ATOM      4  C   UNL     1       5.799   2.389   1.371  0.00  0.00    +0.002 A 
ATOM      5  C   UNL     1       4.894   1.484   0.844  0.00  0.00    +0.001 A 
ATOM      6  C   UNL     1       3.943   1.914  -0.062  0.00  0.00    +0.017 A 
ATOM      7  C   UNL     1       3.897   3.246  -0.437  0.00  0.00    +0.034 A 
ATOM      8  S   UNL     1       2.679   3.795  -1.596  0.00  0.00    -0.082 S 
ATOM      9  C   UNL     1       2.525   5.507  -1.157  0.00  0.00    +0.076 C 
ATOM     10  C   UNL     1       1.329   6.145  -1.169  0.00  0.00    +0.028 C 
ATOM     11  C   UNL     1       3.778   6.199  -0.784  0.00  0.00    +0.258 C 
ATOM     12  O   UNL     1       3.879   7.399  -0.959  0.00  0.00    -0.269 OA
ENDROOT
BRANCH  10  13
ATOM     13  C   UNL     1       0.137   5.462  -1.694  0.00  0.00    -0.024 A 
ATOM     14  C   UNL     1       0.241   4.624  -2.810  0.00  0.00    +0.009 A 
ATOM     15  C   UNL     1      -0.881   3.988  -3.296  0.00  0.00    +0.020 A 
ATOM     16  C   UNL     1      -2.109   4.176  -2.683  0.00  0.00    +0.041 A 
ATOM     17  C   UNL     1      -2.220   5.005  -1.578  0.00  0.00    +0.020 A 
ATOM     18  C   UNL     1      -1.107   5.648  -1.080  0.00  0.00    +0.009 A 
ATOM     19 CL   UNL     1      -3.517   3.371  -3.302  0.00  0.00    -0.084 Cl
ENDBRANCH  10  13
BRANCH   1  20
ATOM     20  C   UNL     1       6.033   6.261  -0.008  0.00  0.00    +0.209 C 
BRANCH  20  22
ATOM     21  N   UNL     1       6.978   7.702   1.767  0.00  0.00    -0.314 N 
ATOM     22  C   UNL     1       5.948   6.951   1.329  0.00  0.00    +0.231 C 
ATOM     23  O   UNL     1       4.952   6.831   2.011  0.00  0.00    -0.274 OA
ATOM     24  H   UNL     1       7.881   7.811   1.148  0.00  0.00    +0.149 HD
BRANCH  21  25
ATOM     25  C   UNL     1       6.895   8.373   3.067  0.00  0.00    +0.102 C 
BRANCH  25  26
ATOM     26  C   UNL     1       8.187   9.153   3.321  0.00  0.00    +0.000 C 
BRANCH  26  27
ATOM     27  C   UNL     1       8.100   9.854   4.678  0.00  0.00    -0.077 C 
BRANCH  27  29
ATOM     28  C   UNL     1       9.484  11.709   3.967  0.00  0.00    -0.096 C 
ATOM     29  N   UNL     1       9.340  10.602   4.923  0.00  0.00    +0.381 N 
ATOM     30  H   UNL     1      10.185   9.915   4.774  0.00  0.00    -0.082 HD
BRANCH  29  31
ATOM     31  C   UNL     1       9.395  11.092   6.307  0.00  0.00    -0.043 C 
BRANCH  31  32
ATOM     32  C   UNL     1      10.771  11.636   6.592  0.00  0.00    -0.064 A 
ATOM     33  C   UNL     1      11.752  10.803   7.098  0.00  0.00    +0.002 A 
ATOM     34  C   UNL     1      13.016  11.301   7.356  0.00  0.00    +0.000 A 
ATOM     35  C   UNL     1      13.296  12.634   7.117  0.00  0.00    +0.000 A 
ATOM     36  C   UNL     1      12.313  13.468   6.617  0.00  0.00    +0.000 A 
ATOM     37  C   UNL     1      11.051  12.969   6.354  0.00  0.00    +0.002 A 
ENDBRANCH  31  32
ENDBRANCH  29  31
ENDBRANCH  27  29
ENDBRANCH  26  27
ENDBRANCH  25  26
ENDBRANCH  21  25
ENDBRANCH  20  22
ENDBRANCH   1  20
TORSDOF 9
