REMARK  Name = ZINC66981704
REMARK  6 active torsions:
REMARK  status: ('A' for Active; 'I' for Inactive)
REMARK    1  A    between atoms: C_1  and  C_2
REMARK    2  A    between atoms: C_2  and  C_4
REMARK    3  A    between atoms: C_2  and  N_14
REMARK    4  A    between atoms: N_17  and  C_18
REMARK    5  A    between atoms: C_20  and  N_26
REMARK    6  A    between atoms: C_27  and  C_29
REMARK                            x       y       z     vdW  Elec       q    Type
REMARK                         _______ _______ _______ _____ _____    ______ ____
ROOT
ATOM      1  N   UNL     1       0.711  -0.467   1.154  0.00  0.00    -0.293 N 
ATOM      2  C   UNL     1       2.055  -0.573   1.147  0.00  0.00    +0.304 C 
ATOM      3  O   UNL     1       2.683  -0.272   0.151  0.00  0.00    -0.252 OA
ATOM      4  N   UNL     1       2.702  -1.011   2.245  0.00  0.00    -0.267 N 
ATOM      5  H   UNL     1       0.210  -0.707   1.949  0.00  0.00    +0.151 HD
ATOM      6  H   UNL     1       2.210  -1.173   3.066  0.00  0.00    +0.156 HD
ENDROOT
BRANCH   4   7
ATOM      7  C   UNL     1       4.085  -1.232   2.203  0.00  0.00    +0.072 A 
ATOM      8  C   UNL     1       4.707  -1.508   0.993  0.00  0.00    +0.052 A 
ATOM      9  C   UNL     1       6.076  -1.726   0.954  0.00  0.00    +0.071 A 
ATOM     10  C   UNL     1       6.823  -1.668   2.125  0.00  0.00    +0.147 A 
ATOM     11  C   UNL     1       6.201  -1.393   3.330  0.00  0.00    +0.080 A 
ATOM     12  C   UNL     1       4.836  -1.169   3.371  0.00  0.00    +0.147 A 
ATOM     13  F   UNL     1       4.232  -0.895   4.548  0.00  0.00    -0.203 F 
ATOM     14  F   UNL     1       8.156  -1.880   2.087  0.00  0.00    -0.203 F 
BRANCH   9  15
ATOM     15  N   UNL     1       6.706  -2.006  -0.267  0.00  0.00    -0.283 N 
ATOM     16  C   UNL     1       6.003  -2.549  -1.280  0.00  0.00    +0.214 C 
ATOM     17  O   UNL     1       4.851  -2.889  -1.105  0.00  0.00    -0.276 OA
ATOM     18  C   UNL     1       6.646  -2.733  -2.630  0.00  0.00    +0.109 C 
ATOM     19  H   UNL     1       7.649  -1.808  -0.382  0.00  0.00    +0.155 HD
ENDBRANCH   9  15
ENDBRANCH   4   7
BRANCH   1  21
ATOM     20  C   UNL     1      -0.018   1.539  -0.040  0.00  0.00    +0.033 C 
ATOM     21  C   UNL     1       0.008   0.009  -0.040  0.00  0.00    +0.102 C 
BRANCH  21  22
ATOM     22  C   UNL     1      -1.404  -0.517  -0.035  0.00  0.00    -0.027 A 
ATOM     23  C   UNL     1      -2.124  -0.560   1.145  0.00  0.00    +0.007 A 
ATOM     24  C   UNL     1      -3.417  -1.041   1.156  0.00  0.00    +0.024 A 
ATOM     25  C   UNL     1      -4.007  -1.488  -0.025  0.00  0.00    +0.037 A 
ATOM     26  C   UNL     1      -3.274  -1.440  -1.203  0.00  0.00    -0.017 A 
ATOM     27  C   UNL     1      -1.985  -0.955  -1.213  0.00  0.00    +0.011 A 
ATOM     28  C   UNL     1      -4.175  -1.984  -2.288  0.00  0.00    +0.133 C 
ATOM     29  C   UNL     1      -5.459  -2.325  -1.562  0.00  0.00    +0.222 C 
ATOM     30  O   UNL     1      -6.463  -2.795  -2.056  0.00  0.00    -0.275 OA
ATOM     31  N   UNL     1      -5.278  -2.010  -0.269  0.00  0.00    -0.285 N 
ATOM     32  H   UNL     1      -5.953  -2.131   0.417  0.00  0.00    +0.155 HD
ENDBRANCH  21  22
ENDBRANCH   1  21
TORSDOF 4
