REMARK  Name = ZINC39675846
REMARK  13 active torsions:
REMARK  status: ('A' for Active; 'I' for Inactive)
REMARK    1  A    between atoms: C_1  and  C_2
REMARK    2  A    between atoms: C_2  and  C_3
REMARK    3  A    between atoms: C_3  and  C_4
REMARK    4  A    between atoms: C_4  and  C_5
REMARK    5  A    between atoms: C_5  and  C_7
REMARK    6  A    between atoms: C_5  and  C_8
REMARK    7  A    between atoms: C_12  and  C_21
REMARK    8  A    between atoms: N_23  and  C_24
REMARK    9  A    between atoms: C_24  and  C_25
REMARK   10  A    between atoms: C_25  and  C_27
REMARK   11  A    between atoms: C_25  and  N_33
REMARK   12  A    between atoms: N_33  and  C_34
REMARK   13  A    between atoms: N_33  and  C_35
REMARK                            x       y       z     vdW  Elec       q    Type
REMARK                         _______ _______ _______ _____ _____    ______ ____
ROOT
ATOM      1  C   UNL     1       0.859  -4.350   2.511  0.00  0.00    +0.218 C 
ATOM      2  O   UNL     1       0.479  -5.036   1.587  0.00  0.00    -0.275 OA
ATOM      3  N   UNL     1       1.525  -4.913   3.539  0.00  0.00    -0.300 N 
ATOM      4  C   UNL     1       1.957  -4.271   4.803  0.00  0.00    +0.121 C 
ATOM      5  C   UNL     1       1.709  -5.341   5.889  0.00  0.00    +0.100 C 
ATOM      6  C   UNL     1       1.735  -6.680   5.133  0.00  0.00    -0.004 C 
ATOM      7  C   UNL     1       1.986  -6.316   3.662  0.00  0.00    +0.115 C 
ATOM      8  C   UNL     1       0.393  -7.392   5.272  0.00  0.00    -0.010 C 
ATOM      9  C   UNL     1       0.462  -8.746   4.561  0.00  0.00    -0.082 C 
ATOM     10  N   UNL     1       1.533  -9.558   5.152  0.00  0.00    +0.379 N 
ATOM     11  C   UNL     1       2.832  -8.911   4.933  0.00  0.00    -0.082 C 
ATOM     12  C   UNL     1       2.863  -7.563   5.660  0.00  0.00    -0.010 C 
ATOM     13  H   UNL     1       1.371  -9.655   6.144  0.00  0.00    -0.086 HD
ATOM     14  H   UNL     1       1.537 -10.471   4.724  0.00  0.00    -0.086 HD
ENDROOT
BRANCH   5  15
ATOM     15  C   UNL     1       2.803  -5.300   6.925  0.00  0.00    +0.218 C 
ATOM     16  O   UNL     1       3.926  -4.971   6.609  0.00  0.00    -0.275 OA
ATOM     17  N   UNL     1       2.532  -5.629   8.204  0.00  0.00    -0.316 N 
ATOM     18  H   UNL     1       1.633  -5.892   8.457  0.00  0.00    +0.149 HD
BRANCH  17  19
ATOM     19  C   UNL     1       3.595  -5.588   9.211  0.00  0.00    +0.093 C 
BRANCH  19  20
ATOM     20  C   UNL     1       3.061  -6.133  10.538  0.00  0.00    -0.021 C 
BRANCH  20  21
ATOM     21  C   UNL     1       2.683  -7.582  10.370  0.00  0.00    -0.059 A 
ATOM     22  C   UNL     1       3.659  -8.560  10.408  0.00  0.00    +0.002 A 
ATOM     23  C   UNL     1       3.312  -9.889  10.254  0.00  0.00    +0.000 A 
ATOM     24  C   UNL     1       1.988 -10.240  10.063  0.00  0.00    +0.000 A 
ATOM     25  C   UNL     1       1.012  -9.262  10.027  0.00  0.00    +0.000 A 
ATOM     26  C   UNL     1       1.359  -7.934  10.185  0.00  0.00    +0.002 A 
ENDBRANCH  20  21
BRANCH  20  27
ATOM     27  N   UNL     1       4.100  -6.014  11.569  0.00  0.00    +0.382 N 
ATOM     28  C   UNL     1       4.456  -4.600  11.746  0.00  0.00    -0.096 C 
ATOM     29  C   UNL     1       3.594  -6.554  12.839  0.00  0.00    -0.096 C 
ATOM     30  H   UNL     1       4.917  -6.534  11.285  0.00  0.00    -0.082 HD
ENDBRANCH  20  27
ENDBRANCH  19  20
ENDBRANCH  17  19
ENDBRANCH   5  15
BRANCH   1  31
ATOM     31  C   UNL     1       0.588  -2.867   2.511  0.00  0.00    +0.072 C 
ATOM     32  C   UNL     1      -0.741  -2.592   3.217  0.00  0.00    +0.017 C 
BRANCH  31  33
ATOM     33  C   UNL     1       0.514  -2.362   1.069  0.00  0.00    +0.012 C 
BRANCH  33  34
ATOM     34  C   UNL     1       0.363  -0.840   1.069  0.00  0.00    +0.000 C 
BRANCH  34  36
ATOM     35  C   UNL     1       0.137   1.188  -0.373  0.00  0.00    +0.004 C 
ATOM     36  C   UNL     1       0.288  -0.335  -0.373  0.00  0.00    -0.003 C 
ENDBRANCH  34  36
ENDBRANCH  33  34
ENDBRANCH  31  33
ENDBRANCH   1  31
TORSDOF 9
