REMARK  Name = ZINC04189493
REMARK  9 active torsions:
REMARK  status: ('A' for Active; 'I' for Inactive)
REMARK    1  A    between atoms: C_1  and  C_2
REMARK    2  A    between atoms: C_7  and  C_17
REMARK    3  A    between atoms: C_21  and  O_25
REMARK    4  A    between atoms: C_22  and  O_23
REMARK    5  A    between atoms: O_23  and  C_24
REMARK    6  A    between atoms: O_25  and  C_26
REMARK    7  A    between atoms: C_29  and  C_31
REMARK    8  A    between atoms: C_31  and  O_33
REMARK    9  A    between atoms: O_33  and  C_34
REMARK                            x       y       z     vdW  Elec       q    Type
REMARK                         _______ _______ _______ _____ _____    ______ ____
ROOT
ATOM      1  C   UNL     1       7.049  -0.993  -2.805  0.00  0.00    +0.009 C 
ATOM      2  C   UNL     1       5.891  -0.623  -3.734  0.00  0.00    +0.013 C 
ATOM      3  C   UNL     1       4.811  -1.701  -3.671  0.00  0.00    +0.055 C 
ATOM      4  C   UNL     1       4.293  -1.832  -2.248  0.00  0.00    +0.017 C 
ATOM      5  C   UNL     1       4.229  -0.756  -1.447  0.00  0.00    +0.037 C 
ATOM      6  C   UNL     1       3.704  -0.733  -0.031  0.00  0.00    +0.140 C 
ATOM      7  N   UNL     1       3.491  -2.043   0.549  0.00  0.00    -0.331 N 
ATOM      8  C   UNL     1       2.535  -2.913   0.029  0.00  0.00    +0.049 A 
ATOM      9  C   UNL     1       1.422  -3.290   0.764  0.00  0.00    +0.025 A 
ATOM     10  C   UNL     1       0.477  -4.121   0.190  0.00  0.00    +0.002 A 
ATOM     11  C   UNL     1       0.637  -4.572  -1.108  0.00  0.00    +0.002 A 
ATOM     12  C   UNL     1       1.756  -4.211  -1.840  0.00  0.00    +0.025 A 
ATOM     13  C   UNL     1       2.712  -3.397  -1.259  0.00  0.00    +0.052 A 
ATOM     14  N   UNL     1       3.907  -3.085  -1.897  0.00  0.00    -0.316 N 
ATOM     15  C   UNL     1       4.682   0.504  -1.907  0.00  0.00    +0.177 C 
ATOM     16  O   UNL     1       4.600   1.463  -1.165  0.00  0.00    -0.291 OA
ATOM     17  C   UNL     1       5.259   0.698  -3.278  0.00  0.00    +0.171 C 
ATOM     18  H   UNL     1       4.022  -2.318   1.312  0.00  0.00    +0.147 HD
ATOM     19  H   UNL     1       4.509  -3.816  -2.107  0.00  0.00    +0.152 HD
ENDROOT
BRANCH   6  20
ATOM     20  C   UNL     1       2.396   0.014  -0.018  0.00  0.00    +0.023 A 
ATOM     21  C   UNL     1       1.663   0.146  -1.184  0.00  0.00    +0.009 A 
ATOM     22  C   UNL     1       0.463   0.830  -1.175  0.00  0.00    +0.004 A 
ATOM     23  C   UNL     1      -0.011   1.387  -0.001  0.00  0.00    +0.049 A 
ATOM     24  C   UNL     1       0.718   1.259   1.169  0.00  0.00    +0.162 A 
ATOM     25  C   UNL     1       1.927   0.570   1.161  0.00  0.00    +0.167 A 
BRANCH  25  26
ATOM     26  O   UNL     1       2.647   0.442   2.308  0.00  0.00    -0.491 OA
ATOM     27  C   UNL     1       3.521   1.520   2.648  0.00  0.00    +0.277 C 
ENDBRANCH  25  26
BRANCH  24  28
ATOM     28  O   UNL     1       0.254   1.806   2.325  0.00  0.00    -0.491 OA
ATOM     29  C   UNL     1      -0.994   2.499   2.259  0.00  0.00    +0.277 C 
ENDBRANCH  24  28
ENDBRANCH   6  20
BRANCH  17  30
ATOM     30  C   UNL     1       4.168   1.095  -4.238  0.00  0.00    +0.318 C 
ATOM     31  O   UNL     1       3.918   0.396  -5.191  0.00  0.00    -0.250 OA
BRANCH  30  32
ATOM     32  O   UNL     1       3.473   2.225  -4.034  0.00  0.00    -0.467 OA
ATOM     33  C   UNL     1       2.437   2.545  -5.000  0.00  0.00    +0.280 C 
ENDBRANCH  30  32
ENDBRANCH  17  30
TORSDOF 5
