REMARK  Name = ZINC12081236
REMARK  5 active torsions:
REMARK  status: ('A' for Active; 'I' for Inactive)
REMARK    1  A    between atoms: C_1  and  C_2
REMARK    2  A    between atoms: C_2  and  C_4
REMARK    3  A    between atoms: C_2  and  O_18
REMARK    4  A    between atoms: N_6  and  C_7
REMARK    5  A    between atoms: O_18  and  C_19
REMARK                            x       y       z     vdW  Elec       q    Type
REMARK                         _______ _______ _______ _____ _____    ______ ____
ROOT
ATOM      1  C   UNL     1      -2.427   1.389   0.151  0.00  0.00    +0.258 C 
ATOM      2  O   UNL     1      -2.438   0.186   0.303  0.00  0.00    -0.271 OA
ATOM      3  N   UNL     1      -1.275   2.075   0.288  0.00  0.00    -0.282 N 
ATOM      4  H   UNL     1      -1.277   3.043   0.234  0.00  0.00    +0.155 HD
ENDROOT
BRANCH   3   5
ATOM      5  C   UNL     1      -0.073   1.389   0.507  0.00  0.00    +0.037 A 
ATOM      6  C   UNL     1       1.106   1.860  -0.055  0.00  0.00    +0.025 A 
ATOM      7  C   UNL     1       2.295   1.189   0.164  0.00  0.00    +0.029 A 
ATOM      8  C   UNL     1       2.309   0.045   0.944  0.00  0.00    +0.076 A 
ATOM      9  C   UNL     1       1.126  -0.430   1.509  0.00  0.00    +0.144 A 
ATOM     10  C   UNL     1      -0.063   0.242   1.290  0.00  0.00    +0.070 A 
ATOM     11  O   UNL     1       1.155  -1.556   2.272  0.00  0.00    -0.481 OA
ATOM     12  C   UNL     1       2.112  -2.554   1.910  0.00  0.00    +0.325 C 
ATOM     13  C   UNL     1       3.451  -1.907   1.663  0.00  0.00    +0.255 C 
ATOM     14  O   UNL     1       4.473  -2.515   1.900  0.00  0.00    -0.272 OA
ATOM     15  N   UNL     1       3.507  -0.648   1.177  0.00  0.00    -0.280 N 
ATOM     16  H   UNL     1       4.362  -0.230   0.991  0.00  0.00    +0.155 HD
ENDBRANCH   3   5
BRANCH   1  18
ATOM     17  C   UNL     1      -4.010   3.144   0.902  0.00  0.00    +0.062 C 
ATOM     18  C   UNL     1      -3.701   2.117  -0.190  0.00  0.00    +0.256 C 
BRANCH  18  19
ATOM     19  O   UNL     1      -4.776   1.180  -0.279  0.00  0.00    -0.478 OA
BRANCH  19  20
ATOM     20  C   UNL     1      -5.833   1.526  -1.061  0.00  0.00    +0.140 A 
ATOM     21  C   UNL     1      -5.886   2.785  -1.640  0.00  0.00    +0.048 A 
ATOM     22  C   UNL     1      -6.959   3.133  -2.438  0.00  0.00    +0.023 A 
ATOM     23  C   UNL     1      -7.985   2.230  -2.653  0.00  0.00    +0.043 A 
ATOM     24  C   UNL     1      -7.937   0.975  -2.073  0.00  0.00    +0.043 A 
ATOM     25  C   UNL     1      -6.863   0.621  -1.277  0.00  0.00    +0.084 A 
ATOM     26 CL   UNL     1      -6.804  -0.954  -0.548  0.00  0.00    -0.080 Cl
ATOM     27 CL   UNL     1      -9.334   2.673  -3.651  0.00  0.00    -0.083 Cl
ENDBRANCH  19  20
ENDBRANCH  18  19
ENDBRANCH   1  18
TORSDOF 4
