REMARK  Name = ZINC16025126
REMARK  7 active torsions:
REMARK  status: ('A' for Active; 'I' for Inactive)
REMARK    1  A    between atoms: C_1  and  C_2
REMARK    2  A    between atoms: C_2  and  C_3
REMARK    3  A    between atoms: C_3  and  C_4
REMARK    4  A    between atoms: C_4  and  N_5
REMARK    5  A    between atoms: C_10  and  C_28
REMARK    6  A    between atoms: C_28  and  C_29
REMARK    7  A    between atoms: C_32  and  O_35
REMARK                            x       y       z     vdW  Elec       q    Type
REMARK                         _______ _______ _______ _____ _____    ______ ____
ROOT
ATOM      1  N   UNL     1       1.471  -2.526   2.420  0.00  0.00    -0.242 N 
ATOM      2  C   UNL     1       2.791  -2.744   2.436  0.00  0.00    +0.227 C 
ATOM      3  O   UNL     1       3.541  -2.571   1.499  0.00  0.00    -0.275 OA
ATOM      4  C   UNL     1       3.203  -3.239   3.804  0.00  0.00    +0.107 C 
ATOM      5  C   UNL     1       3.646  -4.714   3.695  0.00  0.00    +0.072 C 
ATOM      6  N   UNL     1       2.970  -5.399   4.829  0.00  0.00    -0.295 NA
ATOM      7  C   UNL     1       1.638  -4.769   4.890  0.00  0.00    +0.136 C 
ATOM      8  C   UNL     1       1.863  -3.266   4.593  0.00  0.00    +0.122 C 
ATOM      9  C   UNL     1       0.852  -2.782   3.578  0.00  0.00    +0.228 C 
ATOM     10  O   UNL     1      -0.336  -2.649   3.782  0.00  0.00    -0.275 OA
ATOM     11  C   UNL     1       0.996  -4.971   6.234  0.00  0.00    +0.004 A 
ATOM     12  C   UNL     1       1.357  -4.629   7.518  0.00  0.00    +0.023 A 
ATOM     13  C   UNL     1       0.535  -4.963   8.581  0.00  0.00    +0.018 A 
ATOM     14  C   UNL     1      -0.649  -5.639   8.348  0.00  0.00    +0.017 A 
ATOM     15  C   UNL     1      -1.015  -5.981   7.063  0.00  0.00    +0.025 A 
ATOM     16  C   UNL     1      -0.194  -5.650   5.989  0.00  0.00    +0.039 A 
ATOM     17  N   UNL     1      -0.344  -5.882   4.619  0.00  0.00    -0.283 N 
ATOM     18  C   UNL     1       0.690  -5.396   3.905  0.00  0.00    +0.243 C 
ATOM     19  O   UNL     1       0.828  -5.452   2.701  0.00  0.00    -0.273 OA
ATOM     20 BR   UNL     1       1.030  -4.496  10.345  0.00  0.00    -0.050 Br
ATOM     21  H   UNL     1       2.894  -6.391   4.658  0.00  0.00    +0.124 HD
ATOM     22  H   UNL     1      -1.104  -6.341   4.228  0.00  0.00    +0.155 HD
ENDROOT
BRANCH   1  23
ATOM     23  C   UNL     1       0.763  -2.041   1.233  0.00  0.00    +0.116 C 
BRANCH  23  24
ATOM     24  C   UNL     1       0.742  -0.511   1.242  0.00  0.00    +0.019 C 
BRANCH  24  26
ATOM     25  C   UNL     1      -0.019   1.526   0.010  0.00  0.00    +0.004 C 
ATOM     26  C   UNL     1       0.002  -0.004   0.002  0.00  0.00    -0.002 C 
ENDBRANCH  24  26
ENDBRANCH  23  24
ENDBRANCH   1  23
BRANCH   5  27
ATOM     27  C   UNL     1       5.165  -4.825   3.832  0.00  0.00    +0.054 C 
BRANCH  27  28
ATOM     28  C   UNL     1       5.588  -6.253   3.601  0.00  0.00    -0.046 A 
ATOM     29  C   UNL     1       5.654  -7.134   4.665  0.00  0.00    +0.007 A 
ATOM     30  C   UNL     1       6.041  -8.443   4.456  0.00  0.00    +0.045 A 
ATOM     31  C   UNL     1       6.363  -8.874   3.177  0.00  0.00    +0.117 A 
ATOM     32  C   UNL     1       6.295  -7.989   2.111  0.00  0.00    +0.045 A 
ATOM     33  C   UNL     1       5.903  -6.682   2.325  0.00  0.00    +0.007 A 
BRANCH  31  34
ATOM     34  O   UNL     1       6.744 -10.162   2.969  0.00  0.00    -0.507 OA
ATOM     35  H   UNL     1       6.012 -10.762   2.773  0.00  0.00    +0.292 HD
ENDBRANCH  31  34
ENDBRANCH  27  28
ENDBRANCH   5  27
TORSDOF 6
