REMARK  Name = ZINC42009534
REMARK  8 active torsions:
REMARK  status: ('A' for Active; 'I' for Inactive)
REMARK    1  A    between atoms: C_1  and  C_2
REMARK    2  A    between atoms: C_2  and  C_3
REMARK    3  A    between atoms: C_6  and  C_9
REMARK    4  A    between atoms: C_9  and  C_10
REMARK    5  A    between atoms: C_9  and  C_11
REMARK    6  A    between atoms: C_9  and  S_14
REMARK    7  A    between atoms: S_14  and  C_15
REMARK    8  A    between atoms: C_18  and  N_21
REMARK                            x       y       z     vdW  Elec       q    Type
REMARK                         _______ _______ _______ _____ _____    ______ ____
ROOT
ATOM      1  C   UNL     1       2.707  -1.868  -4.752  0.00  0.00    +0.145 C 
ATOM      2  C   UNL     1       4.200  -2.025  -4.461  0.00  0.00    +0.040 C 
ENDROOT
BRANCH   1   6
ATOM      3  C   UNL     1       0.707  -0.490  -1.238  0.00  0.00    -0.048 A 
ATOM      4  C   UNL     1      -0.011  -0.719  -2.397  0.00  0.00    +0.004 A 
ATOM      5  C   UNL     1       0.636  -1.164  -3.534  0.00  0.00    +0.006 A 
ATOM      6  C   UNL     1       2.002  -1.381  -3.513  0.00  0.00    -0.021 A 
ATOM      7  C   UNL     1       2.720  -1.152  -2.354  0.00  0.00    +0.006 A 
ATOM      8  C   UNL     1       2.073  -0.702  -1.218  0.00  0.00    +0.004 A 
BRANCH   3  10
ATOM      9  C   UNL     1      -0.019   1.526   0.010  0.00  0.00    +0.009 C 
ATOM     10  C   UNL     1       0.002  -0.004   0.002  0.00  0.00    +0.032 C 
ENDBRANCH   3  10
ENDBRANCH   1   6
BRANCH   1  11
ATOM     11  C   UNL     1       2.133  -3.199  -5.167  0.00  0.00    +0.376 C 
ATOM     12  O   UNL     1       1.616  -3.325  -6.263  0.00  0.00    -0.244 OA
ATOM     13  O   UNL     1       2.186  -4.149  -4.405  0.00  0.00    -0.244 OA
ENDBRANCH   1  11
BRANCH   1  14
ATOM     14  S   UNL     1       2.475  -0.666  -6.091  0.00  0.00    -0.083 S 
BRANCH  14  15
ATOM     15  C   UNL     1       3.346  -1.371  -7.451  0.00  0.00    +0.098 A 
ATOM     16  C   UNL     1       3.383  -0.696  -8.668  0.00  0.00    +0.036 A 
ATOM     17  C   UNL     1       4.070  -1.257  -9.729  0.00  0.00    +0.027 A 
ATOM     18  C   UNL     1       4.702  -2.485  -9.536  0.00  0.00    +0.043 A 
ATOM     19  C   UNL     1       4.623  -3.099  -8.296  0.00  0.00    +0.134 A 
ATOM     20  N   UNL     1       3.963  -2.532  -7.303  0.00  0.00    -0.247 NA
BRANCH  18  21
ATOM     21  N   UNL     1       5.409  -3.091 -10.583  0.00  0.00    -0.357 N 
ATOM     22  H   UNL     1       5.460  -2.656 -11.448  0.00  0.00    +0.142 HD
ATOM     23  H   UNL     1       5.846  -3.945 -10.442  0.00  0.00    +0.142 HD
ENDBRANCH  18  21
ENDBRANCH  14  15
ENDBRANCH   1  14
TORSDOF 6
