REMARK  Name = ZINC09331849
REMARK  5 active torsions:
REMARK  status: ('A' for Active; 'I' for Inactive)
REMARK    1  A    between atoms: C_9  and  O_31
REMARK    2  A    between atoms: C_10  and  C_11
REMARK    3  A    between atoms: N_12  and  N_13
REMARK    4  A    between atoms: C_14  and  C_16
REMARK    5  A    between atoms: C_18  and  C_22
REMARK                            x       y       z     vdW  Elec       q    Type
REMARK                         _______ _______ _______ _____ _____    ______ ____
ROOT
ATOM      1  N   UNL     1       7.321   0.148  -0.068  0.00  0.00    -0.202 N 
ATOM      2  C   UNL     1       8.490  -0.523  -0.082  0.00  0.00    +0.281 C 
ATOM      3  O   UNL     1       8.492  -1.740  -0.087  0.00  0.00    -0.267 OA
ATOM      4  H   UNL     1       7.319   1.118  -0.063  0.00  0.00    +0.178 HD
ENDROOT
BRANCH   2   5
ATOM      5  C   UNL     1       9.762   0.215  -0.091  0.00  0.00    +0.122 A 
ATOM      6  C   UNL     1      11.034  -0.327  -0.111  0.00  0.00    +0.062 A 
ATOM      7  C   UNL     1      11.907   0.775  -0.113  0.00  0.00    +0.093 A 
ATOM      8  N   UNL     1      11.171   1.866  -0.095  0.00  0.00    -0.173 NA
ATOM      9  N   UNL     1       9.921   1.572  -0.087  0.00  0.00    -0.272 N 
ATOM     10  H   UNL     1       9.197   2.218  -0.078  0.00  0.00    +0.189 HD
BRANCH   7  11
ATOM     11  C   UNL     1      13.390   0.719  -0.131  0.00  0.00    +0.006 A 
ATOM     12  C   UNL     1      14.042  -0.513  -0.155  0.00  0.00    +0.014 A 
ATOM     13  C   UNL     1      15.421  -0.564  -0.172  0.00  0.00    +0.050 A 
ATOM     14  C   UNL     1      16.162   0.607  -0.166  0.00  0.00    +0.166 A 
ATOM     15  C   UNL     1      15.516   1.842  -0.142  0.00  0.00    +0.167 A 
ATOM     16  C   UNL     1      14.134   1.897  -0.131  0.00  0.00    +0.059 A 
ATOM     17  O   UNL     1      16.460   2.828  -0.141  0.00  0.00    -0.453 OA
ATOM     18  C   UNL     1      17.688   2.185   0.249  0.00  0.00    +0.466 C 
ATOM     19  O   UNL     1      17.511   0.822  -0.179  0.00  0.00    -0.453 OA
ENDBRANCH   7  11
ENDBRANCH   2   5
BRANCH   1  21
ATOM     20  C   UNL     1       4.982   0.092  -0.045  0.00  0.00    +0.142 C 
ATOM     21  N   UNL     1       6.109  -0.555  -0.059  0.00  0.00    -0.187 NA
BRANCH  20  31
ATOM     22  C   UNL     1      -0.016   1.357   0.009  0.00  0.00    +0.001 A 
ATOM     23  C   UNL     1       1.167   2.091   0.002  0.00  0.00    +0.001 A 
ATOM     24  C   UNL     1       2.379   1.466  -0.013  0.00  0.00    +0.009 A 
ATOM     25  C   UNL     1       2.435   0.067  -0.021  0.00  0.00    -0.006 A 
ATOM     26  C   UNL     1       1.233  -0.683  -0.013  0.00  0.00    -0.017 A 
ATOM     27  C   UNL     1       0.002  -0.004   0.002  0.00  0.00    +0.008 A 
ATOM     28  C   UNL     1       1.291  -2.087  -0.020  0.00  0.00    +0.012 A 
ATOM     29  C   UNL     1       2.487  -2.733  -0.034  0.00  0.00    +0.046 A 
ATOM     30  C   UNL     1       3.696  -2.040  -0.042  0.00  0.00    +0.126 A 
ATOM     31  C   UNL     1       3.711  -0.645  -0.036  0.00  0.00    +0.044 A 
BRANCH  30  32
ATOM     32  O   UNL     1       4.868  -2.727  -0.054  0.00  0.00    -0.506 OA
ATOM     33  H   UNL     1       5.199  -2.922  -0.942  0.00  0.00    +0.292 HD
ENDBRANCH  30  32
ENDBRANCH  20  31
ENDBRANCH   1  21
TORSDOF 5
