REMARK  Name = ZINC37605209
REMARK  2 active torsions:
REMARK  status: ('A' for Active; 'I' for Inactive)
REMARK    1  A    between atoms: C_4  and  N_16
REMARK    2  A    between atoms: C_6  and  C_7
REMARK                            x       y       z     vdW  Elec       q    Type
REMARK                         _______ _______ _______ _____ _____    ______ ____
ROOT
ATOM      1  C   UNL     1      -0.008   1.378   0.196  0.00  0.00    +0.014 A 
ATOM      2  C   UNL     1       1.178   2.085   0.188  0.00  0.00    +0.041 A 
ATOM      3  C   UNL     1       2.379   1.427  -0.012  0.00  0.00    +0.144 A 
ATOM      4  C   UNL     1       2.398   0.049  -0.206  0.00  0.00    +0.061 A 
ATOM      5  C   UNL     1       1.213  -0.668  -0.200  0.00  0.00    +0.037 A 
ATOM      6  C   UNL     1       0.002  -0.004   0.002  0.00  0.00    +0.022 A 
ATOM      7  F   UNL     1       3.536   2.125  -0.018  0.00  0.00    -0.204 F 
ENDROOT
BRANCH   6   8
ATOM      8  C   UNL     1      -1.266  -0.762   0.011  0.00  0.00    +0.169 A 
ATOM      9  N   UNL     1      -1.400  -2.063   0.195  0.00  0.00    -0.128 NA
ATOM     10  N   UNL     1      -2.643  -2.393   0.141  0.00  0.00    -0.127 NA
ATOM     11  C   UNL     1      -3.380  -1.318  -0.082  0.00  0.00    +0.180 A 
ATOM     12  N   UNL     1      -2.515  -0.249  -0.165  0.00  0.00    -0.280 N 
ATOM     13  C   UNL     1      -3.019   1.000  -0.387  0.00  0.00    +0.114 A 
ATOM     14  C   UNL     1      -4.353   1.168  -0.519  0.00  0.00    +0.129 A 
ATOM     15  N   UNL     1      -5.194   0.135  -0.436  0.00  0.00    -0.258 NA
ATOM     16  C   UNL     1      -4.760  -1.087  -0.232  0.00  0.00    +0.159 A 
ENDBRANCH   6   8
BRANCH   4  17
ATOM     17  N   UNL     1       3.614  -0.612  -0.409  0.00  0.00    -0.356 N 
ATOM     18  H   UNL     1       4.444  -0.110  -0.414  0.00  0.00    +0.142 HD
ATOM     19  H   UNL     1       3.627  -1.573  -0.545  0.00  0.00    +0.142 HD
ENDBRANCH   4  17
TORSDOF 2
