REMARK  Name = ZINC04236485
REMARK  10 active torsions:
REMARK  status: ('A' for Active; 'I' for Inactive)
REMARK    1  A    between atoms: C_1  and  C_2
REMARK    2  A    between atoms: C_2  and  O_3
REMARK    3  A    between atoms: O_3  and  C_4
REMARK    4  A    between atoms: C_4  and  C_6
REMARK    5  A    between atoms: C_10  and  N_12
REMARK    6  A    between atoms: C_13  and  O_15
REMARK    7  A    between atoms: O_15  and  C_16
REMARK    8  A    between atoms: C_26  and  N_28
REMARK    9  A    between atoms: N_28  and  C_29
REMARK   10  A    between atoms: C_29  and  C_30
REMARK                            x       y       z     vdW  Elec       q    Type
REMARK                         _______ _______ _______ _____ _____    ______ ____
ROOT
ATOM      1  C   UNL     1       3.427  -7.897  -6.572  0.00  0.00    +0.235 C 
ATOM      2  C   UNL     1       2.342  -8.095  -7.660  0.00  0.00    +0.207 C 
ATOM      3  O   UNL     1       2.889  -9.073  -8.559  0.00  0.00    -0.372 OA
ATOM      4  C   UNL     1       3.837  -9.895  -7.873  0.00  0.00    +0.139 C 
ATOM      5  C   UNL     1       3.979  -9.340  -6.428  0.00  0.00    +0.188 C 
ATOM      6  O   UNL     1       3.040 -10.105  -5.645  0.00  0.00    -0.372 OA
ATOM      7  C   UNL     1       3.130 -11.457  -6.142  0.00  0.00    +0.147 C 
ATOM      8  C   UNL     1       3.253 -11.312  -7.693  0.00  0.00    -0.014 C 
ENDROOT
BRANCH   8   9
ATOM      9  N   UNL     1       4.171 -12.319  -8.244  0.00  0.00    +0.384 N 
ATOM     10  H   UNL     1       4.375 -12.097  -9.206  0.00  0.00    -0.085 HD
ATOM     11  H   UNL     1       5.027 -12.322  -7.710  0.00  0.00    -0.085 HD
BRANCH   9  12
ATOM     12  C   UNL     1       3.543 -13.646  -8.170  0.00  0.00    -0.079 C 
BRANCH  12  13
ATOM     13  C   UNL     1       4.499 -14.694  -8.744  0.00  0.00    -0.028 C 
ATOM     14  C   UNL     1       4.711 -14.429 -10.235  0.00  0.00    +0.002 C 
ATOM     15  C   UNL     1       5.667 -15.477 -10.809  0.00  0.00    +0.000 C 
ATOM     16  C   UNL     1       5.067 -16.872 -10.619  0.00  0.00    +0.000 C 
ATOM     17  C   UNL     1       4.854 -17.137  -9.127  0.00  0.00    +0.000 C 
ATOM     18  C   UNL     1       3.899 -16.089  -8.554  0.00  0.00    +0.002 C 
ENDBRANCH  12  13
ENDBRANCH   9  12
ENDBRANCH   8   9
BRANCH   1  19
ATOM     19  O   UNL     1       2.849  -7.443  -5.347  0.00  0.00    -0.442 OA
BRANCH  19  21
ATOM     20  N   UNL     1       2.307  -5.620  -3.997  0.00  0.00    -0.251 N 
ATOM     21  C   UNL     1       2.837  -6.114  -5.133  0.00  0.00    +0.405 C 
ATOM     22  O   UNL     1       3.304  -5.360  -5.963  0.00  0.00    -0.226 OA
ATOM     23  H   UNL     1       2.004  -6.223  -3.300  0.00  0.00    +0.158 HD
BRANCH  20  28
ATOM     24  C   UNL     1       1.835  -2.038  -4.734  0.00  0.00    +0.061 A 
ATOM     25  C   UNL     1       1.970  -1.492  -3.456  0.00  0.00    +0.015 A 
ATOM     26  C   UNL     1       2.214  -2.315  -2.377  0.00  0.00    +0.003 A 
ATOM     27  C   UNL     1       2.325  -3.682  -2.554  0.00  0.00    +0.023 A 
ATOM     28  C   UNL     1       2.192  -4.235  -3.822  0.00  0.00    +0.037 A 
ATOM     29  C   UNL     1       1.942  -3.417  -4.913  0.00  0.00    +0.038 A 
BRANCH  24  30
ATOM     30  C   UNL     1       1.573  -1.159  -5.893  0.00  0.00    +0.339 C 
ATOM     31  O   UNL     1       1.450  -1.637  -7.003  0.00  0.00    -0.245 OA
BRANCH  30  32
ATOM     32  O   UNL     1       1.470   0.173  -5.718  0.00  0.00    -0.461 OA
BRANCH  32  34
ATOM     33  C   UNL     1       1.132   2.439  -6.488  0.00  0.00    +0.048 C 
ATOM     34  C   UNL     1       1.216   0.963  -6.881  0.00  0.00    +0.229 C 
ENDBRANCH  32  34
ENDBRANCH  30  32
ENDBRANCH  24  30
ENDBRANCH  20  28
ENDBRANCH  19  21
ENDBRANCH   1  19
TORSDOF 9
