REMARK  Name = ZINC35770813
REMARK  13 active torsions:
REMARK  status: ('A' for Active; 'I' for Inactive)
REMARK    1  A    between atoms: C_1  and  C_2
REMARK    2  A    between atoms: C_2  and  O_3
REMARK    3  A    between atoms: O_3  and  C_4
REMARK    4  A    between atoms: C_4  and  C_6
REMARK    5  A    between atoms: C_7  and  C_22
REMARK    6  A    between atoms: C_12  and  C_14
REMARK    7  A    between atoms: C_17  and  O_20
REMARK    8  A    between atoms: O_20  and  C_21
REMARK    9  A    between atoms: C_22  and  N_23
REMARK   10  A    between atoms: N_23  and  C_24
REMARK   11  A    between atoms: N_23  and  C_30
REMARK   12  A    between atoms: C_24  and  C_25
REMARK   13  A    between atoms: C_30  and  C_31
REMARK                            x       y       z     vdW  Elec       q    Type
REMARK                         _______ _______ _______ _____ _____    ______ ____
ROOT
ATOM      1  C   UNL     1       1.904  -2.227   1.895  0.00  0.00    +0.076 C 
ATOM      2  C   UNL     1       1.717  -3.430   2.479  0.00  0.00    +0.008 C 
ATOM      3  N   UNL     1       2.282  -3.721   3.688  0.00  0.00    -0.274 N 
ATOM      4  C   UNL     1       3.046  -2.864   4.377  0.00  0.00    +0.304 C 
ATOM      5  O   UNL     1       3.505  -3.215   5.447  0.00  0.00    -0.252 OA
ATOM      6  N   UNL     1       3.322  -1.626   3.923  0.00  0.00    -0.288 N 
ATOM      7  C   UNL     1       2.765  -1.215   2.623  0.00  0.00    +0.143 C 
ATOM      8  H   UNL     1       2.120  -4.598   4.070  0.00  0.00    +0.156 HD
ATOM      9  H   UNL     1       3.878  -1.021   4.438  0.00  0.00    +0.151 HD
ENDROOT
BRANCH   7  10
ATOM     10  C   UNL     1       3.912  -0.844   1.718  0.00  0.00    -0.022 A 
ATOM     11  C   UNL     1       4.946  -1.738   1.511  0.00  0.00    +0.009 A 
ATOM     12  C   UNL     1       5.998  -1.399   0.682  0.00  0.00    +0.046 A 
ATOM     13  C   UNL     1       6.016  -0.161   0.056  0.00  0.00    +0.120 A 
ATOM     14  C   UNL     1       4.976   0.734   0.265  0.00  0.00    +0.046 A 
ATOM     15  C   UNL     1       3.924   0.389   1.091  0.00  0.00    +0.009 A 
BRANCH  13  16
ATOM     16  O   UNL     1       7.050   0.175  -0.759  0.00  0.00    -0.495 OA
ATOM     17  C   UNL     1       7.001   1.466  -1.370  0.00  0.00    +0.277 C 
ENDBRANCH  13  16
ENDBRANCH   7  10
BRANCH   1  18
ATOM     18  C   UNL     1       1.321  -1.924   0.642  0.00  0.00    +0.339 C 
ATOM     19  O   UNL     1       0.734  -2.789   0.019  0.00  0.00    -0.245 OA
BRANCH  18  20
ATOM     20  O   UNL     1       1.415  -0.676   0.138  0.00  0.00    -0.462 OA
BRANCH  20  22
ATOM     21  C   UNL     1       1.011   1.020  -1.536  0.00  0.00    +0.048 C 
ATOM     22  C   UNL     1       0.802  -0.441  -1.131  0.00  0.00    +0.229 C 
ENDBRANCH  20  22
ENDBRANCH  18  20
ENDBRANCH   1  18
BRANCH   2  23
ATOM     23  C   UNL     1       0.872  -4.468   1.786  0.00  0.00    -0.026 C 
BRANCH  23  24
ATOM     24  N   UNL     1       1.708  -5.239   0.856  0.00  0.00    +0.388 N 
ATOM     25  H   UNL     1       2.152  -4.611   0.203  0.00  0.00    -0.081 HD
BRANCH  24  26
ATOM     26  C   UNL     1       2.736  -5.968   1.611  0.00  0.00    -0.035 C 
BRANCH  26  27
ATOM     27  C   UNL     1       3.667  -6.660   0.650  0.00  0.00    -0.027 A 
ATOM     28  C   UNL     1       4.815  -6.201   0.094  0.00  0.00    +0.009 A 
ATOM     29  C   UNL     1       5.516  -7.021  -0.771  0.00  0.00    +0.008 A 
ATOM     30  C   UNL     1       5.034  -8.260  -1.037  0.00  0.00    +0.045 A 
ATOM     31  S   UNL     1       3.550  -8.301  -0.045  0.00  0.00    -0.103 S 
ENDBRANCH  26  27
ENDBRANCH  24  26
BRANCH  24  32
ATOM     32  C   UNL     1       0.868  -6.195   0.122  0.00  0.00    -0.046 C 
BRANCH  32  33
ATOM     33  C   UNL     1      -0.097  -5.433  -0.788  0.00  0.00    +0.102 C 
ATOM     34  C   UNL     1      -1.037  -6.427  -1.504  0.00  0.00    +0.032 C 
ATOM     35  C   UNL     1      -1.144  -5.812  -2.926  0.00  0.00    +0.030 C 
ATOM     36  C   UNL     1       0.277  -5.217  -3.097  0.00  0.00    +0.160 C 
ATOM     37  O   UNL     1       0.638  -4.727  -1.794  0.00  0.00    -0.378 OA
ENDBRANCH  32  33
ENDBRANCH  24  32
ENDBRANCH  23  24
ENDBRANCH   2  23
TORSDOF 11
