REMARK  Name = ZINC39595907
REMARK  7 active torsions:
REMARK  status: ('A' for Active; 'I' for Inactive)
REMARK    1  A    between atoms: C_1  and  C_2
REMARK    2  A    between atoms: C_2  and  C_4
REMARK    3  A    between atoms: C_2  and  O_28
REMARK    4  A    between atoms: C_4  and  N_5
REMARK    5  A    between atoms: C_6  and  C_8
REMARK    6  A    between atoms: C_19  and  C_21
REMARK    7  A    between atoms: O_28  and  C_29
REMARK                            x       y       z     vdW  Elec       q    Type
REMARK                         _______ _______ _______ _____ _____    ______ ____
ROOT
ATOM      1  C   UNL     1      -0.889  -4.912   1.347  0.00  0.00    +0.100 C 
ATOM      2  C   UNL     1      -0.197  -5.073   2.719  0.00  0.00    +0.121 C 
ATOM      3  N   UNL     1      -1.226  -5.691   3.587  0.00  0.00    -0.296 N 
ATOM      4  C   UNL     1      -1.908  -6.672   2.710  0.00  0.00    +0.115 C 
ATOM      5  C   UNL     1      -2.010  -5.965   1.344  0.00  0.00    -0.004 C 
ATOM      6  C   UNL     1      -1.791  -6.966   0.213  0.00  0.00    -0.010 C 
ATOM      7  C   UNL     1      -2.948  -7.969   0.194  0.00  0.00    -0.082 C 
ATOM      8  N   UNL     1      -4.215  -7.253   0.002  0.00  0.00    +0.379 N 
ATOM      9  C   UNL     1      -4.463  -6.360   1.140  0.00  0.00    -0.082 C 
ATOM     10  C   UNL     1      -3.370  -5.290   1.200  0.00  0.00    -0.010 C 
ATOM     11  C   UNL     1      -1.483  -5.422   4.883  0.00  0.00    +0.247 C 
ATOM     12  O   UNL     1      -0.906  -4.509   5.440  0.00  0.00    -0.270 OA
ATOM     13  H   UNL     1      -4.167  -6.709  -0.846  0.00  0.00    -0.086 HD
ATOM     14  H   UNL     1      -4.968  -7.920  -0.071  0.00  0.00    -0.086 HD
ENDROOT
BRANCH  11  15
ATOM     15  C   UNL     1      -2.467  -6.238   5.626  0.00  0.00    +0.038 A 
ATOM     16  C   UNL     1      -2.795  -7.519   5.179  0.00  0.00    +0.013 A 
ATOM     17  C   UNL     1      -3.714  -8.276   5.877  0.00  0.00    +0.002 A 
ATOM     18  C   UNL     1      -4.310  -7.768   7.017  0.00  0.00    +0.020 A 
ATOM     19  C   UNL     1      -3.990  -6.498   7.466  0.00  0.00    +0.042 A 
ATOM     20  C   UNL     1      -3.068  -5.732   6.779  0.00  0.00    +0.033 A 
ATOM     21 CL   UNL     1      -4.743  -5.869   8.898  0.00  0.00    -0.084 Cl
ENDBRANCH  11  15
BRANCH   1  23
ATOM     22  N   UNL     1      -1.601  -2.967  -0.006  0.00  0.00    -0.312 N 
ATOM     23  C   UNL     1      -1.470  -3.527   1.212  0.00  0.00    +0.218 C 
ATOM     24  O   UNL     1      -1.821  -2.918   2.201  0.00  0.00    -0.275 OA
ATOM     25  H   UNL     1      -1.321  -3.454  -0.797  0.00  0.00    +0.149 HD
BRANCH  22  26
ATOM     26  C   UNL     1      -2.166  -1.622  -0.137  0.00  0.00    +0.148 C 
BRANCH  26  28
ATOM     27  C   UNL     1      -2.792   0.180  -1.751  0.00  0.00    +0.053 C 
ATOM     28  C   UNL     1      -2.202  -1.225  -1.615  0.00  0.00    +0.187 C 
BRANCH  28  29
ATOM     29  O   UNL     1      -0.875  -1.239  -2.144  0.00  0.00    -0.488 OA
BRANCH  29  30
ATOM     30  C   UNL     1      -0.747  -1.432  -3.484  0.00  0.00    +0.121 A 
ATOM     31  C   UNL     1       0.512  -1.577  -4.047  0.00  0.00    +0.048 A 
ATOM     32  C   UNL     1       0.640  -1.774  -5.409  0.00  0.00    +0.042 A 
ATOM     33  C   UNL     1      -0.487  -1.826  -6.211  0.00  0.00    +0.124 A 
ATOM     34  C   UNL     1      -1.744  -1.681  -5.650  0.00  0.00    +0.042 A 
ATOM     35  C   UNL     1      -1.876  -1.490  -4.288  0.00  0.00    +0.048 A 
ATOM     36  F   UNL     1      -0.360  -2.018  -7.542  0.00  0.00    -0.205 F 
ENDBRANCH  29  30
ENDBRANCH  28  29
ENDBRANCH  26  28
ENDBRANCH  22  26
ENDBRANCH   1  23
TORSDOF 6
