REMARK  Name = ZINC20480315
REMARK  5 active torsions:
REMARK  status: ('A' for Active; 'I' for Inactive)
REMARK    1  A    between atoms: C_4  and  S_10
REMARK    2  A    between atoms: C_5  and  C_7
REMARK    3  A    between atoms: C_7  and  N_9
REMARK    4  A    between atoms: S_10  and  N_13
REMARK    5  A    between atoms: N_13  and  C_14
REMARK                            x       y       z     vdW  Elec       q    Type
REMARK                         _______ _______ _______ _____ _____    ______ ____
ROOT
ATOM      1  S   UNL     1      -3.746   2.795  -0.906  0.00  0.00    +0.073 S 
ATOM      2  O   UNL     1      -4.934   2.026  -0.784  0.00  0.00    -0.150 OA
ATOM      3  O   UNL     1      -3.698   4.179  -0.589  0.00  0.00    -0.150 OA
ENDROOT
BRANCH   1   7
ATOM      4  C   UNL     1      -2.387   2.404  -5.217  0.00  0.00    +0.001 A 
ATOM      5  C   UNL     1      -3.558   1.800  -4.795  0.00  0.00    +0.002 A 
ATOM      6  C   UNL     1      -3.969   1.915  -3.479  0.00  0.00    +0.029 A 
ATOM      7  C   UNL     1      -3.217   2.643  -2.580  0.00  0.00    +0.118 A 
ATOM      8  C   UNL     1      -2.034   3.256  -2.999  0.00  0.00    +0.030 A 
ATOM      9  C   UNL     1      -1.623   3.131  -4.328  0.00  0.00    +0.012 A 
BRANCH   8  10
ATOM     10  C   UNL     1      -1.222   4.031  -2.041  0.00  0.00    +0.079 C 
ATOM     11  S   UNL     1      -0.032   3.244  -1.094  0.00  0.00    -0.035 S 
BRANCH  10  12
ATOM     12  N   UNL     1      -1.416   5.359  -1.912  0.00  0.00    -0.352 N 
ATOM     13  H   UNL     1      -0.811   5.936  -1.198  0.00  0.00    +0.143 HD
ATOM     14  H   UNL     1      -2.181   5.864  -2.521  0.00  0.00    +0.143 HD
ENDBRANCH  10  12
ENDBRANCH   8  10
ENDBRANCH   1   7
BRANCH   1  15
ATOM     15  N   UNL     1      -2.604   2.054   0.036  0.00  0.00    -0.215 N 
ATOM     16  H   UNL     1      -1.968   2.653   0.704  0.00  0.00    +0.174 HD
BRANCH  15  17
ATOM     17  C   UNL     1      -2.448   0.666  -0.016  0.00  0.00    +0.061 A 
ATOM     18  C   UNL     1      -2.617  -0.008  -1.219  0.00  0.00    +0.025 A 
ATOM     19  C   UNL     1      -2.467  -1.380  -1.266  0.00  0.00    +0.002 A 
ATOM     20  C   UNL     1      -2.145  -2.083  -0.119  0.00  0.00    +0.001 A 
ATOM     21  C   UNL     1      -1.971  -1.414   1.078  0.00  0.00    +0.016 A 
ATOM     22  C   UNL     1      -2.119  -0.042   1.133  0.00  0.00    +0.036 A 
ATOM     23  I   UNL     1      -1.857   0.970   2.949  0.00  0.00    -0.042 I 
ENDBRANCH  15  17
ENDBRANCH   1  15
TORSDOF 5
