REMARK  Name = ZINC08876676
REMARK  4 active torsions:
REMARK  status: ('A' for Active; 'I' for Inactive)
REMARK    1  A    between atoms: C_1  and  C_2
REMARK    2  A    between atoms: C_5  and  C_8
REMARK    3  A    between atoms: C_8  and  C_10
REMARK    4  A    between atoms: C_32  and  C_37
REMARK                            x       y       z     vdW  Elec       q    Type
REMARK                         _______ _______ _______ _____ _____    ______ ____
ROOT
ATOM      1  C   UNL     1      -4.184   3.186   4.602  0.00  0.00    +0.066 C 
ATOM      2  C   UNL     1      -4.459   4.612   4.058  0.00  0.00    -0.055 C 
ATOM      3  C   UNL     1      -4.588   4.543   2.526  0.00  0.00    -0.016 C 
ATOM      4  C   UNL     1      -6.076   4.255   2.248  0.00  0.00    -0.020 C 
ATOM      5  C   UNL     1      -6.730   4.144   3.642  0.00  0.00    -0.076 C 
ATOM      6  C   UNL     1      -5.908   4.319   5.909  0.00  0.00    +0.060 C 
ATOM      7  C   UNL     1      -4.861   3.212   5.984  0.00  0.00    +0.085 C 
ATOM      8  C   UNL     1      -3.858   3.460   7.075  0.00  0.00    -0.011 A 
ATOM      9  C   UNL     1      -2.984   4.490   7.343  0.00  0.00    +0.006 A 
ATOM     10  C   UNL     1      -2.164   4.430   8.456  0.00  0.00    +0.000 A 
ATOM     11  C   UNL     1      -2.223   3.333   9.297  0.00  0.00    +0.002 A 
ATOM     12  C   UNL     1      -3.097   2.300   9.032  0.00  0.00    +0.023 A 
ATOM     13  C   UNL     1      -3.927   2.352   7.915  0.00  0.00    +0.038 A 
ATOM     14  N   UNL     1      -4.881   1.448   7.443  0.00  0.00    -0.285 N 
ATOM     15  C   UNL     1      -5.475   1.879   6.313  0.00  0.00    +0.228 C 
ATOM     16  O   UNL     1      -6.338   1.304   5.684  0.00  0.00    -0.275 OA
ATOM     17  C   UNL     1      -7.288   3.794   6.200  0.00  0.00    -0.026 A 
ATOM     18  C   UNL     1      -8.076   2.834   5.606  0.00  0.00    +0.004 A 
ATOM     19  C   UNL     1      -9.337   2.566   6.111  0.00  0.00    +0.001 A 
ATOM     20  C   UNL     1      -9.800   3.263   7.211  0.00  0.00    +0.005 A 
ATOM     21  C   UNL     1      -9.012   4.226   7.809  0.00  0.00    -0.029 A 
ATOM     22  C   UNL     1      -7.743   4.502   7.306  0.00  0.00    +0.039 A 
ATOM     23  N   UNL     1      -6.774   5.416   7.726  0.00  0.00    -0.286 N 
ATOM     24  C   UNL     1      -5.669   5.373   6.960  0.00  0.00    +0.212 C 
ATOM     25  O   UNL     1      -4.672   6.051   7.090  0.00  0.00    -0.277 OA
ATOM     26  C   UNL     1      -9.527   4.979   9.008  0.00  0.00    +0.045 C 
ATOM     27  H   UNL     1      -5.091   0.606   7.878  0.00  0.00    +0.155 HD
ATOM     28  H   UNL     1      -6.885   6.013   8.483  0.00  0.00    +0.155 HD
ATOM     29  N   UNL     1      -5.808   4.858   4.536  0.00  0.00    +0.395 N 
ATOM     30  H   UNL     1      -6.018   5.864   4.534  0.00  0.00    -0.079 HD
ENDROOT
BRANCH   1  31
ATOM     31  C   UNL     1      -2.703   2.942   4.737  0.00  0.00    +0.166 C 
ATOM     32  O   UNL     1      -1.936   3.879   4.790  0.00  0.00    -0.292 OA
BRANCH  31  37
ATOM     33  C   UNL     1      -0.690  -2.437   5.000  0.00  0.00    +0.044 C 
ATOM     34  C   UNL     1      -1.218  -1.027   4.932  0.00  0.00    -0.050 A 
ATOM     35  C   UNL     1      -2.562  -0.806   4.685  0.00  0.00    +0.004 A 
ATOM     36  C   UNL     1      -3.053   0.481   4.625  0.00  0.00    +0.011 A 
ATOM     37  C   UNL     1      -2.188   1.565   4.805  0.00  0.00    +0.018 A 
ATOM     38  C   UNL     1      -0.830   1.333   5.049  0.00  0.00    +0.011 A 
ATOM     39  C   UNL     1      -0.355   0.040   5.111  0.00  0.00    +0.004 A 
ENDBRANCH  31  37
ENDBRANCH   1  31
TORSDOF 2
