REMARK  Name = ZINC03281920
REMARK  7 active torsions:
REMARK  status: ('A' for Active; 'I' for Inactive)
REMARK    1  A    between atoms: C_1  and  C_2
REMARK    2  A    between atoms: C_5  and  N_11
REMARK    3  A    between atoms: C_7  and  C_9
REMARK    4  A    between atoms: C_7  and  C_10
REMARK    5  A    between atoms: N_11  and  N_12
REMARK    6  A    between atoms: C_13  and  C_15
REMARK    7  A    between atoms: C_18  and  N_21
REMARK                            x       y       z     vdW  Elec       q    Type
REMARK                         _______ _______ _______ _____ _____    ______ ____
ROOT
ATOM      1  N   UNL     1      -2.589  -4.129   0.098  0.00  0.00    -0.233 N 
ATOM      2  C   UNL     1      -3.671  -4.833  -0.289  0.00  0.00    +0.260 C 
ATOM      3  O   UNL     1      -4.640  -4.256  -0.744  0.00  0.00    -0.269 OA
ATOM      4  H   UNL     1      -1.816  -4.589   0.461  0.00  0.00    +0.173 HD
ENDROOT
BRANCH   2   5
ATOM      5  C   UNL     1      -3.680  -6.306  -0.160  0.00  0.00    +0.038 A 
ATOM      6  C   UNL     1      -2.572  -6.970   0.367  0.00  0.00    +0.015 A 
ATOM      7  C   UNL     1      -2.587  -8.344   0.485  0.00  0.00    +0.033 A 
ATOM      8  C   UNL     1      -3.698  -9.064   0.081  0.00  0.00    +0.126 A 
ATOM      9  C   UNL     1      -4.800  -8.412  -0.443  0.00  0.00    +0.033 A 
ATOM     10  C   UNL     1      -4.800  -7.037  -0.561  0.00  0.00    +0.015 A 
BRANCH   8  11
ATOM     11  N   UNL     1      -3.707 -10.539   0.210  0.00  0.00    +0.056 N 
ATOM     12  O   UNL     1      -2.745 -11.111   0.667  0.00  0.00    -0.126 OA
ATOM     13  O   UNL     1      -4.675 -11.170  -0.142  0.00  0.00    -0.126 OA
ENDBRANCH   8  11
ENDBRANCH   2   5
BRANCH   1  14
ATOM     14  N   UNL     1      -2.580  -2.733  -0.024  0.00  0.00    -0.269 N 
ATOM     15  H   UNL     1      -3.378  -2.267  -0.318  0.00  0.00    +0.170 HD
BRANCH  14  19
ATOM     16  C   UNL     1      -0.013   1.523  -0.004  0.00  0.00    +0.008 C 
ATOM     17  C   UNL     1       0.005  -0.007  -0.005  0.00  0.00    -0.008 C 
ATOM     18  C   UNL     1      -1.429  -0.539   0.015  0.00  0.00    +0.055 C 
ATOM     19  C   UNL     1      -1.429  -2.017   0.277  0.00  0.00    +0.019 C 
ATOM     20  C   UNL     1      -0.412  -2.670   0.769  0.00  0.00    -0.001 C 
ATOM     21  C   UNL     1       0.897  -2.031   1.131  0.00  0.00    -0.015 C 
ATOM     22  C   UNL     1       0.734  -0.515   1.246  0.00  0.00    +0.014 C 
ATOM     23  C   UNL     1       1.932  -2.345   0.048  0.00  0.00    +0.015 C 
ATOM     24  C   UNL     1       1.382  -2.592   2.470  0.00  0.00    +0.015 C 
ENDBRANCH  14  19
ENDBRANCH   1  14
TORSDOF 4
