REMARK  Name = ZINC39636111
REMARK  5 active torsions:
REMARK  status: ('A' for Active; 'I' for Inactive)
REMARK    1  A    between atoms: C_1  and  C_2
REMARK    2  A    between atoms: C_8  and  N_10
REMARK    3  A    between atoms: C_11  and  C_13
REMARK    4  A    between atoms: C_24  and  C_26
REMARK    5  A    between atoms: C_29  and  C_31
REMARK                            x       y       z     vdW  Elec       q    Type
REMARK                         _______ _______ _______ _____ _____    ______ ____
ROOT
ATOM      1  C   UNL     1       0.033   0.579   4.842  0.00  0.00    +0.100 C 
ATOM      2  C   UNL     1      -0.380   2.060   4.681  0.00  0.00    +0.121 C 
ATOM      3  N   UNL     1      -0.172   2.654   6.023  0.00  0.00    -0.294 N 
ATOM      4  C   UNL     1       1.081   2.031   6.512  0.00  0.00    +0.115 C 
ATOM      5  C   UNL     1       0.992   0.565   6.044  0.00  0.00    -0.004 C 
ATOM      6  C   UNL     1       0.428  -0.312   7.159  0.00  0.00    -0.010 C 
ATOM      7  C   UNL     1       1.425  -0.356   8.320  0.00  0.00    -0.082 C 
ATOM      8  N   UNL     1       2.706  -0.894   7.847  0.00  0.00    +0.379 N 
ATOM      9  C   UNL     1       3.286   0.003   6.841  0.00  0.00    -0.082 C 
ATOM     10  C   UNL     1       2.368   0.063   5.617  0.00  0.00    -0.010 C 
ATOM     11  C   UNL     1      -0.947   3.557   6.655  0.00  0.00    +0.282 C 
ATOM     12  O   UNL     1      -0.639   3.953   7.764  0.00  0.00    -0.267 OA
ATOM     13  H   UNL     1       3.342  -0.980   8.626  0.00  0.00    -0.086 HD
ATOM     14  H   UNL     1       2.556  -1.804   7.438  0.00  0.00    -0.086 HD
ENDROOT
BRANCH  11  15
ATOM     15  C   UNL     1      -2.159   4.063   6.007  0.00  0.00    +0.190 A 
ATOM     16  C   UNL     1      -3.034   4.987   6.536  0.00  0.00    +0.055 A 
ATOM     17  C   UNL     1      -4.043   5.178   5.587  0.00  0.00    +0.050 A 
ATOM     18  C   UNL     1      -3.751   4.372   4.524  0.00  0.00    +0.136 A 
ATOM     19  O   UNL     1      -2.612   3.710   4.785  0.00  0.00    -0.450 OA
BRANCH  18  20
ATOM     20  C   UNL     1      -4.552   4.252   3.289  0.00  0.00    +0.017 A 
ATOM     21  C   UNL     1      -5.717   5.007   3.133  0.00  0.00    +0.014 A 
ATOM     22  C   UNL     1      -6.460   4.892   1.978  0.00  0.00    +0.039 A 
ATOM     23  C   UNL     1      -6.054   4.029   0.972  0.00  0.00    +0.123 A 
ATOM     24  C   UNL     1      -4.899   3.277   1.122  0.00  0.00    +0.039 A 
ATOM     25  C   UNL     1      -4.145   3.388   2.270  0.00  0.00    +0.014 A 
ATOM     26  F   UNL     1      -6.787   3.920  -0.158  0.00  0.00    -0.205 F 
ENDBRANCH  18  20
ENDBRANCH  11  15
BRANCH   1  28
ATOM     27  N   UNL     1       0.674  -1.208   3.257  0.00  0.00    -0.312 N 
ATOM     28  C   UNL     1       0.738   0.093   3.602  0.00  0.00    +0.218 C 
ATOM     29  O   UNL     1       1.363   0.873   2.915  0.00  0.00    -0.275 OA
ATOM     30  H   UNL     1       0.174  -1.832   3.807  0.00  0.00    +0.149 HD
BRANCH  27  37
ATOM     31  C   UNL     1      -0.787  -2.636   1.204  0.00  0.00    +0.009 C 
ATOM     32  C   UNL     1       0.673  -2.947   1.538  0.00  0.00    +0.006 C 
ATOM     33  C   UNL     1       1.389  -3.441   0.279  0.00  0.00    +0.005 C 
ATOM     34  C   UNL     1       2.850  -3.752   0.612  0.00  0.00    +0.000 C 
ATOM     35  C   UNL     1       3.537  -2.485   1.126  0.00  0.00    +0.002 C 
ATOM     36  C   UNL     1       2.821  -1.992   2.385  0.00  0.00    +0.022 C 
ATOM     37  C   UNL     1       1.360  -1.681   2.052  0.00  0.00    +0.076 C 
ENDBRANCH  27  37
ENDBRANCH   1  28
TORSDOF 4
