REMARK  Name = ZINC67270615
REMARK  6 active torsions:
REMARK  status: ('A' for Active; 'I' for Inactive)
REMARK    1  A    between atoms: C_1  and  N_2
REMARK    2  A    between atoms: N_2  and  C_3
REMARK    3  A    between atoms: N_2  and  C_4
REMARK    4  A    between atoms: C_9  and  N_10
REMARK    5  A    between atoms: C_11  and  C_13
REMARK    6  A    between atoms: C_16  and  N_23
REMARK                            x       y       z     vdW  Elec       q    Type
REMARK                         _______ _______ _______ _____ _____    ______ ____
ROOT
ATOM      1  N   UNL     1      -1.179  -0.735   2.432  0.00  0.00    -0.279 N 
ATOM      2  C   UNL     1      -1.799  -0.998   3.599  0.00  0.00    +0.269 C 
ATOM      3  O   UNL     1      -2.844  -1.621   3.606  0.00  0.00    -0.268 OA
ATOM      4  H   UNL     1      -0.315  -0.296   2.430  0.00  0.00    +0.155 HD
ENDROOT
BRANCH   2   5
ATOM      5  C   UNL     1      -1.211  -0.533   4.867  0.00  0.00    +0.155 A 
ATOM      6  C   UNL     1      -1.751  -0.740   6.217  0.00  0.00    +0.034 A 
ATOM      7  C   UNL     1      -2.873  -1.366   6.753  0.00  0.00    +0.045 A 
ATOM      8  C   UNL     1      -3.063  -1.362   8.107  0.00  0.00    +0.127 A 
ATOM      9  C   UNL     1      -2.149  -0.739   8.947  0.00  0.00    +0.035 A 
ATOM     10  C   UNL     1      -1.042  -0.117   8.441  0.00  0.00    +0.030 A 
ATOM     11  C   UNL     1      -0.823  -0.106   7.067  0.00  0.00    +0.067 A 
ATOM     12  N   UNL     1       0.150   0.407   6.249  0.00  0.00    -0.276 N 
ATOM     13  H   UNL     1       0.924   0.900   6.562  0.00  0.00    +0.189 HD
ATOM     14  N   UNL     1      -0.093   0.146   5.016  0.00  0.00    -0.168 NA
BRANCH   8  15
ATOM     15  N   UNL     1      -4.254  -2.027   8.683  0.00  0.00    +0.056 N 
ATOM     16  O   UNL     1      -5.053  -2.571   7.956  0.00  0.00    -0.126 OA
ATOM     17  O   UNL     1      -4.428  -2.026   9.879  0.00  0.00    -0.126 OA
ENDBRANCH   8  15
ENDBRANCH   2   5
BRANCH   1  23
ATOM     18  C   UNL     1      -1.628  -0.288   0.094  0.00  0.00    +0.051 A 
ATOM     19  C   UNL     1      -2.224  -0.653  -1.104  0.00  0.00    +0.026 A 
ATOM     20  C   UNL     1      -2.978  -1.810  -1.177  0.00  0.00    +0.022 A 
ATOM     21  C   UNL     1      -3.139  -2.607  -0.058  0.00  0.00    +0.043 A 
ATOM     22  C   UNL     1      -2.546  -2.251   1.141  0.00  0.00    +0.045 A 
ATOM     23  C   UNL     1      -1.784  -1.095   1.221  0.00  0.00    +0.056 A 
ATOM     24 CL   UNL     1      -4.087  -4.058  -0.157  0.00  0.00    -0.083 Cl
BRANCH  18  26
ATOM     25  C   UNL     1      -1.504   2.151   0.533  0.00  0.00    +0.129 C 
ATOM     26  N   UNL     1      -0.865   0.883   0.170  0.00  0.00    -0.335 N 
ATOM     27  C   UNL     1       0.571   0.842  -0.115  0.00  0.00    +0.129 C 
ENDBRANCH  18  26
ENDBRANCH   1  23
TORSDOF 4
