REMARK  Name = ZINC12413895
REMARK  9 active torsions:
REMARK  status: ('A' for Active; 'I' for Inactive)
REMARK    1  A    between atoms: C_1  and  C_2
REMARK    2  A    between atoms: C_2  and  O_3
REMARK    3  A    between atoms: O_3  and  C_4
REMARK    4  A    between atoms: C_4  and  C_6
REMARK    5  A    between atoms: C_10  and  N_11
REMARK    6  A    between atoms: N_11  and  C_12
REMARK    7  A    between atoms: C_12  and  N_14
REMARK    8  A    between atoms: C_15  and  C_17
REMARK    9  A    between atoms: N_20  and  C_22
REMARK                            x       y       z     vdW  Elec       q    Type
REMARK                         _______ _______ _______ _____ _____    ______ ____
ROOT
ATOM      1  C   UNL     1       1.435  -2.045  -0.017  0.00  0.00    +0.091 A 
ATOM      2  C   UNL     1       2.823  -2.522  -0.056  0.00  0.00    -0.021 A 
ATOM      3  C   UNL     1       3.738  -1.539  -0.038  0.00  0.00    -0.004 A 
ATOM      4  S   UNL     1       2.812  -0.025  -0.024  0.00  0.00    -0.077 S 
ATOM      5  C   UNL     1       1.211  -0.680  -0.013  0.00  0.00    +0.086 A 
ATOM      6  C   UNL     1       5.236  -1.651   0.027  0.00  0.00    +0.043 C 
ATOM      7  C   UNL     1       5.598  -1.905   1.501  0.00  0.00    +0.005 C 
ATOM      8  C   UNL     1       4.795  -3.117   1.991  0.00  0.00    +0.000 C 
ATOM      9  C   UNL     1       5.254  -4.276   1.133  0.00  0.00    +0.000 C 
ATOM     10  C   UNL     1       4.561  -4.361  -0.216  0.00  0.00    +0.005 C 
ATOM     11  C   UNL     1       3.077  -4.028  -0.133  0.00  0.00    +0.037 C 
ENDROOT
BRANCH   1  12
ATOM     12  C   UNL     1       0.317  -2.990   0.013  0.00  0.00    +0.342 C 
ATOM     13  O   UNL     1      -0.175  -3.384  -1.028  0.00  0.00    -0.245 OA
BRANCH  12  14
ATOM     14  O   UNL     1      -0.169  -3.423   1.195  0.00  0.00    -0.461 OA
BRANCH  14  16
ATOM     15  C   UNL     1      -1.689  -4.733   2.574  0.00  0.00    +0.048 C 
ATOM     16  C   UNL     1      -1.278  -4.358   1.148  0.00  0.00    +0.229 C 
ENDBRANCH  14  16
ENDBRANCH  12  14
ENDBRANCH   1  12
BRANCH   5  17
ATOM     17  N   UNL     1       0.002  -0.004   0.002  0.00  0.00    -0.290 N 
ATOM     18  H   UNL     1      -0.831  -0.500   0.007  0.00  0.00    +0.154 HD
BRANCH  17  19
ATOM     19  C   UNL     1      -0.016   1.344   0.009  0.00  0.00    +0.141 C 
ATOM     20  S   UNL     1       1.455   2.220   0.000  0.00  0.00    -0.018 S 
BRANCH  19  21
ATOM     21  N   UNL     1      -1.192   2.002   0.019  0.00  0.00    -0.262 N 
ATOM     22  C   UNL     1      -1.211   3.349   0.026  0.00  0.00    +0.271 C 
ATOM     23  O   UNL     1      -0.166   3.971   0.024  0.00  0.00    -0.268 OA
ATOM     24  H   UNL     1      -2.026   1.505   0.020  0.00  0.00    +0.157 HD
BRANCH  22  25
ATOM     25  C   UNL     1      -2.499   4.070   0.036  0.00  0.00    +0.161 A 
ATOM     26  C   UNL     1      -2.677   5.474   0.044  0.00  0.00    +0.068 A 
ATOM     27  C   UNL     1      -4.018   5.669   0.052  0.00  0.00    +0.124 A 
ATOM     28  N   UNL     1      -4.600   4.444   0.048  0.00  0.00    -0.273 N 
ATOM     29  N   UNL     1      -3.700   3.527   0.033  0.00  0.00    -0.166 NA
ATOM     30  C   UNL     1      -6.045   4.202   0.054  0.00  0.00    +0.172 C 
ATOM     31 BR   UNL     1      -1.328   6.799   0.045  0.00  0.00    -0.046 Br
ENDBRANCH  22  25
ENDBRANCH  19  21
ENDBRANCH  17  19
ENDBRANCH   5  17
TORSDOF 7
