REMARK  Name = ZINC48303373
REMARK  7 active torsions:
REMARK  status: ('A' for Active; 'I' for Inactive)
REMARK    1  A    between atoms: C_1  and  C_2
REMARK    2  A    between atoms: C_2  and  C_3
REMARK    3  A    between atoms: C_2  and  C_4
REMARK    4  A    between atoms: C_2  and  N_25
REMARK    5  A    between atoms: N_6  and  C_7
REMARK    6  A    between atoms: C_7  and  C_8
REMARK    7  A    between atoms: N_28  and  C_29
REMARK                            x       y       z     vdW  Elec       q    Type
REMARK                         _______ _______ _______ _____ _____    ______ ____
ROOT
ATOM      1  C   UNL     1      -4.000  -1.215  -2.566  0.00  0.00    +0.019 C 
ATOM      2  C   UNL     1      -3.180  -2.220  -3.371  0.00  0.00    +0.018 C 
ATOM      3  C   UNL     1      -4.069  -3.352  -3.930  0.00  0.00    +0.050 C 
ATOM      4  C   UNL     1      -4.778  -3.942  -2.721  0.00  0.00    -0.036 A 
ATOM      5  C   UNL     1      -4.715  -5.254  -2.344  0.00  0.00    +0.004 A 
ATOM      6  C   UNL     1      -5.413  -5.659  -1.214  0.00  0.00    +0.000 A 
ATOM      7  C   UNL     1      -6.157  -4.749  -0.486  0.00  0.00    +0.000 A 
ATOM      8  C   UNL     1      -6.216  -3.417  -0.875  0.00  0.00    +0.004 A 
ATOM      9  C   UNL     1      -5.527  -3.025  -1.987  0.00  0.00    -0.036 A 
ATOM     10  C   UNL     1      -5.493  -1.608  -2.534  0.00  0.00    +0.054 C 
ATOM     11  C   UNL     1      -5.909  -1.735  -3.991  0.00  0.00    -0.036 A 
ATOM     12  C   UNL     1      -5.160  -2.651  -4.725  0.00  0.00    -0.036 A 
ATOM     13  C   UNL     1      -5.424  -2.869  -6.047  0.00  0.00    +0.004 A 
ATOM     14  C   UNL     1      -6.453  -2.157  -6.651  0.00  0.00    +0.000 A 
ATOM     15  C   UNL     1      -7.195  -1.246  -5.922  0.00  0.00    +0.000 A 
ATOM     16  C   UNL     1      -6.923  -1.033  -4.577  0.00  0.00    +0.004 A 
ENDROOT
BRANCH   1  17
ATOM     17  C   UNL     1      -3.465  -1.164  -1.134  0.00  0.00    +0.108 C 
BRANCH  17  20
ATOM     18  C   UNL     1      -1.412  -0.526   0.013  0.00  0.00    +0.236 C 
ATOM     19  O   UNL     1      -1.939  -0.827   1.062  0.00  0.00    -0.273 OA
ATOM     20  N   UNL     1      -2.090  -0.657  -1.144  0.00  0.00    -0.313 N 
ATOM     21  H   UNL     1      -1.669  -0.416  -1.984  0.00  0.00    +0.149 HD
BRANCH  18  23
ATOM     22  C   UNL     1      -0.019   1.526   0.010  0.00  0.00    +0.041 C 
ATOM     23  C   UNL     1       0.002  -0.004   0.002  0.00  0.00    +0.106 C 
ATOM     24  C   UNL     1       0.742  -0.511   1.242  0.00  0.00    +0.041 C 
BRANCH  23  25
ATOM     25  N   UNL     1       0.688  -0.476  -1.203  0.00  0.00    -0.286 N 
ATOM     26  C   UNL     1       1.972  -0.132  -1.427  0.00  0.00    +0.300 C 
ATOM     27  O   UNL     1       2.561   0.570  -0.628  0.00  0.00    -0.253 OA
ATOM     28  N   UNL     1       2.602  -0.567  -2.536  0.00  0.00    -0.302 N 
ATOM     29  C   UNL     1       3.998  -0.193  -2.779  0.00  0.00    +0.129 C 
ATOM     30  H   UNL     1       0.218  -1.037  -1.840  0.00  0.00    +0.151 HD
ATOM     31  H   UNL     1       2.132  -1.127  -3.173  0.00  0.00    +0.150 HD
ENDBRANCH  23  25
ENDBRANCH  18  23
ENDBRANCH  17  20
ENDBRANCH   1  17
TORSDOF 4
