REMARK  Name = ZINC09103040
REMARK  6 active torsions:
REMARK  status: ('A' for Active; 'I' for Inactive)
REMARK    1  A    between atoms: C_3  and  C_6
REMARK    2  A    between atoms: C_6  and  C_8
REMARK    3  A    between atoms: C_6  and  S_21
REMARK    4  A    between atoms: C_8  and  N_9
REMARK    5  A    between atoms: N_12  and  C_13
REMARK    6  A    between atoms: S_21  and  C_24
REMARK                            x       y       z     vdW  Elec       q    Type
REMARK                         _______ _______ _______ _____ _____    ______ ____
ROOT
ATOM      1  C   UNL     1       0.929   5.157   0.012  0.00  0.00    +0.189 C 
ENDROOT
BRANCH   1   4
ATOM      2  C   UNL     1      -1.070   1.914   0.005  0.00  0.00    +0.008 A 
ATOM      3  C   UNL     1      -0.846   3.278   0.013  0.00  0.00    +0.013 A 
ATOM      4  C   UNL     1       0.430   3.735   0.011  0.00  0.00    +0.016 A 
ATOM      5  S   UNL     1       1.366   2.215   0.005  0.00  0.00    -0.100 S 
ATOM      6  C   UNL     1      -0.006   1.073   0.006  0.00  0.00    +0.045 A 
ENDBRANCH   1   4
BRANCH   1   7
ATOM      7  S   UNL     1       1.933   5.447  -1.471  0.00  0.00    +0.006 S 
ATOM      8  O   UNL     1       2.262   6.825  -1.577  0.00  0.00    -0.169 OA
ATOM      9  O   UNL     1       2.940   4.450  -1.583  0.00  0.00    -0.169 OA
BRANCH   7  10
ATOM     10  C   UNL     1       0.844   5.139  -2.822  0.00  0.00    +0.093 A 
ATOM     11  C   UNL     1       0.089   6.171  -3.348  0.00  0.00    +0.031 A 
ATOM     12  C   UNL     1      -0.766   5.935  -4.408  0.00  0.00    +0.051 A 
ATOM     13  C   UNL     1      -0.869   4.662  -4.945  0.00  0.00    +0.166 A 
ATOM     14  C   UNL     1      -0.109   3.623  -4.415  0.00  0.00    +0.168 A 
ATOM     15  C   UNL     1       0.751   3.868  -3.357  0.00  0.00    +0.076 A 
ATOM     16  O   UNL     1      -0.386   2.481  -5.111  0.00  0.00    -0.453 OA
ATOM     17  C   UNL     1      -1.014   2.917  -6.331  0.00  0.00    +0.466 C 
ATOM     18  O   UNL     1      -1.623   4.172  -5.973  0.00  0.00    -0.453 OA
ENDBRANCH   7  10
ENDBRANCH   1   7
BRANCH   1  19
ATOM     19  C   UNL     1       1.782   5.397   1.260  0.00  0.00    +0.137 C 
BRANCH  19  20
ATOM     20  N   UNL     1       2.267   6.779   1.261  0.00  0.00    -0.297 N 
ATOM     21  C   UNL     1       3.043   7.220   2.271  0.00  0.00    +0.304 C 
ATOM     22  O   UNL     1       3.341   6.471   3.181  0.00  0.00    -0.253 OA
ATOM     23  N   UNL     1       3.489   8.492   2.272  0.00  0.00    -0.269 N 
ATOM     24  H   UNL     1       2.029   7.377   0.535  0.00  0.00    +0.150 HD
ATOM     25  H   UNL     1       3.308   9.070   1.514  0.00  0.00    +0.156 HD
BRANCH  23  26
ATOM     26  C   UNL     1       4.214   8.978   3.366  0.00  0.00    +0.036 A 
ATOM     27  C   UNL     1       4.072  10.302   3.762  0.00  0.00    +0.025 A 
ATOM     28  C   UNL     1       4.784  10.779   4.845  0.00  0.00    +0.023 A 
ATOM     29  C   UNL     1       5.647   9.942   5.530  0.00  0.00    +0.059 A 
ATOM     30  C   UNL     1       5.795   8.623   5.135  0.00  0.00    +0.061 A 
ATOM     31  C   UNL     1       5.080   8.140   4.055  0.00  0.00    +0.044 A 
ATOM     32 CL   UNL     1       6.878   7.575   5.997  0.00  0.00    -0.082 Cl
ATOM     33 CL   UNL     1       6.545  10.546   6.888  0.00  0.00    -0.082 Cl
ENDBRANCH  23  26
ENDBRANCH  19  20
ENDBRANCH   1  19
TORSDOF 6
