REMARK  Name = ZINC12001548
REMARK  7 active torsions:
REMARK  status: ('A' for Active; 'I' for Inactive)
REMARK    1  A    between atoms: C_1  and  C_2
REMARK    2  A    between atoms: C_2  and  C_4
REMARK    3  A    between atoms: C_2  and  N_9
REMARK    4  A    between atoms: C_10  and  C_12
REMARK    5  A    between atoms: C_15  and  C_20
REMARK    6  A    between atoms: C_20  and  N_55
REMARK    7  A    between atoms: C_23  and  C_26
REMARK                            x       y       z     vdW  Elec       q    Type
REMARK                         _______ _______ _______ _____ _____    ______ ____
ROOT
ATOM      1  C   UNL     1      -2.001   2.467   3.511  0.00  0.00    +0.101 A 
ATOM      2  C   UNL     1      -1.937   1.101   3.244  0.00  0.00    +0.020 A 
ATOM      3  C   UNL     1      -1.280   0.668   2.092  0.00  0.00    +0.020 A 
ATOM      4  C   UNL     1      -0.714   1.571   1.251  0.00  0.00    +0.003 A 
ATOM      5  N   UNL     1      -0.768   2.900   1.507  0.00  0.00    -0.327 N 
ATOM      6  H   UNL     1      -0.351   3.522   0.890  0.00  0.00    +0.169 HD
ATOM      7  C   UNL     1      -1.395   3.372   2.601  0.00  0.00    +0.261 A 
ATOM      8  O   UNL     1      -1.436   4.571   2.812  0.00  0.00    -0.267 OA
ENDROOT
BRANCH   1  10
ATOM      9  N   UNL     1      -2.639   4.274   5.024  0.00  0.00    -0.304 N 
ATOM     10  C   UNL     1      -2.685   2.963   4.715  0.00  0.00    +0.250 C 
ATOM     11  O   UNL     1      -3.292   2.190   5.431  0.00  0.00    -0.270 OA
ATOM     12  H   UNL     1      -2.219   4.902   4.415  0.00  0.00    +0.150 HD
BRANCH   9  14
ATOM     13  C   UNL     1      -4.721   5.000   6.082  0.00  0.00    +0.033 C 
ATOM     14  C   UNL     1      -3.225   4.751   6.279  0.00  0.00    +0.107 C 
BRANCH  14  15
ATOM     15  C   UNL     1      -2.552   6.035   6.691  0.00  0.00    +0.010 A 
ATOM     16  C   UNL     1      -2.179   6.445   7.928  0.00  0.00    +0.013 A 
ATOM     17  C   UNL     1      -1.569   7.677   8.071  0.00  0.00    +0.008 A 
ATOM     18  C   UNL     1      -1.360   8.439   6.969  0.00  0.00    +0.045 A 
ATOM     19  S   UNL     1      -2.031   7.408   5.675  0.00  0.00    -0.100 S 
ENDBRANCH  14  15
ENDBRANCH   9  14
ENDBRANCH   1  10
BRANCH   4  20
ATOM     20  C   UNL     1      -0.007   1.085   0.012  0.00  0.00    -0.024 C 
BRANCH  20  26
ATOM     21  C   UNL     1       0.055   1.305  -2.401  0.00  0.00    -0.073 C 
ATOM     22  C   UNL     1      -0.857   1.513  -3.613  0.00  0.00    +0.017 C 
ATOM     23  C   UNL     1      -1.583   2.823  -3.483  0.00  0.00    -0.048 C 
ATOM     24  C   UNL     1      -1.673   3.475  -2.344  0.00  0.00    -0.041 C 
ATOM     25  C   UNL     1      -1.055   2.982  -1.067  0.00  0.00    -0.050 C 
ATOM     26  N   UNL     1      -0.749   1.544  -1.185  0.00  0.00    +0.386 N 
ATOM     27  H   UNL     1      -1.628   1.018  -1.255  0.00  0.00    -0.081 HD
BRANCH  23  28
ATOM     28  C   UNL     1      -2.222   3.402  -4.683  0.00  0.00    -0.022 A 
ATOM     29  C   UNL     1      -3.285   2.741  -5.298  0.00  0.00    +0.011 A 
ATOM     30  C   UNL     1      -3.882   3.289  -6.415  0.00  0.00    +0.039 A 
ATOM     31  C   UNL     1      -3.419   4.488  -6.933  0.00  0.00    +0.123 A 
ATOM     32  C   UNL     1      -2.359   5.146  -6.329  0.00  0.00    +0.039 A 
ATOM     33  C   UNL     1      -1.760   4.610  -5.209  0.00  0.00    +0.011 A 
ATOM     34  F   UNL     1      -4.003   5.017  -8.030  0.00  0.00    -0.205 F 
ENDBRANCH  23  28
ENDBRANCH  20  26
ENDBRANCH   4  20
TORSDOF 6
