REMARK  Name = ZINC16025750
REMARK  8 active torsions:
REMARK  status: ('A' for Active; 'I' for Inactive)
REMARK    1  A    between atoms: C_1  and  S_2
REMARK    2  A    between atoms: S_2  and  C_3
REMARK    3  A    between atoms: C_3  and  C_4
REMARK    4  A    between atoms: C_4  and  C_5
REMARK    5  A    between atoms: C_5  and  C_7
REMARK    6  A    between atoms: C_5  and  N_16
REMARK    7  A    between atoms: N_9  and  C_10
REMARK    8  A    between atoms: C_17  and  C_19
REMARK                            x       y       z     vdW  Elec       q    Type
REMARK                         _______ _______ _______ _____ _____    ______ ____
ROOT
ATOM      1  C   UNL     1       2.552   0.246   0.324  0.00  0.00    +0.167 C 
ATOM      2  C   UNL     1       1.796   0.914  -0.833  0.00  0.00    +0.069 C 
ATOM      3  C   UNL     1       0.341   1.083  -0.478  0.00  0.00    -0.015 A 
ATOM      4  C   UNL     1      -0.636   1.922  -1.151  0.00  0.00    +0.003 A 
ATOM      5  C   UNL     1      -0.544   2.778  -2.252  0.00  0.00    +0.010 A 
ATOM      6  C   UNL     1      -1.693   3.429  -2.628  0.00  0.00    +0.001 A 
ATOM      7  C   UNL     1      -2.892   3.254  -1.956  0.00  0.00    +0.002 A 
ATOM      8  C   UNL     1      -3.010   2.412  -0.864  0.00  0.00    +0.026 A 
ATOM      9  C   UNL     1      -1.860   1.737  -0.460  0.00  0.00    +0.047 A 
ATOM     10  N   UNL     1      -1.625   0.853   0.552  0.00  0.00    -0.356 N 
ATOM     11  H   UNL     1      -2.289   0.541   1.187  0.00  0.00    +0.166 HD
ATOM     12  C   UNL     1      -0.311   0.470   0.536  0.00  0.00    +0.046 A 
ATOM     13  C   UNL     1       0.366  -0.485   1.488  0.00  0.00    +0.155 C 
ATOM     14  N   UNL     1       1.682  -0.795   0.884  0.00  0.00    -0.273 N 
ATOM     15  C   UNL     1       1.853  -2.124   0.884  0.00  0.00    +0.248 C 
ATOM     16  O   UNL     1       2.893  -2.696   0.622  0.00  0.00    -0.270 OA
ATOM     17  C   UNL     1       0.596  -2.783   1.250  0.00  0.00    +0.042 A 
ATOM     18  C   UNL     1      -0.345  -1.791   1.593  0.00  0.00    -0.009 A 
ATOM     19  C   UNL     1      -1.638  -2.113   1.940  0.00  0.00    +0.006 A 
ATOM     20  C   UNL     1      -1.972  -3.464   1.951  0.00  0.00    +0.000 A 
ATOM     21  C   UNL     1      -1.054  -4.444   1.631  0.00  0.00    +0.001 A 
ATOM     22  C   UNL     1       0.249  -4.136   1.272  0.00  0.00    +0.013 A 
ENDROOT
BRANCH   1  24
ATOM     23  N   UNL     1       5.019   0.123   0.192  0.00  0.00    -0.302 N 
ATOM     24  C   UNL     1       3.825  -0.375  -0.189  0.00  0.00    +0.235 C 
ATOM     25  O   UNL     1       3.777  -1.323  -0.944  0.00  0.00    -0.274 OA
ATOM     26  H   UNL     1       5.057   0.881   0.796  0.00  0.00    +0.150 HD
BRANCH  23  27
ATOM     27  C   UNL     1       6.257  -0.480  -0.307  0.00  0.00    +0.160 C 
BRANCH  27  28
ATOM     28  C   UNL     1       7.376  -0.206   0.664  0.00  0.00    +0.234 C 
ATOM     29  O   UNL     1       7.160   0.431   1.674  0.00  0.00    -0.274 OA
ATOM     30  N   UNL     1       8.617  -0.668   0.411  0.00  0.00    -0.311 N 
ATOM     31  H   UNL     1       8.789  -1.177  -0.396  0.00  0.00    +0.149 HD
BRANCH  30  32
ATOM     32  C   UNL     1       9.704  -0.401   1.355  0.00  0.00    +0.073 C 
ATOM     33  C   UNL     1      10.313   0.970   1.057  0.00  0.00    +0.022 C 
ATOM     34  C   UNL     1      11.450   1.249   2.043  0.00  0.00    +0.002 C 
ATOM     35  C   UNL     1      12.526   0.171   1.900  0.00  0.00    +0.000 C 
ATOM     36  C   UNL     1      11.917  -1.201   2.198  0.00  0.00    +0.002 C 
ATOM     37  C   UNL     1      10.780  -1.479   1.212  0.00  0.00    +0.022 C 
ENDBRANCH  30  32
ENDBRANCH  27  28
BRANCH  27  38
ATOM     38  C   UNL     1       6.605   0.122  -1.670  0.00  0.00    +0.042 C 
BRANCH  38  39
ATOM     39  C   UNL     1       5.529  -0.262  -2.687  0.00  0.00    +0.071 C 
BRANCH  39  41
ATOM     40  C   UNL     1       4.587  -0.089  -5.381  0.00  0.00    +0.084 C 
ATOM     41  S   UNL     1       5.942   0.452  -4.303  0.00  0.00    -0.164 S 
ENDBRANCH  39  41
ENDBRANCH  38  39
ENDBRANCH  27  38
ENDBRANCH  23  27
ENDBRANCH   1  24
TORSDOF 7
