REMARK  Name = ZINC62835165
REMARK  7 active torsions:
REMARK  status: ('A' for Active; 'I' for Inactive)
REMARK    1  A    between atoms: C_4  and  N_8
REMARK    2  A    between atoms: C_5  and  N_7
REMARK    3  A    between atoms: N_8  and  C_9
REMARK    4  A    between atoms: N_8  and  C_14
REMARK    5  A    between atoms: C_9  and  C_10
REMARK    6  A    between atoms: C_10  and  C_11
REMARK    7  A    between atoms: C_14  and  C_15
REMARK                            x       y       z     vdW  Elec       q    Type
REMARK                         _______ _______ _______ _____ _____    ______ ____
ROOT
ATOM      1  N   UNL     1       3.633  -0.640  -0.037  0.00  0.00    -0.320 N 
ENDROOT
BRANCH   1   5
ATOM      2  C   UNL     1      -0.017   1.379   0.010  0.00  0.00    +0.002 A 
ATOM      3  C   UNL     1       1.169   2.090   0.002  0.00  0.00    +0.002 A 
ATOM      4  C   UNL     1       2.380   1.423  -0.013  0.00  0.00    +0.025 A 
ATOM      5  C   UNL     1       2.408   0.037  -0.021  0.00  0.00    +0.051 A 
ATOM      6  C   UNL     1       1.212  -0.681  -0.013  0.00  0.00    +0.046 A 
ATOM      7  C   UNL     1       0.002  -0.004   0.002  0.00  0.00    +0.024 A 
BRANCH   6   8
ATOM      8  N   UNL     1       1.234  -2.081  -0.021  0.00  0.00    -0.357 N 
ATOM      9  H   UNL     1       2.081  -2.553  -0.033  0.00  0.00    +0.142 HD
ATOM     10  H   UNL     1       0.401  -2.579  -0.016  0.00  0.00    +0.142 HD
ENDBRANCH   6   8
ENDBRANCH   1   5
BRANCH   1  11
ATOM     11  C   UNL     1       4.287  -1.002   1.223  0.00  0.00    +0.117 C 
BRANCH  11  12
ATOM     12  C   UNL     1       3.817  -2.390   1.662  0.00  0.00    +0.144 C 
BRANCH  12  13
ATOM     13  C   UNL     1       4.490  -2.761   2.958  0.00  0.00    +0.358 C 
ATOM     14  O   UNL     1       5.273  -1.988   3.482  0.00  0.00    -0.246 OA
ATOM     15  O   UNL     1       4.252  -3.836   3.483  0.00  0.00    -0.246 OA
ENDBRANCH  12  13
ENDBRANCH  11  12
ENDBRANCH   1  11
BRANCH   1  16
ATOM     16  C   UNL     1       4.261  -0.988  -1.315  0.00  0.00    +0.218 C 
BRANCH  16  17
ATOM     17  C   UNL     1       5.178   0.153  -1.760  0.00  0.00    +0.405 C 
ATOM     18  F   UNL     1       6.168   0.360  -0.794  0.00  0.00    -0.169 F 
ATOM     19  F   UNL     1       5.777  -0.178  -2.979  0.00  0.00    -0.169 F 
ATOM     20  F   UNL     1       4.425   1.323  -1.913  0.00  0.00    -0.169 F 
ENDBRANCH  16  17
ENDBRANCH   1  16
TORSDOF 7
