REMARK  Name = ZINC59891625
REMARK  10 active torsions:
REMARK  status: ('A' for Active; 'I' for Inactive)
REMARK    1  A    between atoms: C_1  and  C_2
REMARK    2  A    between atoms: C_2  and  C_3
REMARK    3  A    between atoms: C_2  and  C_4
REMARK    4  A    between atoms: C_4  and  C_5
REMARK    5  A    between atoms: C_5  and  C_25
REMARK    6  A    between atoms: N_6  and  N_7
REMARK    7  A    between atoms: C_10  and  S_13
REMARK    8  A    between atoms: S_13  and  C_14
REMARK    9  A    between atoms: C_14  and  C_15
REMARK   10  A    between atoms: N_17  and  C_18
REMARK                            x       y       z     vdW  Elec       q    Type
REMARK                         _______ _______ _______ _____ _____    ______ ____
ROOT
ATOM      1  N   UNL     1      -3.010  -1.005  -3.801  0.00  0.00    -0.205 N 
ATOM      2  C   UNL     1      -3.175  -1.993  -4.756  0.00  0.00    +0.232 A 
ATOM      3  N   UNL     1      -3.059  -3.289  -4.557  0.00  0.00    -0.186 NA
ATOM      4  C   UNL     1      -3.285  -3.942  -5.702  0.00  0.00    +0.211 A 
ATOM      5  N   UNL     1      -3.547  -3.069  -6.645  0.00  0.00    -0.144 NA
ATOM      6  N   UNL     1      -3.487  -1.797  -6.054  0.00  0.00    -0.245 N 
ATOM      7  H   UNL     1      -3.121  -0.073  -4.043  0.00  0.00    +0.177 HD
ATOM      8  H   UNL     1      -3.639  -0.945  -6.493  0.00  0.00    +0.192 HD
ENDROOT
BRANCH   1  10
ATOM      9  C   UNL     1      -2.532  -0.439  -1.599  0.00  0.00    +0.034 C 
ATOM     10  N   UNL     1      -2.684  -1.353  -2.483  0.00  0.00    -0.189 NA
ATOM     11  C   UNL     1      -2.704   1.010  -1.976  0.00  0.00    +0.062 C 
BRANCH   9  12
ATOM     12  C   UNL     1      -2.182  -0.812  -0.182  0.00  0.00    +0.055 C 
BRANCH  12  14
ATOM     13  C   UNL     1      -0.305  -1.104   1.441  0.00  0.00    +0.007 C 
ATOM     14  C   UNL     1      -0.660  -0.836  -0.023  0.00  0.00    -0.012 C 
ATOM     15  C   UNL     1      -0.073  -1.943  -0.900  0.00  0.00    +0.007 C 
ENDBRANCH  12  14
ENDBRANCH   9  12
ENDBRANCH   1  10
BRANCH   4  16
ATOM     16  S   UNL     1      -3.237  -5.691  -5.910  0.00  0.00    -0.075 S 
BRANCH  16  17
ATOM     17  C   UNL     1      -3.625  -5.935  -7.665  0.00  0.00    +0.173 C 
BRANCH  17  18
ATOM     18  C   UNL     1      -3.617  -7.408  -7.981  0.00  0.00    +0.227 C 
ATOM     19  O   UNL     1      -3.374  -8.214  -7.108  0.00  0.00    -0.275 OA
ATOM     20  N   UNL     1      -3.880  -7.830  -9.234  0.00  0.00    -0.285 N 
ATOM     21  H   UNL     1      -3.999  -7.185  -9.948  0.00  0.00    +0.155 HD
BRANCH  20  22
ATOM     22  C   UNL     1      -3.981  -9.200  -9.504  0.00  0.00    +0.033 A 
ATOM     23  C   UNL     1      -3.587  -9.696 -10.740  0.00  0.00    +0.024 A 
ATOM     24  C   UNL     1      -3.688 -11.048 -11.004  0.00  0.00    +0.016 A 
ATOM     25  C   UNL     1      -4.181 -11.907 -10.039  0.00  0.00    +0.013 A 
ATOM     26  C   UNL     1      -4.574 -11.416  -8.806  0.00  0.00    +0.016 A 
ATOM     27  C   UNL     1      -4.470 -10.066  -8.535  0.00  0.00    +0.024 A 
ATOM     28  I   UNL     1      -4.333 -13.957 -10.443  0.00  0.00    -0.044 I 
ENDBRANCH  20  22
ENDBRANCH  17  18
ENDBRANCH  16  17
ENDBRANCH   4  16
TORSDOF 7
