REMARK  Name = ZINC09320587
REMARK  6 active torsions:
REMARK  status: ('A' for Active; 'I' for Inactive)
REMARK    1  A    between atoms: C_3  and  N_10
REMARK    2  A    between atoms: C_5  and  N_7
REMARK    3  A    between atoms: C_11  and  C_13
REMARK    4  A    between atoms: C_13  and  C_14
REMARK    5  A    between atoms: N_20  and  N_21
REMARK    6  A    between atoms: C_22  and  C_23
REMARK                            x       y       z     vdW  Elec       q    Type
REMARK                         _______ _______ _______ _____ _____    ______ ____
ROOT
ATOM      1  C   UNL     1       4.567   5.728  -0.329  0.00  0.00    +0.149 C 
ATOM      2  C   UNL     1       5.847   6.534  -0.483  0.00  0.00    +0.233 C 
ATOM      3  O   UNL     1       6.579   6.404  -1.441  0.00  0.00    -0.274 OA
ATOM      4  N   UNL     1       6.111   7.386   0.493  0.00  0.00    -0.263 N 
ATOM      5  C   UNL     1       5.284   7.540   1.585  0.00  0.00    +0.183 C 
ATOM      6  N   UNL     1       5.436   8.349   2.613  0.00  0.00    -0.127 NA
ATOM      7  S   UNL     1       3.954   6.385   1.277  0.00  0.00    -0.075 S 
ATOM      8  H   UNL     1       6.917   7.923   0.438  0.00  0.00    +0.157 HD
ENDROOT
BRANCH   6   9
ATOM      9  N   UNL     1       4.557   8.366   3.557  0.00  0.00    -0.155 NA
ATOM     10  C   UNL     1       4.709   9.167   4.576  0.00  0.00    +0.143 C 
BRANCH  10  11
ATOM     11  C   UNL     1       3.706   9.187   5.652  0.00  0.00    -0.005 A 
ATOM     12  C   UNL     1       2.592   8.343   5.590  0.00  0.00    +0.011 A 
ATOM     13  C   UNL     1       1.656   8.366   6.602  0.00  0.00    +0.020 A 
ATOM     14  C   UNL     1       1.817   9.222   7.679  0.00  0.00    +0.041 A 
ATOM     15  C   UNL     1       2.918  10.061   7.748  0.00  0.00    +0.020 A 
ATOM     16  C   UNL     1       3.865  10.044   6.745  0.00  0.00    +0.011 A 
ATOM     17 CL   UNL     1       0.634   9.245   8.949  0.00  0.00    -0.084 Cl
ENDBRANCH  10  11
ENDBRANCH   6   9
BRANCH   1  18
ATOM     18  C   UNL     1       4.863   4.229  -0.238  0.00  0.00    +0.120 C 
BRANCH  18  20
ATOM     19  N   UNL     1       3.584   2.123  -0.021  0.00  0.00    -0.285 N 
ATOM     20  C   UNL     1       3.569   3.468  -0.116  0.00  0.00    +0.219 C 
ATOM     21  O   UNL     1       2.513   4.065  -0.103  0.00  0.00    -0.275 OA
ATOM     22  H   UNL     1       4.429   1.652   0.045  0.00  0.00    +0.155 HD
BRANCH  19  25
ATOM     23  C   UNL     1       0.112   1.159  -0.752  0.00  0.00    +0.004 A 
ATOM     24  C   UNL     1       1.298   1.867  -0.756  0.00  0.00    +0.023 A 
ATOM     25  C   UNL     1       2.381   1.409  -0.019  0.00  0.00    +0.036 A 
ATOM     26  C   UNL     1       2.269   0.238   0.720  0.00  0.00    +0.056 A 
ATOM     27  C   UNL     1       1.081  -0.466   0.720  0.00  0.00    +0.128 A 
ATOM     28  C   UNL     1       0.003  -0.006  -0.015  0.00  0.00    +0.033 A 
BRANCH  27  29
ATOM     29  N   UNL     1       0.960  -1.713   1.507  0.00  0.00    +0.056 N 
ATOM     30  O   UNL     1       1.901  -2.116   2.150  0.00  0.00    -0.126 OA
ATOM     31  O   UNL     1      -0.080  -2.330   1.508  0.00  0.00    -0.126 OA
ENDBRANCH  27  29
ENDBRANCH  19  25
ENDBRANCH  18  20
ENDBRANCH   1  18
TORSDOF 6
