REMARK  Name = ZINC09596264
REMARK  7 active torsions:
REMARK  status: ('A' for Active; 'I' for Inactive)
REMARK    1  A    between atoms: C_6  and  N_7
REMARK    2  A    between atoms: C_8  and  S_12
REMARK    3  A    between atoms: S_12  and  C_13
REMARK    4  A    between atoms: C_13  and  C_14
REMARK    5  A    between atoms: N_16  and  C_17
REMARK    6  A    between atoms: C_17  and  C_18
REMARK    7  A    between atoms: C_18  and  N_59
REMARK                            x       y       z     vdW  Elec       q    Type
REMARK                         _______ _______ _______ _____ _____    ______ ____
ROOT
ATOM      1  C   UNL     1       0.251   0.906  -2.284  0.00  0.00    +0.223 C 
ATOM      2  O   UNL     1       1.271   0.253  -2.204  0.00  0.00    -0.275 OA
ATOM      3  N   UNL     1      -0.397   1.283  -1.164  0.00  0.00    -0.316 N 
ATOM      4  H   UNL     1      -1.212   1.804  -1.228  0.00  0.00    +0.149 HD
ENDROOT
BRANCH   1   5
ATOM      5  C   UNL     1      -0.290   1.294  -3.635  0.00  0.00    +0.173 C 
BRANCH   5   6
ATOM      6  S   UNL     1       0.795   0.645  -4.930  0.00  0.00    -0.075 S 
BRANCH   6   8
ATOM      7  N   UNL     1       0.322   1.041  -7.652  0.00  0.00    -0.187 N 
ATOM      8  C   UNL     1      -0.050   1.230  -6.361  0.00  0.00    +0.214 A 
ATOM      9  N   UNL     1      -1.159   1.938  -6.379  0.00  0.00    -0.101 NA
ATOM     10  N   UNL     1      -1.507   2.199  -7.587  0.00  0.00    -0.022 NA
ATOM     11  N   UNL     1      -0.663   1.688  -8.418  0.00  0.00    -0.038 NA
BRANCH   7  17
ATOM     12  C   UNL     1       2.638   0.390  -7.409  0.00  0.00    +0.029 A 
ATOM     13  C   UNL     1       3.742  -0.299  -7.870  0.00  0.00    +0.022 A 
ATOM     14  C   UNL     1       3.666  -1.022  -9.048  0.00  0.00    +0.041 A 
ATOM     15  C   UNL     1       2.482  -1.062  -9.762  0.00  0.00    +0.022 A 
ATOM     16  C   UNL     1       1.373  -0.380  -9.302  0.00  0.00    +0.029 A 
ATOM     17  C   UNL     1       1.447   0.347  -8.121  0.00  0.00    +0.070 A 
ATOM     18 CL   UNL     1       5.058  -1.880  -9.629  0.00  0.00    -0.084 Cl
ENDBRANCH   7  17
ENDBRANCH   6   8
ENDBRANCH   5   6
ENDBRANCH   1   5
BRANCH   3  19
ATOM     19  C   UNL     1       0.129   0.905   0.150  0.00  0.00    +0.092 C 
BRANCH  19  20
ATOM     20  C   UNL     1      -0.867   1.315   1.236  0.00  0.00    -0.050 C 
ATOM     21  C   UNL     1      -1.215   2.796   1.076  0.00  0.00    -0.010 C 
ATOM     22  C   UNL     1       0.057   3.636   1.208  0.00  0.00    -0.001 C 
ATOM     23  C   UNL     1       0.680   3.404   2.586  0.00  0.00    -0.000 C 
ATOM     24  C   UNL     1       1.028   1.922   2.746  0.00  0.00    -0.001 C 
ATOM     25  C   UNL     1      -0.244   1.083   2.614  0.00  0.00    -0.010 C 
BRANCH  20  31
ATOM     26  C   UNL     1      -1.788  -0.924   1.222  0.00  0.00    -0.078 C 
ATOM     27  C   UNL     1      -3.094  -1.722   1.232  0.00  0.00    -0.019 C 
ATOM     28  C   UNL     1      -3.865  -1.444  -0.061  0.00  0.00    -0.004 C 
ATOM     29  C   UNL     1      -4.124   0.061  -0.180  0.00  0.00    -0.019 C 
ATOM     30  C   UNL     1      -2.788   0.806  -0.148  0.00  0.00    -0.078 C 
ATOM     31  N   UNL     1      -2.107   0.517   1.132  0.00  0.00    +0.384 N 
ATOM     32  H   UNL     1      -2.732   0.769   1.906  0.00  0.00    -0.081 HD
ENDBRANCH  20  31
ENDBRANCH  19  20
ENDBRANCH   3  19
TORSDOF 7
