REMARK  Name = ZINC06408585
REMARK  9 active torsions:
REMARK  status: ('A' for Active; 'I' for Inactive)
REMARK    1  A    between atoms: C_1  and  C_2
REMARK    2  A    between atoms: C_9  and  C_14
REMARK    3  A    between atoms: C_14  and  C_16
REMARK    4  A    between atoms: C_14  and  N_67
REMARK    5  A    between atoms: N_20  and  C_21
REMARK    6  A    between atoms: C_26  and  C_27
REMARK    7  A    between atoms: C_26  and  N_67
REMARK    8  A    between atoms: C_33  and  C_34
REMARK    9  A    between atoms: C_33  and  N_67
REMARK                            x       y       z     vdW  Elec       q    Type
REMARK                         _______ _______ _______ _____ _____    ______ ____
ROOT
ATOM      1  C   UNL     1       0.476  -0.453  -1.461  0.00  0.00    +0.040 C 
ENDROOT
BRANCH   1  10
ATOM      2  C   UNL     1       2.867  -7.381  -2.837  0.00  0.00    +0.044 C 
ATOM      3  C   UNL     1       1.759  -6.415  -2.509  0.00  0.00    -0.050 A 
ATOM      4  C   UNL     1       0.462  -6.884  -2.346  0.00  0.00    +0.005 A 
ATOM      5  C   UNL     1      -0.567  -6.018  -2.046  0.00  0.00    +0.026 A 
ATOM      6  C   UNL     1      -0.306  -4.659  -1.904  0.00  0.00    +0.049 A 
ATOM      7  C   UNL     1       1.010  -4.187  -2.070  0.00  0.00    -0.001 A 
ATOM      8  C   UNL     1       2.039  -5.084  -2.374  0.00  0.00    +0.013 A 
ATOM      9  C   UNL     1       1.274  -2.754  -1.924  0.00  0.00    +0.017 A 
ATOM     10  C   UNL     1       0.238  -1.932  -1.623  0.00  0.00    +0.011 A 
ATOM     11  C   UNL     1      -1.063  -2.456  -1.466  0.00  0.00    +0.251 A 
ATOM     12  O   UNL     1      -1.981  -1.699  -1.200  0.00  0.00    -0.268 OA
ATOM     13  N   UNL     1      -1.316  -3.770  -1.603  0.00  0.00    -0.322 N 
ATOM     14  H   UNL     1      -2.222  -4.097  -1.490  0.00  0.00    +0.169 HD
ENDBRANCH   1  10
BRANCH   1  15
ATOM     15  C   UNL     1      -0.224   0.293  -2.568  0.00  0.00    +0.143 A 
ATOM     16  N   UNL     1      -1.511   0.516  -2.670  0.00  0.00    -0.115 NA
ATOM     17  N   UNL     1      -1.715   1.184  -3.752  0.00  0.00    -0.023 NA
ATOM     18  N   UNL     1      -0.591   1.393  -4.343  0.00  0.00    -0.044 NA
ATOM     19  N   UNL     1       0.353   0.864  -3.642  0.00  0.00    -0.227 N 
BRANCH  19  20
ATOM     20  C   UNL     1       1.784   0.878  -3.956  0.00  0.00    +0.111 C 
ATOM     21  C   UNL     1       2.282   2.333  -4.085  0.00  0.00    +0.027 C 
ATOM     22  C   UNL     1       3.314   2.279  -5.239  0.00  0.00    +0.002 C 
ATOM     23  C   UNL     1       2.671   1.275  -6.228  0.00  0.00    +0.002 C 
ATOM     24  C   UNL     1       2.031   0.205  -5.318  0.00  0.00    +0.027 C 
ENDBRANCH  19  20
ENDBRANCH   1  15
BRANCH   1  25
ATOM     25  N   UNL     1      -0.080  -0.018  -0.162  0.00  0.00    +0.397 N 
ATOM     26  H   UNL     1      -1.078  -0.257  -0.130  0.00  0.00    -0.079 HD
BRANCH  25  27
ATOM     27  C   UNL     1       0.067   1.445  -0.014  0.00  0.00    -0.041 C 
BRANCH  27  28
ATOM     28  C   UNL     1      -0.825   1.911   1.108  0.00  0.00    -0.064 A 
ATOM     29  C   UNL     1      -2.161   2.168   0.867  0.00  0.00    +0.002 A 
ATOM     30  C   UNL     1      -2.980   2.590   1.898  0.00  0.00    +0.000 A 
ATOM     31  C   UNL     1      -2.461   2.764   3.167  0.00  0.00    +0.000 A 
ATOM     32  C   UNL     1      -1.123   2.512   3.406  0.00  0.00    +0.000 A 
ATOM     33  C   UNL     1      -0.305   2.085   2.377  0.00  0.00    +0.002 A 
ENDBRANCH  27  28
ENDBRANCH  25  27
BRANCH  25  34
ATOM     34  C   UNL     1       0.616  -0.710   0.943  0.00  0.00    -0.001 C 
BRANCH  34  35
ATOM     35  C   UNL     1       2.100  -0.457   0.873  0.00  0.00    +0.089 A 
ATOM     36  C   UNL     1       2.768   0.493   1.551  0.00  0.00    +0.042 A 
ATOM     37  C   UNL     1       4.130   0.373   1.189  0.00  0.00    +0.041 A 
ATOM     38  C   UNL     1       4.212  -0.644   0.312  0.00  0.00    +0.195 A 
ATOM     39  O   UNL     1       2.980  -1.146   0.129  0.00  0.00    -0.470 OA
ENDBRANCH  34  35
ENDBRANCH  25  34
ENDBRANCH   1  25
TORSDOF 8
