REMARK  Name = ZINC64890887
REMARK  7 active torsions:
REMARK  status: ('A' for Active; 'I' for Inactive)
REMARK    1  A    between atoms: C_1  and  C_2
REMARK    2  A    between atoms: C_2  and  C_3
REMARK    3  A    between atoms: C_2  and  C_4
REMARK    4  A    between atoms: C_4  and  N_5
REMARK    5  A    between atoms: C_9  and  C_18
REMARK    6  A    between atoms: C_20  and  C_23
REMARK    7  A    between atoms: C_23  and  C_24
REMARK                            x       y       z     vdW  Elec       q    Type
REMARK                         _______ _______ _______ _____ _____    ______ ____
ROOT
ATOM      1  N   UNL     1      -1.416  -1.993  -0.116  0.00  0.00    -0.302 N 
ATOM      2  C   UNL     1      -1.450  -2.579  -1.376  0.00  0.00    +0.068 A 
ATOM      3  C   UNL     1      -1.501  -1.770  -2.508  0.00  0.00    +0.028 A 
ATOM      4  C   UNL     1      -1.535  -2.336  -3.763  0.00  0.00    +0.014 A 
ATOM      5  C   UNL     1      -1.520  -3.724  -3.906  0.00  0.00    +0.025 A 
ATOM      6  C   UNL     1      -1.469  -4.539  -2.779  0.00  0.00    +0.039 A 
ATOM      7  C   UNL     1      -1.434  -3.969  -1.514  0.00  0.00    +0.067 A 
ATOM      8  N   UNL     1      -1.384  -4.791  -0.391  0.00  0.00    -0.316 N 
ATOM      9  H   UNL     1      -1.372  -5.756  -0.497  0.00  0.00    +0.169 HD
ATOM     10  C   UNL     1      -1.350  -4.249   0.843  0.00  0.00    +0.314 A 
ATOM     11  O   UNL     1      -1.306  -4.962   1.826  0.00  0.00    -0.262 OA
ATOM     12  C   UNL     1      -1.362  -2.765   0.989  0.00  0.00    +0.316 A 
ATOM     13  O   UNL     1      -1.328  -2.256   2.091  0.00  0.00    -0.262 OA
ENDROOT
BRANCH   5  14
ATOM     14  C   UNL     1      -1.558  -4.331  -5.259  0.00  0.00    +0.202 A 
ATOM     15  N   UNL     1      -1.603  -3.655  -6.421  0.00  0.00    -0.191 NA
ATOM     16  C   UNL     1      -1.626  -4.489  -7.422  0.00  0.00    +0.232 A 
ATOM     17  O   UNL     1      -1.596  -5.737  -6.935  0.00  0.00    -0.337 OA
ATOM     18  N   UNL     1      -1.547  -5.615  -5.522  0.00  0.00    -0.056 NA
BRANCH  16  19
ATOM     19  C   UNL     1      -1.677  -4.114  -8.880  0.00  0.00    +0.135 C 
BRANCH  19  20
ATOM     20  C   UNL     1      -0.274  -3.973  -9.412  0.00  0.00    -0.024 A 
ATOM     21  C   UNL     1       0.331  -2.730  -9.448  0.00  0.00    +0.005 A 
ATOM     22  C   UNL     1       1.617  -2.601  -9.935  0.00  0.00    +0.000 A 
ATOM     23  C   UNL     1       2.301  -3.715 -10.388  0.00  0.00    +0.001 A 
ATOM     24  C   UNL     1       1.697  -4.957 -10.353  0.00  0.00    +0.015 A 
ATOM     25  C   UNL     1       0.411  -5.088  -9.860  0.00  0.00    +0.022 A 
ATOM     26 BR   UNL     1      -0.413  -6.789  -9.805  0.00  0.00    -0.050 Br
ENDBRANCH  19  20
ENDBRANCH  16  19
ENDBRANCH   5  14
BRANCH   1  27
ATOM     27  C   UNL     1      -1.433  -0.534   0.013  0.00  0.00    +0.128 C 
BRANCH  27  29
ATOM     28  C   UNL     1      -0.019   1.526   0.010  0.00  0.00    +0.009 C 
ATOM     29  C   UNL     1       0.002  -0.004   0.002  0.00  0.00    +0.003 C 
ATOM     30  C   UNL     1       0.742  -0.511   1.242  0.00  0.00    +0.009 C 
ENDBRANCH  27  29
ENDBRANCH   1  27
TORSDOF 5
