REMARK  Name = ZINC00679486
REMARK  9 active torsions:
REMARK  status: ('A' for Active; 'I' for Inactive)
REMARK    1  A    between atoms: C_1  and  C_2
REMARK    2  A    between atoms: C_2  and  O_3
REMARK    3  A    between atoms: O_3  and  C_4
REMARK    4  A    between atoms: C_6  and  C_12
REMARK    5  A    between atoms: C_9  and  O_10
REMARK    6  A    between atoms: C_14  and  C_21
REMARK    7  A    between atoms: C_15  and  C_20
REMARK    8  A    between atoms: N_23  and  C_24
REMARK    9  A    between atoms: C_24  and  C_25
REMARK                            x       y       z     vdW  Elec       q    Type
REMARK                         _______ _______ _______ _____ _____    ______ ____
ROOT
ATOM      1  C   UNL     1       0.050  -1.635   4.124  0.00  0.00    +0.141 C 
ATOM      2  C   UNL     1      -0.057  -2.713   3.064  0.00  0.00    +0.055 C 
ATOM      3  C   UNL     1       0.038  -3.999   3.464  0.00  0.00    +0.017 C 
ATOM      4  N   UNL     1       0.217  -4.317   4.780  0.00  0.00    -0.300 N 
ATOM      5  C   UNL     1       0.313  -3.406   5.757  0.00  0.00    +0.135 C 
ATOM      6  S   UNL     1       0.538  -3.941   7.368  0.00  0.00    -0.019 S 
ATOM      7  N   UNL     1       0.237  -2.083   5.514  0.00  0.00    -0.315 N 
ATOM      8  C   UNL     1      -0.057  -5.102   2.441  0.00  0.00    +0.061 C 
ATOM      9  H   UNL     1       0.280  -5.254   5.020  0.00  0.00    +0.154 HD
ATOM     10  H   UNL     1       0.308  -1.440   6.237  0.00  0.00    +0.149 HD
ENDROOT
BRANCH   1  13
ATOM     11  C   UNL     1      -3.440  -0.375   4.835  0.00  0.00    +0.162 A 
ATOM     12  C   UNL     1      -2.284  -1.138   4.876  0.00  0.00    +0.056 A 
ATOM     13  C   UNL     1      -1.209  -0.808   4.073  0.00  0.00    -0.001 A 
ATOM     14  C   UNL     1      -1.288   0.277   3.218  0.00  0.00    +0.050 A 
ATOM     15  C   UNL     1      -2.441   1.040   3.169  0.00  0.00    +0.069 A 
ATOM     16  C   UNL     1      -3.520   0.717   3.976  0.00  0.00    +0.160 A 
ATOM     17 CL   UNL     1       0.063   0.683   2.207  0.00  0.00    -0.083 Cl
BRANCH  16  18
ATOM     18  O   UNL     1      -4.654   1.465   3.929  0.00  0.00    -0.503 OA
ATOM     19  H   UNL     1      -5.301   1.159   3.280  0.00  0.00    +0.292 HD
ENDBRANCH  16  18
BRANCH  11  20
ATOM     20  O   UNL     1      -4.497  -0.696   5.629  0.00  0.00    -0.489 OA
BRANCH  20  22
ATOM     21  C   UNL     1      -5.626  -2.033   7.296  0.00  0.00    +0.048 C 
ATOM     22  C   UNL     1      -4.344  -1.829   6.486  0.00  0.00    +0.226 C 
ENDBRANCH  20  22
ENDBRANCH  11  20
ENDBRANCH   1  13
BRANCH   2  23
ATOM     23  C   UNL     1      -0.244  -2.383   1.699  0.00  0.00    +0.244 C 
ATOM     24  O   UNL     1       0.712  -2.077   1.010  0.00  0.00    -0.270 OA
ATOM     25  N   UNL     1      -1.481  -2.406   1.163  0.00  0.00    -0.307 N 
ATOM     26  H   UNL     1      -2.250  -2.586   1.726  0.00  0.00    +0.149 HD
BRANCH  25  27
ATOM     27  C   UNL     1      -1.663  -2.161  -0.269  0.00  0.00    +0.139 C 
BRANCH  27  28
ATOM     28  C   UNL     1      -3.111  -2.364  -0.633  0.00  0.00    -0.030 A 
ATOM     29  C   UNL     1      -3.556  -3.610  -1.032  0.00  0.00    +0.005 A 
ATOM     30  C   UNL     1      -4.885  -3.797  -1.361  0.00  0.00    +0.000 A 
ATOM     31  C   UNL     1      -5.768  -2.735  -1.302  0.00  0.00    +0.000 A 
ATOM     32  C   UNL     1      -5.322  -1.487  -0.909  0.00  0.00    +0.000 A 
ATOM     33  C   UNL     1      -3.994  -1.301  -0.575  0.00  0.00    +0.005 A 
ENDBRANCH  27  28
ENDBRANCH  25  27
ENDBRANCH   2  23
TORSDOF 7
