REMARK  Name = ZINC60377224
REMARK  9 active torsions:
REMARK  status: ('A' for Active; 'I' for Inactive)
REMARK    1  A    between atoms: C_1  and  C_2
REMARK    2  A    between atoms: C_2  and  C_4
REMARK    3  A    between atoms: C_2  and  N_14
REMARK    4  A    between atoms: C_8  and  S_10
REMARK    5  A    between atoms: S_10  and  N_13
REMARK    6  A    between atoms: N_14  and  C_15
REMARK    7  A    between atoms: N_14  and  C_16
REMARK    8  A    between atoms: C_16  and  C_17
REMARK    9  A    between atoms: N_22  and  C_23
REMARK                            x       y       z     vdW  Elec       q    Type
REMARK                         _______ _______ _______ _____ _____    ______ ____
ROOT
ATOM      1  C   UNL     1       0.721  -1.947  -1.209  0.00  0.00    +0.019 C 
ENDROOT
BRANCH   1   2
ATOM      2  C   UNL     1       1.308  -2.434  -2.509  0.00  0.00    +0.204 C 
ATOM      3  O   UNL     1       1.671  -1.637  -3.347  0.00  0.00    -0.277 OA
ATOM      4  N   UNL     1       1.430  -3.756  -2.740  0.00  0.00    -0.241 N 
ATOM      5  C   UNL     1       1.955  -4.192  -3.902  0.00  0.00    +0.310 C 
ATOM      6  O   UNL     1       2.318  -3.392  -4.742  0.00  0.00    -0.252 OA
ATOM      7  N   UNL     1       2.076  -5.514  -4.133  0.00  0.00    -0.269 N 
ATOM      8  H   UNL     1       1.139  -4.394  -2.069  0.00  0.00    +0.159 HD
ATOM      9  H   UNL     1       1.849  -6.151  -3.437  0.00  0.00    +0.156 HD
BRANCH   7  10
ATOM     10  C   UNL     1       2.531  -5.969  -5.378  0.00  0.00    +0.038 A 
ATOM     11  C   UNL     1       2.019  -7.141  -5.918  0.00  0.00    +0.027 A 
ATOM     12  C   UNL     1       2.467  -7.591  -7.145  0.00  0.00    +0.051 A 
ATOM     13  C   UNL     1       3.428  -6.875  -7.840  0.00  0.00    +0.166 A 
ATOM     14  C   UNL     1       3.943  -5.698  -7.301  0.00  0.00    +0.168 A 
ATOM     15  C   UNL     1       3.490  -5.245  -6.073  0.00  0.00    +0.073 A 
ATOM     16  O   UNL     1       4.864  -5.187  -8.169  0.00  0.00    -0.453 OA
ATOM     17  C   UNL     1       5.205  -6.272  -9.052  0.00  0.00    +0.466 C 
ATOM     18  O   UNL     1       4.027  -7.100  -9.047  0.00  0.00    -0.453 OA
ENDBRANCH   7  10
ENDBRANCH   1   2
BRANCH   1  19
ATOM     19  N   UNL     1       0.697  -0.478  -1.202  0.00  0.00    +0.388 N 
ATOM     20  C   UNL     1       2.074   0.034  -1.223  0.00  0.00    -0.095 C 
ATOM     21  H   UNL     1       0.203  -0.146  -2.017  0.00  0.00    -0.081 HD
BRANCH  19  23
ATOM     22  C   UNL     1      -0.008   1.525   0.017  0.00  0.00    -0.008 C 
ATOM     23  C   UNL     1       0.017  -0.005   0.010  0.00  0.00    -0.040 C 
BRANCH  23  24
ATOM     24  C   UNL     1      -1.395  -0.530   0.032  0.00  0.00    -0.059 A 
ATOM     25  C   UNL     1      -2.133  -0.577  -1.137  0.00  0.00    +0.002 A 
ATOM     26  C   UNL     1      -3.429  -1.058  -1.117  0.00  0.00    +0.002 A 
ATOM     27  C   UNL     1      -3.986  -1.494   0.071  0.00  0.00    +0.028 A 
ATOM     28  C   UNL     1      -3.248  -1.449   1.238  0.00  0.00    +0.105 A 
ATOM     29  C   UNL     1      -1.951  -0.971   1.218  0.00  0.00    +0.030 A 
BRANCH  28  30
ATOM     30  S   UNL     1      -3.959  -2.004   2.752  0.00  0.00    +0.056 S 
ATOM     31  O   UNL     1      -3.252  -1.349   3.797  0.00  0.00    -0.153 OA
ATOM     32  O   UNL     1      -5.368  -1.897   2.602  0.00  0.00    -0.153 OA
BRANCH  30  33
ATOM     33  N   UNL     1      -3.619  -3.619   2.890  0.00  0.00    -0.204 NA
ATOM     34  H   UNL     1      -3.111  -4.068   2.196  0.00  0.00    +0.144 HD
ATOM     35  H   UNL     1      -3.927  -4.115   3.664  0.00  0.00    +0.144 HD
ENDBRANCH  30  33
ENDBRANCH  28  30
ENDBRANCH  23  24
ENDBRANCH  19  23
ENDBRANCH   1  19
TORSDOF 7
