REMARK  Name = ZINC21248081
REMARK  9 active torsions:
REMARK  status: ('A' for Active; 'I' for Inactive)
REMARK    1  A    between atoms: C_1  and  C_2
REMARK    2  A    between atoms: C_2  and  O_3
REMARK    3  A    between atoms: O_3  and  C_4
REMARK    4  A    between atoms: C_6  and  C_14
REMARK    5  A    between atoms: C_9  and  O_10
REMARK    6  A    between atoms: O_10  and  C_11
REMARK    7  A    between atoms: C_11  and  C_12
REMARK    8  A    between atoms: C_11  and  C_13
REMARK    9  A    between atoms: C_19  and  C_24
REMARK                            x       y       z     vdW  Elec       q    Type
REMARK                         _______ _______ _______ _____ _____    ______ ____
ROOT
ATOM      1  C   UNL     1      -2.636   2.374   2.572  0.00  0.00    +0.136 C 
ATOM      2  C   UNL     1      -1.946   1.759   1.378  0.00  0.00    +0.036 C 
ATOM      3  C   UNL     1      -2.511   1.506   0.185  0.00  0.00    +0.017 C 
ATOM      4  C   UNL     1      -1.699   0.876  -0.934  0.00  0.00    +0.059 C 
ATOM      5  C   UNL     1      -0.242   1.326  -0.837  0.00  0.00    +0.032 C 
ATOM      6  C   UNL     1       0.295   0.879   0.528  0.00  0.00    +0.088 C 
ATOM      7  C   UNL     1      -0.578   1.456   1.601  0.00  0.00    +0.163 C 
ATOM      8  O   UNL     1      -0.096   1.673   2.696  0.00  0.00    -0.292 OA
ATOM      9  N   UNL     1      -3.807   1.762  -0.126  0.00  0.00    -0.316 N 
ATOM     10  C   UNL     1      -4.473   2.949   0.153  0.00  0.00    +0.052 A 
ATOM     11  C   UNL     1      -4.987   3.760  -0.844  0.00  0.00    +0.025 A 
ATOM     12  C   UNL     1      -5.739   4.869  -0.495  0.00  0.00    +0.002 A 
ATOM     13  C   UNL     1      -5.972   5.163   0.836  0.00  0.00    +0.002 A 
ATOM     14  C   UNL     1      -5.440   4.366   1.833  0.00  0.00    +0.025 A 
ATOM     15  C   UNL     1      -4.672   3.265   1.488  0.00  0.00    +0.049 A 
ATOM     16  N   UNL     1      -4.076   2.460   2.457  0.00  0.00    -0.331 N 
ATOM     17  H   UNL     1      -4.411   0.998  -0.639  0.00  0.00    +0.152 HD
ATOM     18  H   UNL     1      -4.718   1.883   3.140  0.00  0.00    +0.147 HD
ENDROOT
BRANCH   1  21
ATOM     19  C   UNL     1      -0.887   5.347   4.115  0.00  0.00    +0.162 A 
ATOM     20  C   UNL     1      -1.390   4.069   3.927  0.00  0.00    +0.055 A 
ATOM     21  C   UNL     1      -2.090   3.764   2.775  0.00  0.00    -0.019 A 
ATOM     22  C   UNL     1      -2.285   4.730   1.805  0.00  0.00    +0.009 A 
ATOM     23  C   UNL     1      -1.791   6.008   1.988  0.00  0.00    +0.050 A 
ATOM     24  C   UNL     1      -1.088   6.320   3.141  0.00  0.00    +0.162 A 
BRANCH  19  25
ATOM     25  O   UNL     1      -0.199   5.649   5.248  0.00  0.00    -0.489 OA
BRANCH  25  27
ATOM     26  C   UNL     1       0.762   5.124   7.403  0.00  0.00    +0.048 C 
ATOM     27  C   UNL     1      -0.031   4.600   6.204  0.00  0.00    +0.226 C 
ENDBRANCH  25  27
ENDBRANCH  19  25
BRANCH  24  28
ATOM     28  O   UNL     1      -0.597   7.576   3.321  0.00  0.00    -0.486 OA
BRANCH  28  29
ATOM     29  C   UNL     1      -0.947   8.555   2.341  0.00  0.00    +0.167 C 
ATOM     30  C   UNL     1      -0.878   9.950   2.967  0.00  0.00    +0.051 C 
ATOM     31  C   UNL     1       0.031   8.474   1.167  0.00  0.00    +0.051 C 
ENDBRANCH  28  29
ENDBRANCH  24  28
ENDBRANCH   1  21
BRANCH   5  32
ATOM     32  C   UNL     1       0.564   0.686  -1.938  0.00  0.00    -0.044 A 
ATOM     33  C   UNL     1       0.625  -0.691  -2.039  0.00  0.00    +0.004 A 
ATOM     34  C   UNL     1       1.361  -1.278  -3.051  0.00  0.00    +0.000 A 
ATOM     35  C   UNL     1       2.044  -0.487  -3.957  0.00  0.00    +0.000 A 
ATOM     36  C   UNL     1       1.987   0.890  -3.853  0.00  0.00    +0.000 A 
ATOM     37  C   UNL     1       1.247   1.477  -2.843  0.00  0.00    +0.004 A 
ENDBRANCH   5  32
TORSDOF 6
