REMARK  Name = ZINC35684674
REMARK  3 active torsions:
REMARK  status: ('A' for Active; 'I' for Inactive)
REMARK    1  A    between atoms: C_4  and  C_7
REMARK    2  A    between atoms: C_16  and  C_18
REMARK    3  A    between atoms: N_20  and  C_21
REMARK                            x       y       z     vdW  Elec       q    Type
REMARK                         _______ _______ _______ _____ _____    ______ ____
ROOT
ATOM      1  C   UNL     1       3.681  -0.696  -0.029  0.00  0.00    +0.042 A 
ATOM      2  C   UNL     1       4.765  -0.448  -0.898  0.00  0.00    +0.144 A 
ATOM      3  N   UNL     1       5.731  -1.282  -0.601  0.00  0.00    -0.177 NA
ATOM      4  N   UNL     1       5.318  -2.089   0.455  0.00  0.00    -0.237 N 
ATOM      5  C   UNL     1       4.057  -1.718   0.804  0.00  0.00    +0.132 A 
ATOM      6  N   UNL     1       3.362  -2.339   1.838  0.00  0.00    -0.270 N 
ATOM      7  C   UNL     1       4.068  -3.125   2.683  0.00  0.00    +0.221 C 
ATOM      8  O   UNL     1       3.480  -3.764   3.529  0.00  0.00    -0.275 OA
ATOM      9  C   UNL     1       5.565  -3.223   2.596  0.00  0.00    +0.132 C 
ATOM     10  C   UNL     1       6.042  -3.164   1.139  0.00  0.00    +0.204 C 
ATOM     11  H   UNL     1       2.407  -2.212   1.949  0.00  0.00    +0.156 HD
ENDROOT
BRANCH   1  15
ATOM     12  C   UNL     1      -0.044   1.355   0.011  0.00  0.00    +0.000 A 
ATOM     13  C   UNL     1       1.138   2.073   0.013  0.00  0.00    +0.001 A 
ATOM     14  C   UNL     1       2.350   1.413  -0.000  0.00  0.00    +0.008 A 
ATOM     15  C   UNL     1       2.382   0.019  -0.014  0.00  0.00    -0.013 A 
ATOM     16  C   UNL     1       1.187  -0.699  -0.016  0.00  0.00    +0.008 A 
ATOM     17  C   UNL     1      -0.019  -0.028  -0.003  0.00  0.00    +0.001 A 
ENDBRANCH   1  15
BRANCH  10  18
ATOM     18  C   UNL     1       5.768  -4.476   0.449  0.00  0.00    +0.242 C 
ATOM     19  O   UNL     1       5.039  -4.511  -0.520  0.00  0.00    -0.273 OA
ATOM     20  N   UNL     1       6.332  -5.609   0.910  0.00  0.00    -0.281 N 
ATOM     21  H   UNL     1       6.977  -5.571   1.633  0.00  0.00    +0.155 HD
BRANCH  20  22
ATOM     22  C   UNL     1       5.988  -6.844   0.343  0.00  0.00    +0.072 A 
ATOM     23  C   UNL     1       4.762  -7.001  -0.288  0.00  0.00    +0.029 A 
ATOM     24  C   UNL     1       4.423  -8.219  -0.846  0.00  0.00    +0.043 A 
ATOM     25  C   UNL     1       5.305  -9.283  -0.778  0.00  0.00    +0.161 A 
ATOM     26  C   UNL     1       6.531  -9.131  -0.149  0.00  0.00    +0.195 A 
ATOM     27  C   UNL     1       6.877  -7.911   0.406  0.00  0.00    +0.182 A 
ATOM     28  F   UNL     1       8.073  -7.759   1.014  0.00  0.00    -0.200 F 
ATOM     29  F   UNL     1       7.390 -10.172  -0.083  0.00  0.00    -0.199 F 
ATOM     30  F   UNL     1       4.970 -10.473  -1.325  0.00  0.00    -0.202 F 
ENDBRANCH  20  22
ENDBRANCH  10  18
TORSDOF 3
