REMARK  Name = ZINC66128392
REMARK  6 active torsions:
REMARK  status: ('A' for Active; 'I' for Inactive)
REMARK    1  A    between atoms: C_1  and  C_2
REMARK    2  A    between atoms: C_2  and  C_3
REMARK    3  A    between atoms: C_3  and  C_5
REMARK    4  A    between atoms: C_3  and  O_6
REMARK    5  A    between atoms: O_6  and  C_7
REMARK    6  A    between atoms: C_16  and  C_17
REMARK                            x       y       z     vdW  Elec       q    Type
REMARK                         _______ _______ _______ _____ _____    ______ ____
ROOT
ATOM      1  C   UNL     1      -3.376   0.387   1.369  0.00  0.00    +0.128 A 
ATOM      2  C   UNL     1      -4.138   0.131   0.224  0.00  0.00    +0.046 A 
ATOM      3  C   UNL     1      -5.464  -0.153   0.316  0.00  0.00    +0.012 A 
ATOM      4  C   UNL     1      -6.083  -0.191   1.578  0.00  0.00    -0.017 A 
ATOM      5  C   UNL     1      -7.452  -0.481   1.709  0.00  0.00    +0.008 A 
ATOM      6  C   UNL     1      -8.019  -0.510   2.946  0.00  0.00    +0.001 A 
ATOM      7  C   UNL     1      -7.262  -0.256   4.089  0.00  0.00    +0.001 A 
ATOM      8  C   UNL     1      -5.934   0.029   4.000  0.00  0.00    +0.009 A 
ATOM      9  C   UNL     1      -5.314   0.068   2.740  0.00  0.00    -0.008 A 
ATOM     10  C   UNL     1      -3.944   0.353   2.610  0.00  0.00    +0.040 A 
ENDROOT
BRANCH  10  11
ATOM     11  C   UNL     1      -3.108   0.625   3.834  0.00  0.00    +0.194 C 
ATOM     12  N   UNL     1      -3.401  -0.387   4.857  0.00  0.00    -0.322 N 
ATOM     13  C   UNL     1      -2.868  -1.661   4.702  0.00  0.00    +0.041 A 
ATOM     14  C   UNL     1      -3.505  -2.787   5.195  0.00  0.00    +0.024 A 
ATOM     15  C   UNL     1      -2.934  -4.032   5.010  0.00  0.00    +0.002 A 
ATOM     16  C   UNL     1      -1.729  -4.161   4.336  0.00  0.00    +0.001 A 
ATOM     17  C   UNL     1      -1.081  -3.049   3.840  0.00  0.00    +0.015 A 
ATOM     18  C   UNL     1      -1.645  -1.789   4.020  0.00  0.00    +0.058 A 
ATOM     19  C   UNL     1      -0.991  -0.567   3.518  0.00  0.00    +0.247 C 
ATOM     20  O   UNL     1       0.168  -0.597   3.149  0.00  0.00    -0.270 OA
ATOM     21  N   UNL     1      -1.692   0.581   3.473  0.00  0.00    -0.289 N 
ATOM     22  H   UNL     1      -3.953  -0.170   5.625  0.00  0.00    +0.148 HD
ATOM     23  H   UNL     1      -1.246   1.396   3.193  0.00  0.00    +0.151 HD
ENDBRANCH  10  11
BRANCH   1  24
ATOM     24  O   UNL     1      -2.052   0.667   1.245  0.00  0.00    -0.489 OA
BRANCH  24  25
ATOM     25  C   UNL     1      -1.535   0.782  -0.082  0.00  0.00    +0.170 C 
ATOM     26  C   UNL     1      -1.151  -0.605  -0.602  0.00  0.00    +0.052 C 
BRANCH  25  28
ATOM     27  C   UNL     1      -0.711   3.110   0.295  0.00  0.00    +0.007 C 
ATOM     28  C   UNL     1      -0.299   1.683  -0.071  0.00  0.00    +0.041 C 
ENDBRANCH  25  28
ENDBRANCH  24  25
ENDBRANCH   1  24
TORSDOF 4
