REMARK  Name = ZINC13065081
REMARK  13 active torsions:
REMARK  status: ('A' for Active; 'I' for Inactive)
REMARK    1  A    between atoms: C_1  and  C_2
REMARK    2  A    between atoms: C_2  and  C_3
REMARK    3  A    between atoms: C_3  and  C_5
REMARK    4  A    between atoms: C_3  and  N_76
REMARK    5  A    between atoms: N_9  and  C_10
REMARK    6  A    between atoms: C_10  and  C_11
REMARK    7  A    between atoms: C_14  and  O_17
REMARK    8  A    between atoms: O_17  and  C_18
REMARK    9  A    between atoms: C_19  and  C_20
REMARK   10  A    between atoms: C_19  and  N_76
REMARK   11  A    between atoms: C_25  and  C_33
REMARK   12  A    between atoms: C_26  and  C_32
REMARK   13  A    between atoms: C_34  and  N_76
REMARK                            x       y       z     vdW  Elec       q    Type
REMARK                         _______ _______ _______ _____ _____    ______ ____
ROOT
ATOM      1  N   UNL     1       0.139   0.090   0.096  0.00  0.00    +0.391 N 
ATOM      2  H   UNL     1      -0.781  -0.261   0.386  0.00  0.00    -0.080 HD
ENDROOT
BRANCH   1   3
ATOM      3  C   UNL     1       1.155  -0.366   1.068  0.00  0.00    -0.067 C 
ATOM      4  C   UNL     1       2.563  -0.034   0.569  0.00  0.00    -0.015 C 
ATOM      5  C   UNL     1       3.594  -0.520   1.590  0.00  0.00    -0.002 C 
ATOM      6  C   UNL     1       3.460  -2.033   1.769  0.00  0.00    -0.000 C 
ATOM      7  C   UNL     1       2.053  -2.365   2.268  0.00  0.00    -0.002 C 
ATOM      8  C   UNL     1       1.022  -1.880   1.247  0.00  0.00    -0.015 C 
ENDBRANCH   1   3
BRANCH   1   9
ATOM      9  C   UNL     1       0.453  -0.439  -1.248  0.00  0.00    +0.003 C 
BRANCH   9  10
ATOM     10  C   UNL     1       1.557   0.364  -1.886  0.00  0.00    +0.138 A 
ATOM     11  N   UNL     1       1.643   1.671  -1.942  0.00  0.00    -0.115 NA
ATOM     12  N   UNL     1       2.728   1.973  -2.566  0.00  0.00    -0.023 NA
ATOM     13  N   UNL     1       3.338   0.892  -2.911  0.00  0.00    -0.044 NA
ATOM     14  N   UNL     1       2.650  -0.121  -2.505  0.00  0.00    -0.226 N 
BRANCH  14  15
ATOM     15  C   UNL     1       2.992  -1.534  -2.686  0.00  0.00    +0.182 C 
BRANCH  15  16
ATOM     16  C   UNL     1       2.405  -2.031  -3.982  0.00  0.00    -0.026 A 
ATOM     17  C   UNL     1       1.136  -2.579  -3.999  0.00  0.00    +0.009 A 
ATOM     18  C   UNL     1       0.594  -3.030  -5.187  0.00  0.00    +0.046 A 
ATOM     19  C   UNL     1       1.328  -2.942  -6.361  0.00  0.00    +0.120 A 
ATOM     20  C   UNL     1       2.603  -2.397  -6.340  0.00  0.00    +0.046 A 
ATOM     21  C   UNL     1       3.139  -1.942  -5.150  0.00  0.00    +0.009 A 
BRANCH  19  22
ATOM     22  O   UNL     1       0.799  -3.390  -7.530  0.00  0.00    -0.495 OA
ATOM     23  C   UNL     1      -0.519  -3.940  -7.477  0.00  0.00    +0.277 C 
ENDBRANCH  19  22
ENDBRANCH  15  16
ENDBRANCH  14  15
ENDBRANCH   9  10
BRANCH   9  25
ATOM     24  C   UNL     1      -1.895  -1.247  -1.518  0.00  0.00    +0.002 C 
ATOM     25  C   UNL     1      -0.805  -0.354  -2.114  0.00  0.00    -0.011 C 
ENDBRANCH   9  25
ENDBRANCH   1   9
BRANCH   1  26
ATOM     26  C   UNL     1       0.101   1.567   0.061  0.00  0.00    -0.036 C 
BRANCH  26  27
ATOM     27  C   UNL     1      -0.563   2.064   1.320  0.00  0.00    +0.001 A 
ATOM     28  C   UNL     1       0.194   2.454   2.374  0.00  0.00    +0.017 A 
ATOM     29  C   UNL     1      -0.482   2.932   3.582  0.00  0.00    -0.001 A 
ATOM     30  C   UNL     1       0.246   3.348   4.702  0.00  0.00    +0.010 A 
ATOM     31  C   UNL     1      -0.415   3.789   5.813  0.00  0.00    +0.004 A 
ATOM     32  C   UNL     1      -1.803   3.827   5.841  0.00  0.00    -0.046 A 
ATOM     33  C   UNL     1      -2.540   3.421   4.750  0.00  0.00    -0.024 A 
ATOM     34  C   UNL     1      -1.889   2.969   3.607  0.00  0.00    +0.052 A 
ATOM     35  N   UNL     1      -2.601   2.558   2.500  0.00  0.00    -0.322 N 
ATOM     36  H   UNL     1      -3.571   2.585   2.519  0.00  0.00    +0.169 HD
ATOM     37  C   UNL     1      -1.971   2.126   1.394  0.00  0.00    +0.251 A 
ATOM     38  O   UNL     1      -2.633   1.775   0.432  0.00  0.00    -0.268 OA
ATOM     39  C   UNL     1      -4.045   3.467   4.795  0.00  0.00    +0.046 C 
ATOM     40  C   UNL     1      -2.510   4.317   7.079  0.00  0.00    +0.044 C 
ENDBRANCH  26  27
ENDBRANCH   1  26
TORSDOF 9
