REMARK  Name = ZINC38742720
REMARK  6 active torsions:
REMARK  status: ('A' for Active; 'I' for Inactive)
REMARK    1  A    between atoms: C_1  and  C_2
REMARK    2  A    between atoms: C_2  and  C_3
REMARK    3  A    between atoms: C_2  and  C_4
REMARK    4  A    between atoms: C_6  and  C_10
REMARK    5  A    between atoms: C_18  and  C_20
REMARK    6  A    between atoms: C_21  and  C_22
REMARK                            x       y       z     vdW  Elec       q    Type
REMARK                         _______ _______ _______ _____ _____    ______ ____
ROOT
ATOM      1  C   UNL     1      -3.607  -3.034  -0.220  0.00  0.00    +0.206 C 
ATOM      2  N   UNL     1      -3.340  -3.804  -1.458  0.00  0.00    -0.231 NA
ATOM      3  N   UNL     1      -4.628  -4.375  -1.884  0.00  0.00    -0.224 NA
ATOM      4  C   UNL     1      -5.614  -3.461  -1.273  0.00  0.00    +0.240 C 
ATOM      5  N   UNL     1      -5.033  -3.274   0.099  0.00  0.00    -0.206 N 
ATOM      6  N   UNL     1      -5.942  -3.460   1.117  0.00  0.00    -0.174 NA
ATOM      7  C   UNL     1      -7.092  -4.053   0.940  0.00  0.00    +0.118 C 
ATOM      8  S   UNL     1      -7.171  -4.331  -0.858  0.00  0.00    -0.063 S 
ATOM      9  H   UNL     1      -2.952  -3.210  -2.176  0.00  0.00    +0.143 HD
ATOM     10  H   UNL     1      -4.710  -4.375  -2.889  0.00  0.00    +0.144 HD
ENDROOT
BRANCH   1  13
ATOM     11  C   UNL     1      -1.412  -0.526   0.013  0.00  0.00    +0.064 C 
ATOM     12  C   UNL     1      -1.940  -1.303  -0.935  0.00  0.00    +0.030 C 
ATOM     13  C   UNL     1      -3.362  -1.543  -0.460  0.00  0.00    +0.190 C 
ATOM     14  N   UNL     1      -3.420  -0.792   0.805  0.00  0.00    -0.177 NA
ATOM     15  N   UNL     1      -2.315  -0.275   0.986  0.00  0.00    -0.158 NA
BRANCH  11  17
ATOM     16  C   UNL     1      -0.019   1.526   0.010  0.00  0.00    +0.014 C 
ATOM     17  C   UNL     1       0.002  -0.004   0.002  0.00  0.00    +0.033 C 
ATOM     18  C   UNL     1       0.742  -0.511   1.242  0.00  0.00    +0.014 C 
ENDBRANCH  11  17
ENDBRANCH   1  13
BRANCH   7  19
ATOM     19  C   UNL     1      -8.094  -4.403   1.951  0.00  0.00    +0.037 C 
ATOM     20  C   UNL     1      -7.873  -4.111   3.247  0.00  0.00    +0.010 C 
BRANCH  20  21
ATOM     21  C   UNL     1      -8.880  -4.463   4.263  0.00  0.00    -0.025 A 
ATOM     22  C   UNL     1     -10.062  -5.107   3.886  0.00  0.00    +0.009 A 
ATOM     23  C   UNL     1     -11.000  -5.434   4.842  0.00  0.00    +0.020 A 
ATOM     24  C   UNL     1     -10.772  -5.126   6.173  0.00  0.00    +0.041 A 
ATOM     25  C   UNL     1      -9.603  -4.488   6.554  0.00  0.00    +0.020 A 
ATOM     26  C   UNL     1      -8.654  -4.160   5.609  0.00  0.00    +0.009 A 
ATOM     27 CL   UNL     1     -11.959  -5.542   7.371  0.00  0.00    -0.084 Cl
ENDBRANCH  20  21
ENDBRANCH   7  19
TORSDOF 4
