REMARK  Name = ZINC39696069
REMARK  11 active torsions:
REMARK  status: ('A' for Active; 'I' for Inactive)
REMARK    1  A    between atoms: C_1  and  C_2
REMARK    2  A    between atoms: C_2  and  C_3
REMARK    3  A    between atoms: C_6  and  C_9
REMARK    4  A    between atoms: C_9  and  C_11
REMARK    5  A    between atoms: C_9  and  N_12
REMARK    6  A    between atoms: C_13  and  C_15
REMARK    7  A    between atoms: C_26  and  C_28
REMARK    8  A    between atoms: C_28  and  C_29
REMARK    9  A    between atoms: C_28  and  C_31
REMARK   10  A    between atoms: C_29  and  C_30
REMARK   11  A    between atoms: C_31  and  C_32
REMARK                            x       y       z     vdW  Elec       q    Type
REMARK                         _______ _______ _______ _____ _____    ______ ____
ROOT
ATOM      1  C   UNL     1      -8.327  -0.076  -2.921  0.00  0.00    +0.100 C 
ATOM      2  C   UNL     1      -8.198  -1.084  -4.085  0.00  0.00    +0.121 C 
ATOM      3  N   UNL     1      -9.247  -2.097  -3.821  0.00  0.00    -0.300 N 
ATOM      4  C   UNL     1     -10.402  -1.311  -3.326  0.00  0.00    +0.115 C 
ATOM      5  C   UNL     1      -9.776  -0.225  -2.428  0.00  0.00    -0.004 C 
ATOM      6  C   UNL     1     -10.528   1.092  -2.590  0.00  0.00    -0.010 C 
ATOM      7  C   UNL     1     -11.948   0.936  -2.039  0.00  0.00    -0.082 C 
ATOM      8  N   UNL     1     -11.887   0.555  -0.623  0.00  0.00    +0.379 N 
ATOM      9  C   UNL     1     -11.245  -0.757  -0.485  0.00  0.00    -0.082 C 
ATOM     10  C   UNL     1      -9.795  -0.672  -0.970  0.00  0.00    -0.010 C 
ATOM     11  C   UNL     1      -9.168  -3.432  -3.992  0.00  0.00    +0.219 C 
ATOM     12  O   UNL     1     -10.149  -4.124  -3.819  0.00  0.00    -0.275 OA
ATOM     13  H   UNL     1     -11.354   1.244  -0.114  0.00  0.00    -0.086 HD
ATOM     14  H   UNL     1     -12.822   0.512  -0.247  0.00  0.00    -0.086 HD
ENDROOT
BRANCH   1  16
ATOM     15  N   UNL     1      -6.797   0.560  -1.085  0.00  0.00    -0.308 N 
ATOM     16  C   UNL     1      -7.360  -0.421  -1.818  0.00  0.00    +0.219 C 
ATOM     17  O   UNL     1      -7.088  -1.581  -1.591  0.00  0.00    -0.275 OA
ATOM     18  H   UNL     1      -7.014   1.487  -1.267  0.00  0.00    +0.149 HD
BRANCH  15  19
ATOM     19  C   UNL     1      -5.856   0.225  -0.013  0.00  0.00    +0.100 C 
ATOM     20  C   UNL     1      -4.453   0.058  -0.599  0.00  0.00    +0.033 C 
BRANCH  19  24
ATOM     21  C   UNL     1      -5.823   3.361   2.887  0.00  0.00    -0.048 A 
ATOM     22  C   UNL     1      -5.772   2.042   3.295  0.00  0.00    +0.004 A 
ATOM     23  C   UNL     1      -5.783   1.027   2.357  0.00  0.00    +0.006 A 
ATOM     24  C   UNL     1      -5.845   1.331   1.010  0.00  0.00    -0.027 A 
ATOM     25  C   UNL     1      -5.897   2.651   0.601  0.00  0.00    +0.006 A 
ATOM     26  C   UNL     1      -5.890   3.666   1.540  0.00  0.00    +0.004 A 
BRANCH  21  28
ATOM     27  C   UNL     1      -7.248   4.800   4.318  0.00  0.00    +0.009 C 
ATOM     28  C   UNL     1      -5.811   4.468   3.909  0.00  0.00    +0.032 C 
ENDBRANCH  21  28
ENDBRANCH  19  24
ENDBRANCH  15  19
ENDBRANCH   1  16
BRANCH  11  29
ATOM     29  C   UNL     1      -7.862  -4.064  -4.399  0.00  0.00    +0.075 C 
BRANCH  29  30
ATOM     30  C   UNL     1      -6.997  -4.290  -3.157  0.00  0.00    +0.009 C 
ATOM     31  C   UNL     1      -7.785  -5.102  -2.128  0.00  0.00    +0.004 C 
ENDBRANCH  29  30
BRANCH  29  32
ATOM     32  C   UNL     1      -8.135  -5.405  -5.082  0.00  0.00    +0.009 C 
ATOM     33  C   UNL     1      -6.812  -6.024  -5.538  0.00  0.00    +0.004 C 
ENDBRANCH  29  32
ENDBRANCH  11  29
TORSDOF 7
