REMARK  Name = ZINC35747237
REMARK  14 active torsions:
REMARK  status: ('A' for Active; 'I' for Inactive)
REMARK    1  A    between atoms: C_1  and  C_2
REMARK    2  A    between atoms: C_7  and  C_8
REMARK    3  A    between atoms: C_17  and  C_19
REMARK    4  A    between atoms: C_19  and  N_20
REMARK    5  A    between atoms: N_20  and  C_21
REMARK    6  A    between atoms: N_20  and  C_33
REMARK    7  A    between atoms: C_21  and  C_22
REMARK    8  A    between atoms: C_22  and  C_24
REMARK    9  A    between atoms: C_22  and  O_32
REMARK   10  A    between atoms: C_24  and  O_25
REMARK   11  A    between atoms: O_25  and  C_26
REMARK   12  A    between atoms: C_26  and  C_27
REMARK   13  A    between atoms: C_33  and  C_34
REMARK   14  A    between atoms: C_33  and  C_35
REMARK                            x       y       z     vdW  Elec       q    Type
REMARK                         _______ _______ _______ _____ _____    ______ ____
ROOT
ATOM      1  C   UNL     1      -0.433  -0.542   2.940  0.00  0.00    +0.004 A 
ATOM      2  C   UNL     1       0.610  -0.660   3.797  0.00  0.00    +0.056 A 
ATOM      3  S   UNL     1       0.191   0.465   5.114  0.00  0.00    -0.076 S 
ATOM      4  C   UNL     1      -1.359   1.062   4.490  0.00  0.00    +0.116 A 
ATOM      5  C   UNL     1      -1.513   0.379   3.272  0.00  0.00    +0.080 A 
ATOM      6  C   UNL     1      -2.705   0.681   2.538  0.00  0.00    +0.260 A 
ATOM      7  O   UNL     1      -2.929   0.135   1.472  0.00  0.00    -0.267 OA
ATOM      8  N   UNL     1      -3.573   1.576   3.044  0.00  0.00    -0.312 N 
ATOM      9  H   UNL     1      -4.382   1.784   2.551  0.00  0.00    +0.170 HD
ATOM     10  C   UNL     1      -3.339   2.193   4.230  0.00  0.00    +0.094 A 
ATOM     11  N   UNL     1      -2.266   1.932   4.927  0.00  0.00    -0.229 NA
ENDROOT
BRANCH   1  18
ATOM     12  C   UNL     1      -0.307   0.817   0.389  0.00  0.00    +0.044 C 
ATOM     13  C   UNL     1      -0.412  -0.685   0.451  0.00  0.00    -0.043 A 
ATOM     14  C   UNL     1      -0.443  -1.425  -0.714  0.00  0.00    +0.004 A 
ATOM     15  C   UNL     1      -0.540  -2.804  -0.658  0.00  0.00    +0.000 A 
ATOM     16  C   UNL     1      -0.606  -3.450   0.564  0.00  0.00    +0.001 A 
ATOM     17  C   UNL     1      -0.576  -2.721   1.735  0.00  0.00    +0.009 A 
ATOM     18  C   UNL     1      -0.472  -1.331   1.685  0.00  0.00    -0.014 A 
ENDBRANCH   1  18
BRANCH  10  19
ATOM     19  C   UNL     1      -4.340   3.189   4.757  0.00  0.00    -0.003 C 
BRANCH  19  20
ATOM     20  N   UNL     1      -3.795   3.847   5.952  0.00  0.00    +0.388 N 
ATOM     21  H   UNL     1      -3.260   3.180   6.488  0.00  0.00    -0.081 HD
BRANCH  20  22
ATOM     22  C   UNL     1      -2.924   4.958   5.545  0.00  0.00    -0.074 C 
ATOM     23  C   UNL     1      -1.781   4.421   4.681  0.00  0.00    -0.014 C 
ATOM     24  C   UNL     1      -3.737   5.974   4.740  0.00  0.00    -0.014 C 
ENDBRANCH  20  22
BRANCH  20  25
ATOM     25  C   UNL     1      -4.897   4.364   6.773  0.00  0.00    -0.044 C 
BRANCH  25  26
ATOM     26  C   UNL     1      -4.339   4.921   8.084  0.00  0.00    +0.124 C 
BRANCH  26  27
ATOM     27  O   UNL     1      -3.660   3.883   8.793  0.00  0.00    -0.391 OA
ATOM     28  H   UNL     1      -4.222   3.129   9.019  0.00  0.00    +0.210 HD
ENDBRANCH  26  27
BRANCH  26  29
ATOM     29  C   UNL     1      -5.488   5.456   8.941  0.00  0.00    +0.189 C 
BRANCH  29  30
ATOM     30  O   UNL     1      -4.958   6.081  10.111  0.00  0.00    -0.370 OA
BRANCH  30  31
ATOM     31  C   UNL     1      -5.954   6.618  10.985  0.00  0.00    +0.234 C 
BRANCH  31  32
ATOM     32  C   UNL     1      -5.286   7.249  12.180  0.00  0.00    +0.130 A 
ATOM     33  C   UNL     1      -4.895   8.533  12.275  0.00  0.00    +0.047 A 
ATOM     34  C   UNL     1      -4.321   8.692  13.557  0.00  0.00    +0.041 A 
ATOM     35  C   UNL     1      -4.396   7.496  14.169  0.00  0.00    +0.195 A 
ATOM     36  O   UNL     1      -4.987   6.628  13.332  0.00  0.00    -0.465 OA
ENDBRANCH  31  32
ENDBRANCH  30  31
ENDBRANCH  29  30
ENDBRANCH  26  29
ENDBRANCH  25  26
ENDBRANCH  20  25
ENDBRANCH  19  20
ENDBRANCH  10  19
TORSDOF 11
