REMARK  Name = ZINC12412576
REMARK  7 active torsions:
REMARK  status: ('A' for Active; 'I' for Inactive)
REMARK    1  A    between atoms: C_1  and  C_2
REMARK    2  A    between atoms: C_2  and  O_3
REMARK    3  A    between atoms: O_3  and  C_4
REMARK    4  A    between atoms: C_4  and  C_6
REMARK    5  A    between atoms: C_7  and  C_23
REMARK    6  A    between atoms: C_12  and  C_14
REMARK    7  A    between atoms: C_23  and  N_24
REMARK                            x       y       z     vdW  Elec       q    Type
REMARK                         _______ _______ _______ _____ _____    ______ ____
ROOT
ATOM      1  C   UNL     1       1.174   4.168   1.339  0.00  0.00    +0.079 C 
ATOM      2  C   UNL     1       2.304   4.772   1.761  0.00  0.00    +0.038 C 
ATOM      3  N   UNL     1       3.322   5.049   0.893  0.00  0.00    -0.271 N 
ATOM      4  C   UNL     1       3.285   4.753  -0.412  0.00  0.00    +0.304 C 
ATOM      5  O   UNL     1       4.241   5.038  -1.107  0.00  0.00    -0.252 OA
ATOM      6  N   UNL     1       2.223   4.149  -0.981  0.00  0.00    -0.288 N 
ATOM      7  C   UNL     1       1.071   3.808  -0.129  0.00  0.00    +0.144 C 
ATOM      8  H   UNL     1       4.235   5.543   1.256  0.00  0.00    +0.156 HD
ATOM      9  H   UNL     1       2.203   3.910  -2.055  0.00  0.00    +0.151 HD
ENDROOT
BRANCH   7  10
ATOM     10  C   UNL     1       0.844   2.322  -0.228  0.00  0.00    -0.019 A 
ATOM     11  C   UNL     1       1.920   1.455  -0.178  0.00  0.00    +0.009 A 
ATOM     12  C   UNL     1       1.716   0.090  -0.270  0.00  0.00    +0.050 A 
ATOM     13  C   UNL     1       0.433  -0.411  -0.411  0.00  0.00    +0.166 A 
ATOM     14  C   UNL     1      -0.651   0.462  -0.460  0.00  0.00    +0.167 A 
ATOM     15  C   UNL     1      -0.440   1.828  -0.368  0.00  0.00    +0.055 A 
ATOM     16  O   UNL     1      -1.795  -0.270  -0.600  0.00  0.00    -0.453 OA
ATOM     17  C   UNL     1      -1.367  -1.570  -1.046  0.00  0.00    +0.466 C 
ATOM     18  O   UNL     1      -0.032  -1.690  -0.521  0.00  0.00    -0.453 OA
ENDBRANCH   7  10
BRANCH   1  19
ATOM     19  C   UNL     1       0.119   3.882   2.237  0.00  0.00    +0.339 C 
ATOM     20  O   UNL     1       0.174   4.280   3.386  0.00  0.00    -0.245 OA
BRANCH  19  21
ATOM     21  O   UNL     1      -0.947   3.167   1.821  0.00  0.00    -0.462 OA
BRANCH  21  23
ATOM     22  C   UNL     1      -3.092   2.098   2.130  0.00  0.00    +0.048 C 
ATOM     23  C   UNL     1      -1.974   2.915   2.781  0.00  0.00    +0.229 C 
ENDBRANCH  21  23
ENDBRANCH  19  21
ENDBRANCH   1  19
BRANCH   2  24
ATOM     24  C   UNL     1       2.447   5.148   3.214  0.00  0.00    +0.136 C 
BRANCH  24  25
ATOM     25  N   UNL     1       1.823   6.458   3.444  0.00  0.00    -0.294 NA
ATOM     26  C   UNL     1       2.554   7.520   2.739  0.00  0.00    +0.104 C 
ATOM     27  C   UNL     1       1.829   8.853   2.939  0.00  0.00    +0.125 C 
ATOM     28  N   UNL     1       1.736   9.147   4.376  0.00  0.00    -0.283 N 
ATOM     29  C   UNL     1       1.006   8.085   5.081  0.00  0.00    +0.125 C 
ATOM     30  C   UNL     1       1.731   6.751   4.881  0.00  0.00    +0.104 C 
ATOM     31  C   UNL     1       1.152  10.374   4.592  0.00  0.00    +0.291 A 
ATOM     32  N   UNL     1       0.085  10.579   5.321  0.00  0.00    -0.195 NA
ATOM     33  C   UNL     1      -0.201  11.910   5.312  0.00  0.00    +0.111 A 
ATOM     34  C   UNL     1      -1.200  12.685   5.902  0.00  0.00    +0.031 A 
ATOM     35  C   UNL     1      -1.224  14.046   5.691  0.00  0.00    +0.002 A 
ATOM     36  C   UNL     1      -0.262  14.649   4.895  0.00  0.00    +0.004 A 
ATOM     37  C   UNL     1       0.732  13.894   4.305  0.00  0.00    +0.048 A 
ATOM     38  C   UNL     1       0.770  12.524   4.507  0.00  0.00    +0.157 A 
ATOM     39  O   UNL     1       1.591  11.537   4.080  0.00  0.00    -0.424 OA
ENDBRANCH  24  25
ENDBRANCH   2  24
TORSDOF 6
