REMARK  Name = ZINC01334438
REMARK  15 active torsions:
REMARK  status: ('A' for Active; 'I' for Inactive)
REMARK    1  A    between atoms: C_1  and  C_2
REMARK    2  A    between atoms: C_2  and  O_3
REMARK    3  A    between atoms: O_3  and  C_4
REMARK    4  A    between atoms: C_4  and  C_6
REMARK    5  A    between atoms: C_6  and  N_7
REMARK    6  A    between atoms: C_8  and  C_12
REMARK    7  A    between atoms: C_12  and  C_14
REMARK    8  A    between atoms: C_12  and  N_17
REMARK    9  A    between atoms: C_14  and  C_15
REMARK   10  A    between atoms: C_14  and  C_16
REMARK   11  A    between atoms: N_17  and  C_18
REMARK   12  A    between atoms: N_17  and  C_26
REMARK   13  A    between atoms: C_18  and  C_19
REMARK   14  A    between atoms: C_19  and  C_20
REMARK   15  A    between atoms: C_26  and  C_27
REMARK                            x       y       z     vdW  Elec       q    Type
REMARK                         _______ _______ _______ _____ _____    ______ ____
ROOT
ATOM      1  N   UNL     1      -1.775  -5.035  -2.481  0.00  0.00    +0.390 N 
ATOM      2  H   UNL     1      -2.126  -5.979  -2.538  0.00  0.00    -0.080 HD
ENDROOT
BRANCH   1   3
ATOM      3  C   UNL     1      -2.623  -4.252  -1.572  0.00  0.00    +0.006 C 
BRANCH   3   5
ATOM      4  N   UNL     1      -4.950  -4.872  -0.733  0.00  0.00    -0.220 N 
ATOM      5  C   UNL     1      -4.058  -4.687  -1.723  0.00  0.00    +0.139 A 
ATOM      6  N   UNL     1      -4.679  -4.958  -2.845  0.00  0.00    -0.115 NA
ATOM      7  N   UNL     1      -5.890  -5.291  -2.559  0.00  0.00    -0.023 NA
ATOM      8  N   UNL     1      -6.056  -5.246  -1.283  0.00  0.00    -0.043 NA
BRANCH   4   9
ATOM      9  C   UNL     1      -4.710  -4.688   0.700  0.00  0.00    +0.267 C 
BRANCH   9  10
ATOM     10  C   UNL     1      -4.114  -5.947   1.275  0.00  0.00    +0.329 C 
ATOM     11  O   UNL     1      -3.996  -6.931   0.582  0.00  0.00    -0.249 OA
BRANCH  10  12
ATOM     12  O   UNL     1      -3.713  -5.977   2.556  0.00  0.00    -0.464 OA
BRANCH  12  14
ATOM     13  C   UNL     1      -2.762  -7.045   4.503  0.00  0.00    +0.048 C 
ATOM     14  C   UNL     1      -3.157  -7.203   3.034  0.00  0.00    +0.229 C 
ENDBRANCH  12  14
ENDBRANCH  10  12
ENDBRANCH   9  10
ENDBRANCH   4   9
ENDBRANCH   3   5
BRANCH   3  15
ATOM     15  C   UNL     1      -2.501  -2.766  -1.914  0.00  0.00    -0.024 C 
ATOM     16  C   UNL     1      -3.498  -1.966  -1.074  0.00  0.00    +0.006 C 
ATOM     17  C   UNL     1      -1.080  -2.288  -1.611  0.00  0.00    +0.006 C 
ENDBRANCH   3  15
ENDBRANCH   1   3
BRANCH   1  18
ATOM     18  C   UNL     1      -0.398  -5.055  -1.971  0.00  0.00    -0.073 C 
BRANCH  18  19
ATOM     19  C   UNL     1      -0.356  -5.816  -0.644  0.00  0.00    +0.016 C 
BRANCH  19  20
ATOM     20  C   UNL     1       1.034  -5.744  -0.067  0.00  0.00    -0.049 A 
ATOM     21  C   UNL     1       1.998  -6.650  -0.470  0.00  0.00    +0.003 A 
ATOM     22  C   UNL     1       3.273  -6.584   0.059  0.00  0.00    +0.000 A 
ATOM     23  C   UNL     1       3.585  -5.612   0.991  0.00  0.00    +0.000 A 
ATOM     24  C   UNL     1       2.622  -4.705   1.393  0.00  0.00    +0.000 A 
ATOM     25  C   UNL     1       1.348  -4.769   0.861  0.00  0.00    +0.003 A 
ENDBRANCH  19  20
ENDBRANCH  18  19
ENDBRANCH   1  18
BRANCH   1  26
ATOM     26  C   UNL     1      -1.794  -4.423  -3.816  0.00  0.00    -0.037 C 
BRANCH  26  27
ATOM     27  C   UNL     1      -1.058  -5.312  -4.786  0.00  0.00    +0.001 A 
ATOM     28  C   UNL     1      -1.748  -6.202  -5.544  0.00  0.00    +0.017 A 
ATOM     29  C   UNL     1      -1.005  -7.050  -6.476  0.00  0.00    +0.002 A 
ATOM     30  C   UNL     1      -1.663  -7.986  -7.282  0.00  0.00    +0.059 A 
ATOM     31  C   UNL     1      -0.937  -8.771  -8.153  0.00  0.00    +0.163 A 
ATOM     32  C   UNL     1       0.452  -8.633  -8.234  0.00  0.00    +0.164 A 
ATOM     33  C   UNL     1       1.111  -7.711  -7.439  0.00  0.00    +0.075 A 
ATOM     34  C   UNL     1       0.394  -6.914  -6.556  0.00  0.00    +0.053 A 
ATOM     35  N   UNL     1       1.035  -5.989  -5.757  0.00  0.00    -0.322 N 
ATOM     36  H   UNL     1       1.999  -5.896  -5.812  0.00  0.00    +0.169 HD
ATOM     37  C   UNL     1       0.343  -5.211  -4.907  0.00  0.00    +0.251 A 
ATOM     38  O   UNL     1       0.941  -4.402  -4.220  0.00  0.00    -0.268 OA
ATOM     39  O   UNL     1       1.175  -9.398  -9.096  0.00  0.00    -0.485 OA
ATOM     40  C   UNL     1       0.535 -10.571  -9.609  0.00  0.00    +0.270 C 
ATOM     41  C   UNL     1      -0.881 -10.189 -10.062  0.00  0.00    +0.270 C 
ATOM     42  O   UNL     1      -1.592  -9.680  -8.928  0.00  0.00    -0.485 OA
ENDBRANCH  26  27
ENDBRANCH   1  26
TORSDOF 12
