REMARK  Name = ZINC06349445
REMARK  6 active torsions:
REMARK  status: ('A' for Active; 'I' for Inactive)
REMARK    1  A    between atoms: C_1  and  C_2
REMARK    2  A    between atoms: C_2  and  N_3
REMARK    3  A    between atoms: N_7  and  C_8
REMARK    4  A    between atoms: C_8  and  C_9
REMARK    5  A    between atoms: C_14  and  S_16
REMARK    6  A    between atoms: S_16  and  C_17
REMARK                            x       y       z     vdW  Elec       q    Type
REMARK                         _______ _______ _______ _____ _____    ______ ____
ROOT
ATOM      1  N   UNL     1      -2.623   7.707  -4.899  0.00  0.00    -0.315 N 
ATOM      2  C   UNL     1      -1.719   7.851  -3.881  0.00  0.00    +0.199 A 
ATOM      3  N   UNL     1      -1.450   9.108  -3.395  0.00  0.00    -0.300 N 
ATOM      4  C   UNL     1      -0.942   9.231  -2.102  0.00  0.00    +0.200 A 
ATOM      5  N   UNL     1      -1.163  10.270  -1.347  0.00  0.00    -0.315 N 
ATOM      6  N   UNL     1      -0.180   8.150  -1.693  0.00  0.00    -0.166 N 
ATOM      7  C   UNL     1      -0.290   6.936  -2.337  0.00  0.00    +0.259 A 
ATOM      8  N   UNL     1      -1.123   6.778  -3.387  0.00  0.00    -0.179 NA
ATOM      9  N   UNL     1       0.528   6.104  -1.742  0.00  0.00    -0.183 NA
ATOM     10  C   UNL     1       1.160   6.734  -0.740  0.00  0.00    +0.212 A 
ATOM     11  N   UNL     1       0.755   7.987  -0.685  0.00  0.00    -0.134 NA
ATOM     12  H   UNL     1      -3.125   8.591  -5.319  0.00  0.00    +0.149 HD
ATOM     13  H   UNL     1      -0.737  10.315  -0.334  0.00  0.00    +0.149 HD
ATOM     14  H   UNL     1      -1.635   9.992  -4.022  0.00  0.00    +0.171 HD
ENDROOT
BRANCH   1  16
ATOM     15  C   UNL     1      -3.956   6.492  -6.552  0.00  0.00    +0.024 C 
ATOM     16  C   UNL     1      -2.922   6.374  -5.430  0.00  0.00    +0.101 C 
ENDBRANCH   1  16
BRANCH   5  17
ATOM     17  C   UNL     1      -1.980  11.378  -1.848  0.00  0.00    +0.101 C 
ATOM     18  C   UNL     1      -3.199  11.563  -0.942  0.00  0.00    +0.024 C 
ENDBRANCH   5  17
BRANCH  10  19
ATOM     19  S   UNL     1       2.352   6.000   0.331  0.00  0.00    -0.073 S 
BRANCH  19  20
ATOM     20  C   UNL     1       2.468   4.286  -0.251  0.00  0.00    +0.126 C 
ATOM     21  C   UNL     1       3.572   3.549   0.518  0.00  0.00    +0.027 C 
ATOM     22  C   UNL     1       3.719   2.134  -0.037  0.00  0.00    +0.037 C 
ATOM     23  C   UNL     1       2.404   1.403  -0.018  0.00  0.00    -0.037 A 
ATOM     24  C   UNL     1       2.404   0.019  -0.024  0.00  0.00    +0.004 A 
ATOM     25  C   UNL     1       1.211  -0.679  -0.014  0.00  0.00    +0.000 A 
ATOM     26  C   UNL     1       0.002  -0.004   0.002  0.00  0.00    +0.001 A 
ATOM     27  C   UNL     1      -0.017   1.375   0.010  0.00  0.00    +0.011 A 
ATOM     28  C   UNL     1       1.187   2.085   0.002  0.00  0.00    +0.022 A 
ATOM     29  C   UNL     1       1.166   3.561   0.021  0.00  0.00    +0.177 C 
ATOM     30  O   UNL     1       0.143   4.171   0.246  0.00  0.00    -0.291 OA
ENDBRANCH  19  20
ENDBRANCH  10  19
TORSDOF 4
