REMARK  Name = ZINC13640410
REMARK  5 active torsions:
REMARK  status: ('A' for Active; 'I' for Inactive)
REMARK    1  A    between atoms: C_1  and  C_2
REMARK    2  A    between atoms: C_8  and  C_10
REMARK    3  A    between atoms: C_23  and  C_26
REMARK    4  A    between atoms: C_29  and  O_33
REMARK    5  A    between atoms: C_31  and  O_32
REMARK                            x       y       z     vdW  Elec       q    Type
REMARK                         _______ _______ _______ _____ _____    ______ ____
ROOT
ATOM      1  C   UNL     1      -0.784   2.650  -3.374  0.00  0.00    +0.037 A 
ATOM      2  C   UNL     1      -2.154   2.402  -3.508  0.00  0.00    +0.015 A 
ATOM      3  C   UNL     1      -2.807   2.760  -4.663  0.00  0.00    +0.024 A 
ATOM      4  C   UNL     1      -2.115   3.371  -5.707  0.00  0.00    +0.031 A 
ATOM      5  C   UNL     1      -0.744   3.633  -5.565  0.00  0.00    -0.019 A 
ATOM      6  C   UNL     1      -0.089   3.275  -4.413  0.00  0.00    +0.019 A 
ATOM      7  C   UNL     1      -0.064   4.325  -6.681  0.00  0.00    +0.049 C 
ATOM      8  C   UNL     1       1.389   4.163  -6.940  0.00  0.00    -0.023 C 
ATOM      9  C   UNL     1       1.603   4.286  -8.245  0.00  0.00    -0.030 C 
ATOM     10  C   UNL     1       0.277   4.510  -8.974  0.00  0.00    +0.033 C 
ATOM     11  C   UNL     1      -0.701   3.829  -8.013  0.00  0.00    +0.029 C 
ATOM     12  C   UNL     1      -2.121   4.365  -8.007  0.00  0.00    +0.108 C 
ATOM     13  N   UNL     1      -2.800   3.691  -6.879  0.00  0.00    -0.336 N 
ATOM     14  H   UNL     1      -3.740   3.466  -6.957  0.00  0.00    +0.147 HD
ENDROOT
BRANCH   1  22
ATOM     15  C   UNL     1      -1.360   4.694   2.568  0.00  0.00    +0.007 C 
ATOM     16  C   UNL     1      -1.406   3.583   1.517  0.00  0.00    -0.011 C 
ATOM     17  C   UNL     1       0.006   3.020   1.309  0.00  0.00    +0.022 C 
ATOM     18  C   UNL     1      -0.052   1.887   0.281  0.00  0.00    +0.108 C 
ATOM     19  N   UNL     1      -0.690   2.387  -0.944  0.00  0.00    -0.298 N 
ATOM     20  C   UNL     1      -2.008   3.028  -0.843  0.00  0.00    +0.108 C 
ATOM     21  C   UNL     1      -1.932   4.151   0.197  0.00  0.00    +0.022 C 
ATOM     22  C   UNL     1      -0.078   2.261  -2.138  0.00  0.00    +0.247 C 
ATOM     23  O   UNL     1       1.056   1.827  -2.197  0.00  0.00    -0.270 OA
ENDBRANCH   1  22
BRANCH  12  24
ATOM     24  C   UNL     1      -2.113   5.857  -7.792  0.00  0.00    +0.015 A 
ATOM     25  C   UNL     1      -2.278   6.372  -6.520  0.00  0.00    +0.012 A 
ATOM     26  C   UNL     1      -2.266   7.738  -6.319  0.00  0.00    +0.046 A 
ATOM     27  C   UNL     1      -2.098   8.598  -7.396  0.00  0.00    +0.120 A 
ATOM     28  C   UNL     1      -1.938   8.084  -8.673  0.00  0.00    +0.091 A 
ATOM     29  C   UNL     1      -1.945   6.712  -8.871  0.00  0.00    +0.125 A 
BRANCH  29  30
ATOM     30  O   UNL     1      -1.787   6.205 -10.123  0.00  0.00    -0.506 OA
ATOM     31  H   UNL     1      -2.617   6.080 -10.604  0.00  0.00    +0.292 HD
ENDBRANCH  29  30
BRANCH  27  32
ATOM     32  O   UNL     1      -2.091   9.943  -7.198  0.00  0.00    -0.507 OA
ATOM     33  H   UNL     1      -2.964  10.354  -7.260  0.00  0.00    +0.292 HD
ENDBRANCH  27  32
ENDBRANCH  12  24
TORSDOF 4
