REMARK  Name = ZINC20745558
REMARK  5 active torsions:
REMARK  status: ('A' for Active; 'I' for Inactive)
REMARK    1  A    between atoms: C_1  and  O_2
REMARK    2  A    between atoms: O_2  and  C_3
REMARK    3  A    between atoms: C_3  and  C_5
REMARK    4  A    between atoms: C_5  and  N_6
REMARK    5  A    between atoms: C_18  and  C_20
REMARK                            x       y       z     vdW  Elec       q    Type
REMARK                         _______ _______ _______ _____ _____    ______ ____
ROOT
ATOM      1  N   UNL     1       1.092  -4.474  -1.883  0.00  0.00    -0.289 N 
ATOM      2  C   UNL     1       1.658  -3.641  -2.778  0.00  0.00    +0.303 C 
ATOM      3  O   UNL     1       1.520  -2.439  -2.662  0.00  0.00    -0.253 OA
ATOM      4  N   UNL     1       2.378  -4.141  -3.803  0.00  0.00    -0.273 N 
ATOM      5  C   UNL     1       3.107  -3.249  -4.716  0.00  0.00    +0.116 C 
ATOM      6  C   UNL     1       4.612  -3.513  -4.579  0.00  0.00    +0.074 C 
ATOM      7  C   UNL     1       4.846  -5.001  -4.570  0.00  0.00    +0.040 A 
ATOM      8  C   UNL     1       3.896  -5.929  -4.325  0.00  0.00    +0.062 A 
ATOM      9  N   UNL     1       4.465  -7.135  -4.397  0.00  0.00    -0.348 N 
ATOM     10  C   UNL     1       5.734  -6.993  -4.680  0.00  0.00    +0.171 A 
ATOM     11  N   UNL     1       6.008  -5.673  -4.797  0.00  0.00    -0.349 N 
ATOM     12  H   UNL     1       6.871  -5.280  -5.004  0.00  0.00    +0.166 HD
ATOM     13  C   UNL     1       2.457  -5.595  -4.030  0.00  0.00    +0.157 C 
ATOM     14  H   UNL     1       1.141  -5.434  -2.014  0.00  0.00    +0.151 HD
ATOM     15  H   UNL     1       4.010  -7.981  -4.260  0.00  0.00    +0.167 HD
ENDROOT
BRANCH  13  16
ATOM     16  C   UNL     1       1.595  -5.978  -5.205  0.00  0.00    -0.003 A 
ATOM     17  C   UNL     1       2.177  -6.255  -6.428  0.00  0.00    +0.009 A 
ATOM     18  C   UNL     1       1.387  -6.606  -7.506  0.00  0.00    +0.020 A 
ATOM     19  C   UNL     1       0.012  -6.681  -7.362  0.00  0.00    +0.042 A 
ATOM     20  C   UNL     1      -0.570  -6.404  -6.139  0.00  0.00    +0.040 A 
ATOM     21  C   UNL     1       0.222  -6.058  -5.059  0.00  0.00    +0.048 A 
ATOM     22 CL   UNL     1      -0.508  -5.716  -3.521  0.00  0.00    -0.083 Cl
ATOM     23 CL   UNL     1      -0.980  -7.122  -8.717  0.00  0.00    -0.083 Cl
ENDBRANCH  13  16
BRANCH   1  24
ATOM     24  C   UNL     1       0.402  -3.930  -0.711  0.00  0.00    +0.226 C 
BRANCH  24  25
ATOM     25  C   UNL     1      -0.138  -5.062   0.125  0.00  0.00    +0.324 C 
ATOM     26  O   UNL     1       0.036  -6.206  -0.223  0.00  0.00    -0.249 OA
BRANCH  25  28
ATOM     27  C   UNL     1      -1.295  -5.920   1.998  0.00  0.00    +0.280 C 
ATOM     28  O   UNL     1      -0.812  -4.799   1.256  0.00  0.00    -0.467 OA
ENDBRANCH  25  28
ENDBRANCH  24  25
ENDBRANCH   1  24
TORSDOF 4
