REMARK  Name = ZINC14085407
REMARK  2 active torsions:
REMARK  status: ('A' for Active; 'I' for Inactive)
REMARK    1  A    between atoms: C_8  and  C_26
REMARK    2  A    between atoms: C_20  and  C_22
REMARK                            x       y       z     vdW  Elec       q    Type
REMARK                         _______ _______ _______ _____ _____    ______ ____
ROOT
ATOM      1  C   UNL     1       8.573  -1.736  -1.034  0.00  0.00    +0.000 A 
ATOM      2  C   UNL     1       7.779  -1.731  -2.166  0.00  0.00    +0.000 A 
ATOM      3  C   UNL     1       6.598  -1.018  -2.174  0.00  0.00    +0.005 A 
ATOM      4  C   UNL     1       6.201  -0.306  -1.052  0.00  0.00    -0.027 A 
ATOM      5  C   UNL     1       6.994  -0.308   0.075  0.00  0.00    -0.040 A 
ATOM      6  C   UNL     1       8.181  -1.026   0.083  0.00  0.00    +0.004 A 
ATOM      7  C   UNL     1       6.611   0.459   1.314  0.00  0.00    +0.067 C 
ATOM      8  C   UNL     1       5.127   0.824   1.264  0.00  0.00    +0.165 C 
ATOM      9  N   UNL     1       4.844   1.453  -0.036  0.00  0.00    -0.298 N 
ATOM     10  C   UNL     1       4.901   0.453  -1.107  0.00  0.00    +0.142 C 
ATOM     11  C   UNL     1       3.623   2.092  -0.020  0.00  0.00    +0.134 A 
ATOM     12  C   UNL     1       3.500   3.437  -0.445  0.00  0.00    +0.040 A 
ATOM     13  C   UNL     1       4.598   4.178  -0.897  0.00  0.00    +0.013 A 
ATOM     14  C   UNL     1       4.419   5.471  -1.294  0.00  0.00    +0.001 A 
ATOM     15  C   UNL     1       3.159   6.062  -1.256  0.00  0.00    +0.002 A 
ATOM     16  C   UNL     1       2.070   5.367  -0.820  0.00  0.00    +0.028 A 
ATOM     17  C   UNL     1       2.218   4.037  -0.405  0.00  0.00    +0.077 A 
ATOM     18  N   UNL     1       1.179   3.309   0.032  0.00  0.00    -0.224 NA
ATOM     19  C   UNL     1       1.352   2.066   0.413  0.00  0.00    +0.236 A 
ATOM     20  N   UNL     1       2.531   1.464   0.393  0.00  0.00    -0.208 NA
ENDROOT
BRANCH   8  21
ATOM     21  C   UNL     1       4.805   1.790   2.375  0.00  0.00    +0.231 C 
ATOM     22  O   UNL     1       4.381   2.895   2.113  0.00  0.00    -0.274 OA
ATOM     23  N   UNL     1       4.987   1.425   3.659  0.00  0.00    -0.328 N 
ATOM     24  H   UNL     1       5.326   0.540   3.869  0.00  0.00    +0.145 HD
ATOM     25  H   UNL     1       4.780   2.046   4.375  0.00  0.00    +0.145 HD
ENDBRANCH   8  21
BRANCH  19  26
ATOM     26  C   UNL     1       0.155   1.288   0.896  0.00  0.00    +0.452 C 
ATOM     27  F   UNL     1      -0.192   1.716   2.182  0.00  0.00    -0.163 F 
ATOM     28  F   UNL     1      -0.921   1.503   0.027  0.00  0.00    -0.163 F 
ATOM     29  F   UNL     1       0.466  -0.075   0.926  0.00  0.00    -0.163 F 
ENDBRANCH  19  26
TORSDOF 2
