REMARK  Name = ZINC59677997
REMARK  13 active torsions:
REMARK  status: ('A' for Active; 'I' for Inactive)
REMARK    1  A    between atoms: C_1  and  C_2
REMARK    2  A    between atoms: C_2  and  O_3
REMARK    3  A    between atoms: O_3  and  C_4
REMARK    4  A    between atoms: C_4  and  C_6
REMARK    5  A    between atoms: C_7  and  C_37
REMARK    6  A    between atoms: C_14  and  C_15
REMARK    7  A    between atoms: C_20  and  O_21
REMARK    8  A    between atoms: O_21  and  C_22
REMARK    9  A    between atoms: C_22  and  C_23
REMARK   10  A    between atoms: C_26  and  C_28
REMARK   11  A    between atoms: C_31  and  C_34
REMARK   12  A    between atoms: C_34  and  C_35
REMARK   13  A    between atoms: C_34  and  C_36
REMARK                            x       y       z     vdW  Elec       q    Type
REMARK                         _______ _______ _______ _____ _____    ______ ____
ROOT
ATOM      1  C   UNL     1       2.569  -1.763  -1.794  0.00  0.00    +0.085 C 
ATOM      2  C   UNL     1       2.828  -3.105  -1.814  0.00  0.00    +0.053 C 
ATOM      3  N   UNL     1       3.308  -3.683  -2.908  0.00  0.00    -0.228 NA
ATOM      4  C   UNL     1       3.571  -3.060  -4.029  0.00  0.00    +0.178 A 
ATOM      5  N   UNL     1       3.383  -1.711  -4.222  0.00  0.00    -0.275 N 
ATOM      6  C   UNL     1       3.690  -1.184  -5.414  0.00  0.00    +0.268 A 
ATOM      7  O   UNL     1       3.541   0.005  -5.632  0.00  0.00    -0.266 OA
ATOM      8  C   UNL     1       4.213  -2.083  -6.452  0.00  0.00    +0.081 A 
ATOM      9  C   UNL     1       4.594  -1.802  -7.726  0.00  0.00    +0.032 C 
ATOM     10  S   UNL     1       4.211  -3.645  -5.586  0.00  0.00    -0.046 S 
ATOM     11  C   UNL     1       2.840  -0.968  -3.050  0.00  0.00    +0.162 C 
ATOM     12  C   UNL     1       2.566  -3.935  -0.584  0.00  0.00    +0.066 C 
ENDROOT
BRANCH   9  13
ATOM     13  C   UNL     1       5.279  -2.822  -8.528  0.00  0.00    +0.018 A 
ATOM     14  C   UNL     1       5.899  -3.911  -7.903  0.00  0.00    +0.011 A 
ATOM     15  C   UNL     1       6.541  -4.864  -8.663  0.00  0.00    +0.001 A 
ATOM     16  C   UNL     1       6.577  -4.750 -10.044  0.00  0.00    +0.004 A 
ATOM     17  C   UNL     1       5.969  -3.681 -10.674  0.00  0.00    +0.046 A 
ATOM     18  C   UNL     1       5.313  -2.715  -9.928  0.00  0.00    +0.129 A 
BRANCH  18  19
ATOM     19  O   UNL     1       4.712  -1.668 -10.547  0.00  0.00    -0.477 OA
BRANCH  19  20
ATOM     20  C   UNL     1       4.788  -1.626 -11.973  0.00  0.00    +0.346 C 
BRANCH  20  21
ATOM     21  C   UNL     1       4.086  -0.430 -12.467  0.00  0.00    +0.104 C 
ATOM     22  N   UNL     1       3.545   0.493 -12.849  0.00  0.00    -0.193 NA
ENDBRANCH  20  21
ENDBRANCH  19  20
ENDBRANCH  18  19
ENDBRANCH   9  13
BRANCH  11  23
ATOM     23  C   UNL     1       3.819   0.125  -2.705  0.00  0.00    -0.020 A 
ATOM     24  C   UNL     1       5.169  -0.160  -2.618  0.00  0.00    +0.006 A 
ATOM     25  C   UNL     1       6.067   0.842  -2.302  0.00  0.00    +0.004 A 
ATOM     26  C   UNL     1       5.616   2.128  -2.072  0.00  0.00    -0.045 A 
ATOM     27  C   UNL     1       4.266   2.413  -2.160  0.00  0.00    +0.004 A 
ATOM     28  C   UNL     1       3.368   1.412  -2.481  0.00  0.00    +0.006 A 
BRANCH  26  29
ATOM     29  C   UNL     1       6.595   3.220  -1.726  0.00  0.00    +0.013 C 
ATOM     30  C   UNL     1       6.519   4.327  -2.780  0.00  0.00    +0.012 C 
ATOM     31  C   UNL     1       6.249   3.799  -0.353  0.00  0.00    +0.012 C 
ENDBRANCH  26  29
ENDBRANCH  11  23
BRANCH   1  32
ATOM     32  C   UNL     1       2.061  -1.143  -0.642  0.00  0.00    +0.339 C 
ATOM     33  O   UNL     1       1.721  -1.817   0.314  0.00  0.00    -0.245 OA
BRANCH  32  34
ATOM     34  O   UNL     1       1.949   0.203  -0.592  0.00  0.00    -0.462 OA
BRANCH  34  36
ATOM     35  C   UNL     1       1.373   2.290   0.481  0.00  0.00    +0.048 C 
ATOM     36  C   UNL     1       1.424   0.766   0.611  0.00  0.00    +0.229 C 
ENDBRANCH  34  36
ENDBRANCH  32  34
ENDBRANCH   1  32
TORSDOF 9
