REMARK  Name = ZINC14016674
REMARK  5 active torsions:
REMARK  status: ('A' for Active; 'I' for Inactive)
REMARK    1  A    between atoms: C_6  and  S_7
REMARK    2  A    between atoms: S_7  and  N_10
REMARK    3  A    between atoms: C_14  and  C_17
REMARK    4  A    between atoms: N_19  and  C_20
REMARK    5  A    between atoms: C_21  and  C_28
REMARK                            x       y       z     vdW  Elec       q    Type
REMARK                         _______ _______ _______ _____ _____    ______ ____
ROOT
ATOM      1  C   UNL     1      -2.366   2.061   0.026  0.00  0.00    +0.222 C 
ATOM      2  O   UNL     1      -2.527   0.859   0.020  0.00  0.00    -0.275 OA
ATOM      3  N   UNL     1      -1.119   2.573   0.022  0.00  0.00    -0.279 N 
ATOM      4  H   UNL     1      -0.990   3.535   0.026  0.00  0.00    +0.155 HD
ENDROOT
BRANCH   3   5
ATOM      5  C   UNL     1      -0.021   1.726   0.011  0.00  0.00    +0.084 A 
ATOM      6  C   UNL     1       1.322   2.060   0.001  0.00  0.00    +0.068 A 
ATOM      7  C   UNL     1       2.292   0.965  -0.014  0.00  0.00    -0.023 A 
ATOM      8  C   UNL     1       1.758  -0.270  -0.017  0.00  0.00    -0.004 A 
ATOM      9  S   UNL     1       0.002  -0.004   0.002  0.00  0.00    -0.077 S 
ATOM     10  C   UNL     1       2.815  -1.341  -0.036  0.00  0.00    +0.043 C 
ATOM     11  C   UNL     1       4.101  -0.611  -0.482  0.00  0.00    +0.010 C 
ATOM     12  C   UNL     1       3.815   0.835  -0.027  0.00  0.00    +0.037 C 
BRANCH   6  13
ATOM     13  C   UNL     1       1.758   3.460   0.003  0.00  0.00    +0.244 C 
ATOM     14  O   UNL     1       1.949   4.036   1.058  0.00  0.00    -0.270 OA
ATOM     15  N   UNL     1       1.946   4.109  -1.163  0.00  0.00    -0.325 N 
ATOM     16  H   UNL     1       1.794   3.650  -2.004  0.00  0.00    +0.145 HD
ATOM     17  H   UNL     1       2.234   5.035  -1.161  0.00  0.00    +0.145 HD
ENDBRANCH   6  13
ENDBRANCH   3   5
BRANCH   1  22
ATOM     18  N   UNL     1      -5.995   3.057  -0.082  0.00  0.00    -0.176 NA
ATOM     19  C   UNL     1      -6.025   4.015  -1.195  0.00  0.00    +0.109 C 
ATOM     20  C   UNL     1      -4.725   4.825  -1.184  0.00  0.00    +0.018 C 
ATOM     21  C   UNL     1      -3.532   3.868  -1.210  0.00  0.00    +0.015 C 
ATOM     22  C   UNL     1      -3.559   2.981   0.036  0.00  0.00    +0.091 C 
ATOM     23  C   UNL     1      -4.846   2.150   0.039  0.00  0.00    +0.122 C 
BRANCH  18  24
ATOM     24  S   UNL     1      -7.233   3.002   1.017  0.00  0.00    +0.061 S 
ATOM     25  O   UNL     1      -8.378   3.535   0.366  0.00  0.00    -0.153 OA
ATOM     26  O   UNL     1      -7.216   1.698   1.583  0.00  0.00    -0.153 OA
BRANCH  24  32
ATOM     27  C   UNL     1      -6.113   3.674   3.414  0.00  0.00    +0.030 A 
ATOM     28  C   UNL     1      -5.789   4.551   4.432  0.00  0.00    +0.022 A 
ATOM     29  C   UNL     1      -6.189   5.874   4.358  0.00  0.00    +0.041 A 
ATOM     30  C   UNL     1      -6.907   6.318   3.262  0.00  0.00    +0.022 A 
ATOM     31  C   UNL     1      -7.225   5.441   2.242  0.00  0.00    +0.030 A 
ATOM     32  C   UNL     1      -6.826   4.120   2.317  0.00  0.00    +0.106 A 
ATOM     33 CL   UNL     1      -5.789   6.975   5.639  0.00  0.00    -0.084 Cl
ENDBRANCH  24  32
ENDBRANCH  18  24
ENDBRANCH   1  22
TORSDOF 5
