REMARK  Name = ZINC54752386
REMARK  4 active torsions:
REMARK  status: ('A' for Active; 'I' for Inactive)
REMARK    1  A    between atoms: C_1  and  C_2
REMARK    2  A    between atoms: C_15  and  C_17
REMARK    3  A    between atoms: C_17  and  C_18
REMARK    4  A    between atoms: C_21  and  C_23
REMARK                            x       y       z     vdW  Elec       q    Type
REMARK                         _______ _______ _______ _____ _____    ______ ____
ROOT
ATOM      1  C   UNL     1      -0.019   1.526   0.010  0.00  0.00    +0.008 C 
ATOM      2  C   UNL     1       0.002  -0.004   0.002  0.00  0.00    -0.009 C 
ATOM      3  C   UNL     1      -1.433  -0.537   0.021  0.00  0.00    +0.008 C 
ATOM      4  C   UNL     1      -1.430  -2.044  -0.237  0.00  0.00    +0.037 C 
ATOM      5  C   UNL     1      -0.472  -2.712   0.745  0.00  0.00    -0.023 A 
ATOM      6  C   UNL     1       0.476  -1.985   1.383  0.00  0.00    -0.004 A 
ATOM      7  S   UNL     1       1.343  -3.148   2.406  0.00  0.00    -0.073 S 
ATOM      8  C   UNL     1       0.437  -4.601   1.978  0.00  0.00    +0.116 A 
ATOM      9  C   UNL     1      -0.517  -4.131   1.048  0.00  0.00    +0.075 A 
ATOM     10  C   UNL     1      -1.426  -5.099   0.502  0.00  0.00    +0.260 A 
ATOM     11  O   UNL     1      -2.286  -4.796  -0.308  0.00  0.00    -0.267 OA
ATOM     12  N   UNL     1      -1.267  -6.369   0.944  0.00  0.00    -0.310 N 
ATOM     13  H   UNL     1      -1.860  -7.056   0.601  0.00  0.00    +0.170 HD
ATOM     14  C   UNL     1      -0.319  -6.726   1.843  0.00  0.00    +0.117 A 
ATOM     15  N   UNL     1       0.532  -5.869   2.365  0.00  0.00    -0.226 NA
ATOM     16  C   UNL     1       0.737  -0.516   1.249  0.00  0.00    +0.046 C 
ENDROOT
BRANCH  14  17
ATOM     17  C   UNL     1      -0.234  -8.170   2.263  0.00  0.00    +0.133 C 
BRANCH  17  18
ATOM     18  C   UNL     1       0.883  -8.338   3.261  0.00  0.00    +0.087 A 
ATOM     19  C   UNL     1       0.775  -8.881   4.487  0.00  0.00    +0.221 A 
ATOM     20  O   UNL     1       1.998  -8.842   5.053  0.00  0.00    -0.443 OA
ATOM     21  C   UNL     1       2.841  -8.278   4.168  0.00  0.00    +0.234 A 
ATOM     22  N   UNL     1       2.164  -7.979   3.081  0.00  0.00    -0.213 NA
BRANCH  21  23
ATOM     23  C   UNL     1       4.276  -8.041   4.379  0.00  0.00    +0.074 A 
ATOM     24  C   UNL     1       5.056  -8.337   5.482  0.00  0.00    +0.021 A 
ATOM     25  C   UNL     1       6.393  -8.016   5.443  0.00  0.00    +0.008 A 
ATOM     26  C   UNL     1       6.902  -7.424   4.332  0.00  0.00    +0.046 A 
ATOM     27  S   UNL     1       5.470  -7.304   3.274  0.00  0.00    -0.092 S 
ENDBRANCH  21  23
ENDBRANCH  17  18
ENDBRANCH  14  17
TORSDOF 3
