REMARK  Name = ZINC09120646
REMARK  7 active torsions:
REMARK  status: ('A' for Active; 'I' for Inactive)
REMARK    1  A    between atoms: C_4  and  C_7
REMARK    2  A    between atoms: C_17  and  C_19
REMARK    3  A    between atoms: C_25  and  C_27
REMARK    4  A    between atoms: C_27  and  O_28
REMARK    5  A    between atoms: O_28  and  C_29
REMARK    6  A    between atoms: C_29  and  C_31
REMARK    7  A    between atoms: C_32  and  N_41
REMARK                            x       y       z     vdW  Elec       q    Type
REMARK                         _______ _______ _______ _____ _____    ______ ____
ROOT
ATOM      1  C   UNL     1       8.909   7.378  -2.182  0.00  0.00    +0.013 C 
ATOM      2  C   UNL     1       9.444   6.178  -2.484  0.00  0.00    -0.024 C 
ATOM      3  C   UNL     1      10.825   6.108  -3.061  0.00  0.00    +0.037 C 
ATOM      4  C   UNL     1      11.223   4.733  -3.557  0.00  0.00    +0.005 C 
ATOM      5  C   UNL     1      10.626   3.593  -2.735  0.00  0.00    +0.012 C 
ATOM      6  C   UNL     1       9.102   3.659  -2.857  0.00  0.00    +0.066 C 
ATOM      7  C   UNL     1       8.694   5.000  -2.252  0.00  0.00    +0.068 C 
ATOM      8  N   UNL     1       7.621   4.819  -1.565  0.00  0.00    -0.181 NA
ATOM      9  N   UNL     1       7.292   3.469  -1.387  0.00  0.00    -0.182 N 
ATOM     10  C   UNL     1       8.416   2.658  -1.908  0.00  0.00    +0.140 C 
ATOM     11  C   UNL     1       6.157   2.994  -0.837  0.00  0.00    +0.273 C 
ATOM     12  O   UNL     1       5.986   1.797  -0.737  0.00  0.00    -0.270 OA
ENDROOT
BRANCH   1  16
ATOM     13  C   UNL     1      11.146  10.922  -2.835  0.00  0.00    +0.000 A 
ATOM     14  C   UNL     1      11.738   9.841  -2.206  0.00  0.00    +0.001 A 
ATOM     15  C   UNL     1      11.017   8.685  -1.990  0.00  0.00    +0.008 A 
ATOM     16  C   UNL     1       9.685   8.608  -2.408  0.00  0.00    -0.025 A 
ATOM     17  C   UNL     1       9.096   9.704  -3.047  0.00  0.00    +0.008 A 
ATOM     18  C   UNL     1       9.828  10.854  -3.251  0.00  0.00    +0.001 A 
ENDBRANCH   1  16
BRANCH  10  19
ATOM     19  C   UNL     1       9.343   2.242  -0.795  0.00  0.00    -0.024 A 
ATOM     20  C   UNL     1       9.633   3.125   0.229  0.00  0.00    +0.005 A 
ATOM     21  C   UNL     1      10.479   2.742   1.252  0.00  0.00    +0.000 A 
ATOM     22  C   UNL     1      11.043   1.480   1.247  0.00  0.00    +0.000 A 
ATOM     23  C   UNL     1      10.757   0.599   0.221  0.00  0.00    +0.000 A 
ATOM     24  C   UNL     1       9.907   0.981  -0.800  0.00  0.00    +0.005 A 
ENDBRANCH  10  19
BRANCH  11  25
ATOM     25  C   UNL     1       5.101   3.950  -0.344  0.00  0.00    +0.330 C 
BRANCH  25  26
ATOM     26  O   UNL     1       3.985   3.198   0.202  0.00  0.00    -0.451 OA
BRANCH  26  27
ATOM     27  C   UNL     1       2.948   3.909   0.688  0.00  0.00    +0.358 C 
ATOM     28  O   UNL     1       2.975   5.123   0.657  0.00  0.00    -0.243 OA
BRANCH  27  29
ATOM     29  C   UNL     1       1.782   3.214   1.257  0.00  0.00    +0.154 A 
ATOM     30  C   UNL     1       0.740   3.926   1.783  0.00  0.00    +0.121 A 
ATOM     31  C   UNL     1      -0.405   3.179   2.341  0.00  0.00    +0.276 A 
ATOM     32  O   UNL     1      -1.355   3.769   2.820  0.00  0.00    -0.266 OA
ATOM     33  N   UNL     1      -0.381   1.831   2.307  0.00  0.00    -0.274 N 
ATOM     34  H   UNL     1      -1.153   1.312   2.674  0.00  0.00    +0.173 HD
ATOM     35  C   UNL     1       0.670   1.177   1.784  0.00  0.00    +0.327 A 
ATOM     36  O   UNL     1       0.663  -0.038   1.772  0.00  0.00    -0.247 OA
ATOM     37  N   UNL     1       1.727   1.827   1.268  0.00  0.00    -0.300 N 
ATOM     38  H   UNL     1       2.487   1.302   0.885  0.00  0.00    +0.171 HD
BRANCH  30  39
ATOM     39  N   UNL     1       0.757   5.312   1.790  0.00  0.00    -0.352 N 
ATOM     40  H   UNL     1       1.317   5.794   1.162  0.00  0.00    +0.143 HD
ATOM     41  H   UNL     1       0.209   5.801   2.425  0.00  0.00    +0.143 HD
ENDBRANCH  30  39
ENDBRANCH  27  29
ENDBRANCH  26  27
ENDBRANCH  25  26
ENDBRANCH  11  25
TORSDOF 7
