REMARK  Name = ZINC13498923
REMARK  17 active torsions:
REMARK  status: ('A' for Active; 'I' for Inactive)
REMARK    1  A    between atoms: C_1  and  C_2
REMARK    2  A    between atoms: C_2  and  O_3
REMARK    3  A    between atoms: O_3  and  C_4
REMARK    4  A    between atoms: C_4  and  C_6
REMARK    5  A    between atoms: C_6  and  N_7
REMARK    6  A    between atoms: C_8  and  C_12
REMARK    7  A    between atoms: C_12  and  C_14
REMARK    8  A    between atoms: C_12  and  N_74
REMARK    9  A    between atoms: C_14  and  C_15
REMARK   10  A    between atoms: C_14  and  C_16
REMARK   11  A    between atoms: C_17  and  C_18
REMARK   12  A    between atoms: C_17  and  N_74
REMARK   13  A    between atoms: C_18  and  C_19
REMARK   14  A    between atoms: C_25  and  C_26
REMARK   15  A    between atoms: C_25  and  N_74
REMARK   16  A    between atoms: C_30  and  C_39
REMARK   17  A    between atoms: C_31  and  C_38
REMARK                            x       y       z     vdW  Elec       q    Type
REMARK                         _______ _______ _______ _____ _____    ______ ____
ROOT
ATOM      1  N   UNL     1      -5.639   4.204  -1.863  0.00  0.00    +0.390 N 
ATOM      2  H   UNL     1      -5.415   3.301  -2.297  0.00  0.00    -0.080 HD
ENDROOT
BRANCH   1   3
ATOM      3  C   UNL     1      -7.042   4.178  -1.399  0.00  0.00    +0.006 C 
BRANCH   3   5
ATOM      4  N   UNL     1      -8.284   6.298  -0.714  0.00  0.00    -0.220 N 
ATOM      5  C   UNL     1      -7.330   5.369  -0.521  0.00  0.00    +0.139 A 
ATOM      6  N   UNL     1      -6.703   5.698   0.582  0.00  0.00    -0.115 NA
ATOM      7  N   UNL     1      -7.239   6.777   1.038  0.00  0.00    -0.023 NA
ATOM      8  N   UNL     1      -8.197   7.141   0.259  0.00  0.00    -0.043 NA
BRANCH   4   9
ATOM      9  C   UNL     1      -9.243   6.343  -1.821  0.00  0.00    +0.267 C 
BRANCH   9  10
ATOM     10  C   UNL     1     -10.517   5.652  -1.411  0.00  0.00    +0.329 C 
ATOM     11  O   UNL     1     -10.644   5.237  -0.283  0.00  0.00    -0.249 OA
BRANCH  10  12
ATOM     12  O   UNL     1     -11.512   5.495  -2.299  0.00  0.00    -0.464 OA
BRANCH  12  14
ATOM     13  C   UNL     1     -13.725   4.736  -2.977  0.00  0.00    +0.048 C 
ATOM     14  C   UNL     1     -12.710   4.820  -1.834  0.00  0.00    +0.229 C 
ENDBRANCH  12  14
ENDBRANCH  10  12
ENDBRANCH   9  10
ENDBRANCH   4   9
ENDBRANCH   3   5
BRANCH   3  15
ATOM     15  C   UNL     1      -7.274   2.891  -0.604  0.00  0.00    -0.024 C 
ATOM     16  C   UNL     1      -8.740   2.816  -0.172  0.00  0.00    +0.006 C 
ATOM     17  C   UNL     1      -6.938   1.683  -1.481  0.00  0.00    +0.006 C 
ENDBRANCH   3  15
ENDBRANCH   1   3
BRANCH   1  18
ATOM     18  C   UNL     1      -5.459   5.276  -2.865  0.00  0.00    -0.073 C 
BRANCH  18  19
ATOM     19  C   UNL     1      -6.109   4.835  -4.178  0.00  0.00    +0.016 C 
BRANCH  19  20
ATOM     20  C   UNL     1      -5.827   5.859  -5.247  0.00  0.00    -0.049 A 
ATOM     21  C   UNL     1      -6.700   6.913  -5.443  0.00  0.00    +0.003 A 
ATOM     22  C   UNL     1      -6.438   7.855  -6.420  0.00  0.00    +0.000 A 
ATOM     23  C   UNL     1      -5.308   7.738  -7.208  0.00  0.00    +0.000 A 
ATOM     24  C   UNL     1      -4.438   6.681  -7.016  0.00  0.00    +0.000 A 
ATOM     25  C   UNL     1      -4.697   5.742  -6.035  0.00  0.00    +0.003 A 
ENDBRANCH  19  20
ENDBRANCH  18  19
ENDBRANCH   1  18
BRANCH   1  26
ATOM     26  C   UNL     1      -4.732   4.426  -0.718  0.00  0.00    -0.037 C 
BRANCH  26  27
ATOM     27  C   UNL     1      -3.327   4.080  -1.139  0.00  0.00    +0.001 A 
ATOM     28  C   UNL     1      -2.486   5.059  -1.555  0.00  0.00    +0.017 A 
ATOM     29  C   UNL     1      -1.129   4.689  -1.963  0.00  0.00    -0.001 A 
ATOM     30  C   UNL     1      -0.223   5.652  -2.418  0.00  0.00    +0.013 A 
ATOM     31  C   UNL     1       1.036   5.275  -2.792  0.00  0.00    -0.047 A 
ATOM     32  C   UNL     1       1.423   3.943  -2.725  0.00  0.00    -0.046 A 
ATOM     33  C   UNL     1       0.546   2.978  -2.280  0.00  0.00    +0.030 A 
ATOM     34  C   UNL     1      -0.742   3.337  -1.899  0.00  0.00    +0.049 A 
ATOM     35  N   UNL     1      -1.642   2.391  -1.455  0.00  0.00    -0.322 N 
ATOM     36  H   UNL     1      -1.372   1.461  -1.408  0.00  0.00    +0.169 HD
ATOM     37  C   UNL     1      -2.887   2.740  -1.088  0.00  0.00    +0.251 A 
ATOM     38  O   UNL     1      -3.656   1.877  -0.702  0.00  0.00    -0.268 OA
ATOM     39  C   UNL     1       2.816   3.550  -3.143  0.00  0.00    +0.044 C 
ATOM     40  C   UNL     1       2.012   6.313  -3.282  0.00  0.00    +0.044 C 
ENDBRANCH  26  27
ENDBRANCH   1  26
TORSDOF 12
