REMARK  Name = ZINC12738011
REMARK  12 active torsions:
REMARK  status: ('A' for Active; 'I' for Inactive)
REMARK    1  A    between atoms: C_1  and  C_2
REMARK    2  A    between atoms: C_4  and  N_30
REMARK    3  A    between atoms: C_7  and  N_8
REMARK    4  A    between atoms: C_9  and  C_11
REMARK    5  A    between atoms: C_11  and  S_12
REMARK    6  A    between atoms: S_12  and  C_13
REMARK    7  A    between atoms: C_16  and  C_25
REMARK    8  A    between atoms: N_17  and  C_18
REMARK    9  A    between atoms: C_25  and  C_27
REMARK   10  A    between atoms: C_25  and  N_65
REMARK   11  A    between atoms: C_28  and  N_65
REMARK   12  A    between atoms: C_29  and  N_65
REMARK                            x       y       z     vdW  Elec       q    Type
REMARK                         _______ _______ _______ _____ _____    ______ ____
ROOT
ATOM      1  S   UNL     1      -2.016   5.616   5.727  0.00  0.00    -0.076 S 
ENDROOT
BRANCH   1   2
ATOM      2  C   UNL     1      -1.986   4.511   4.355  0.00  0.00    +0.197 A 
ATOM      3  N   UNL     1      -2.870   3.579   4.083  0.00  0.00    -0.122 NA
ATOM      4  N   UNL     1      -2.539   2.963   3.005  0.00  0.00    -0.135 NA
ATOM      5  C   UNL     1      -1.429   3.454   2.530  0.00  0.00    +0.125 A 
ATOM      6  N   UNL     1      -1.037   4.461   3.371  0.00  0.00    -0.275 N 
BRANCH   6   7
ATOM      7  C   UNL     1       0.101   5.273   3.248  0.00  0.00    +0.050 A 
ATOM      8  C   UNL     1       1.367   4.716   3.357  0.00  0.00    +0.029 A 
ATOM      9  C   UNL     1       2.486   5.516   3.231  0.00  0.00    +0.040 A 
ATOM     10  C   UNL     1       2.345   6.875   3.007  0.00  0.00    +0.124 A 
ATOM     11  C   UNL     1       1.082   7.434   2.904  0.00  0.00    +0.040 A 
ATOM     12  C   UNL     1      -0.039   6.636   3.024  0.00  0.00    +0.029 A 
ATOM     13  F   UNL     1       3.440   7.657   2.890  0.00  0.00    -0.205 F 
ENDBRANCH   6   7
BRANCH   5  14
ATOM     14  C   UNL     1      -0.714   3.002   1.283  0.00  0.00    -0.003 C 
ATOM     15  C   UNL     1      -1.469   3.505   0.051  0.00  0.00    -0.005 C 
BRANCH  14  18
ATOM     16  C   UNL     1       0.037   1.056   0.052  0.00  0.00    -0.096 C 
ATOM     17  C   UNL     1      -0.019   1.010   2.472  0.00  0.00    -0.096 C 
ATOM     18  N   UNL     1      -0.683   1.524   1.256  0.00  0.00    +0.382 N 
ATOM     19  H   UNL     1      -1.646   1.171   1.227  0.00  0.00    -0.082 HD
ENDBRANCH  14  18
ENDBRANCH   5  14
ENDBRANCH   1   2
BRANCH   1  20
ATOM     20  C   UNL     1      -3.537   5.066   6.539  0.00  0.00    +0.173 C 
BRANCH  20  22
ATOM     21  N   UNL     1      -4.855   5.662   8.546  0.00  0.00    -0.285 N 
ATOM     22  C   UNL     1      -3.774   5.894   7.776  0.00  0.00    +0.227 C 
ATOM     23  O   UNL     1      -2.991   6.770   8.078  0.00  0.00    -0.275 OA
ATOM     24  H   UNL     1      -5.524   5.020   8.262  0.00  0.00    +0.155 HD
BRANCH  21  31
ATOM     25  C   UNL     1      -7.489   5.996   9.566  0.00  0.00    +0.046 C 
ATOM     26  C   UNL     1      -6.282   6.534  10.290  0.00  0.00    -0.028 A 
ATOM     27  C   UNL     1      -6.437   7.206  11.486  0.00  0.00    +0.028 A 
ATOM     28  C   UNL     1      -5.325   7.707  12.151  0.00  0.00    +0.030 A 
ATOM     29  C   UNL     1      -4.057   7.526  11.615  0.00  0.00    +0.025 A 
ATOM     30  C   UNL     1      -3.901   6.849  10.422  0.00  0.00    +0.025 A 
ATOM     31  C   UNL     1      -5.013   6.349   9.758  0.00  0.00    +0.036 A 
BRANCH  28  32
ATOM     32  N   UNL     1      -5.483   8.393  13.360  0.00  0.00    -0.330 N 
ATOM     33  C   UNL     1      -4.619   7.812  14.419  0.00  0.00    +0.105 C 
ATOM     34  C   UNL     1      -4.514   8.956  15.458  0.00  0.00    +0.020 C 
ATOM     35  C   UNL     1      -4.446  10.222  14.573  0.00  0.00    +0.020 C 
ATOM     36  C   UNL     1      -5.063   9.805  13.226  0.00  0.00    +0.105 C 
ENDBRANCH  28  32
ENDBRANCH  21  31
ENDBRANCH  20  22
ENDBRANCH   1  20
TORSDOF 8
