REMARK  Name = ZINC36601284
REMARK  18 active torsions:
REMARK  status: ('A' for Active; 'I' for Inactive)
REMARK    1  A    between atoms: C_1  and  C_2
REMARK    2  A    between atoms: C_5  and  C_7
REMARK    3  A    between atoms: C_7  and  N_8
REMARK    4  A    between atoms: N_8  and  C_9
REMARK    5  A    between atoms: C_9  and  C_11
REMARK    6  A    between atoms: C_9  and  C_20
REMARK    7  A    between atoms: C_14  and  O_19
REMARK    8  A    between atoms: C_15  and  O_17
REMARK    9  A    between atoms: O_17  and  C_18
REMARK   10  A    between atoms: N_22  and  C_23
REMARK   11  A    between atoms: C_23  and  C_24
REMARK   12  A    between atoms: C_23  and  C_25
REMARK   13  A    between atoms: C_23  and  C_26
REMARK   14  A    between atoms: C_26  and  C_27
REMARK   15  A    between atoms: C_27  and  C_28
REMARK   16  A    between atoms: C_27  and  C_29
REMARK   17  A    between atoms: C_27  and  C_30
REMARK   18  A    between atoms: C_31  and  C_33
REMARK                            x       y       z     vdW  Elec       q    Type
REMARK                         _______ _______ _______ _____ _____    ______ ____
ROOT
ATOM      1  C   UNL     1       5.824  -2.432  -0.721  0.00  0.00    +0.193 C 
ENDROOT
BRANCH   1   2
ATOM      2  C   UNL     1       4.792  -2.828  -1.745  0.00  0.00    -0.015 A 
ATOM      3  C   UNL     1       4.015  -1.859  -2.352  0.00  0.00    +0.010 A 
ATOM      4  C   UNL     1       3.067  -2.217  -3.292  0.00  0.00    +0.049 A 
ATOM      5  C   UNL     1       2.894  -3.550  -3.628  0.00  0.00    +0.158 A 
ATOM      6  C   UNL     1       3.676  -4.526  -3.017  0.00  0.00    +0.162 A 
ATOM      7  C   UNL     1       4.628  -4.159  -2.079  0.00  0.00    +0.055 A 
BRANCH   6   8
ATOM      8  O   UNL     1       3.509  -5.836  -3.342  0.00  0.00    -0.491 OA
ATOM      9  C   UNL     1       4.347  -6.782  -2.675  0.00  0.00    +0.277 C 
ENDBRANCH   6   8
BRANCH   5  10
ATOM     10  O   UNL     1       1.961  -3.905  -4.552  0.00  0.00    -0.503 OA
ATOM     11  H   UNL     1       2.294  -3.925  -5.459  0.00  0.00    +0.292 HD
ENDBRANCH   5  10
ENDBRANCH   1   2
BRANCH   1  12
ATOM     12  C   UNL     1       7.115  -3.156  -1.002  0.00  0.00    +0.239 C 
ATOM     13  O   UNL     1       7.589  -3.897  -0.167  0.00  0.00    -0.273 OA
ATOM     14  N   UNL     1       7.743  -2.981  -2.182  0.00  0.00    -0.308 N 
ATOM     15  H   UNL     1       7.363  -2.388  -2.850  0.00  0.00    +0.149 HD
BRANCH  14  16
ATOM     16  C   UNL     1       8.998  -3.685  -2.456  0.00  0.00    +0.030 C 
ATOM     17  C   UNL     1       9.908  -3.600  -1.229  0.00  0.00    +0.031 C 
ATOM     18  C   UNL     1       8.701  -5.153  -2.770  0.00  0.00    +0.031 C 
BRANCH  16  19
ATOM     19  C   UNL     1       9.695  -3.038  -3.654  0.00  0.00    +0.031 C 
BRANCH  19  20
ATOM     20  C   UNL     1       8.683  -2.832  -4.783  0.00  0.00    -0.036 C 
ATOM     21  C   UNL     1       7.759  -1.663  -4.433  0.00  0.00    +0.010 C 
ATOM     22  C   UNL     1       9.426  -2.524  -6.084  0.00  0.00    +0.010 C 
ATOM     23  C   UNL     1       7.851  -4.104  -4.960  0.00  0.00    +0.010 C 
ENDBRANCH  19  20
ENDBRANCH  16  19
ENDBRANCH  14  16
ENDBRANCH   1  12
BRANCH   1  24
ATOM     24  N   UNL     1       5.346  -2.788   0.618  0.00  0.00    -0.277 N 
ATOM     25  C   UNL     1       5.238  -4.083   0.972  0.00  0.00    +0.237 C 
ATOM     26  O   UNL     1       5.623  -4.952   0.218  0.00  0.00    -0.274 OA
BRANCH  25  27
ATOM     27  C   UNL     1       4.637  -4.453   2.304  0.00  0.00    +0.159 C 
ATOM     28  C   UNL     1       5.693  -4.314   3.423  0.00  0.00    +0.041 C 
ATOM     29  C   UNL     1       6.258  -5.751   3.503  0.00  0.00    +0.098 C 
ATOM     30  C   UNL     1       5.140  -6.620   2.971  0.00  0.00    +0.214 C 
ATOM     31  O   UNL     1       5.062  -7.821   3.121  0.00  0.00    -0.276 OA
ATOM     32  N   UNL     1       4.242  -5.866   2.308  0.00  0.00    -0.304 N 
ATOM     33  H   UNL     1       3.439  -6.211   1.889  0.00  0.00    +0.149 HD
ENDBRANCH  25  27
BRANCH  24  34
ATOM     34  C   UNL     1       4.986  -1.735   1.571  0.00  0.00    +0.183 C 
BRANCH  34  39
ATOM     35  C   UNL     1       0.750   0.484  -0.033  0.00  0.00    +0.086 C 
ATOM     36  C   UNL     1       1.684  -0.429   0.718  0.00  0.00    +0.102 A 
ATOM     37  C   UNL     1       1.321  -1.353   1.625  0.00  0.00    +0.045 A 
ATOM     38  C   UNL     1       2.508  -1.975   2.075  0.00  0.00    +0.046 A 
ATOM     39  C   UNL     1       3.526  -1.394   1.415  0.00  0.00    +0.122 A 
ATOM     40  O   UNL     1       3.021  -0.462   0.590  0.00  0.00    -0.463 OA
ENDBRANCH  34  39
ENDBRANCH  24  34
ENDBRANCH   1  24
TORSDOF 11
