REMARK  Name = ZINC06506661
REMARK  5 active torsions:
REMARK  status: ('A' for Active; 'I' for Inactive)
REMARK    1  A    between atoms: C_1  and  C_2
REMARK    2  A    between atoms: C_7  and  C_8
REMARK    3  A    between atoms: C_9  and  C_10
REMARK    4  A    between atoms: C_10  and  C_12
REMARK    5  A    between atoms: C_16  and  C_20
REMARK                            x       y       z     vdW  Elec       q    Type
REMARK                         _______ _______ _______ _____ _____    ______ ____
ROOT
ATOM      1  C   UNL     1       0.049   0.046   4.927  0.00  0.00    +0.197 C 
ATOM      2  O   UNL     1       0.143   1.261   4.941  0.00  0.00    -0.287 OA
ENDROOT
BRANCH   1   3
ATOM      3  C   UNL     1      -0.040  -0.698   6.190  0.00  0.00    +0.152 A 
ATOM      4  C   UNL     1      -0.143  -0.022   7.416  0.00  0.00    +0.200 A 
ATOM      5  O   UNL     1      -0.164   1.328   7.461  0.00  0.00    -0.287 OA
ATOM      6  C   UNL     1      -0.226  -0.783   8.597  0.00  0.00    +0.093 A 
ATOM      7  C   UNL     1      -0.205  -2.130   8.535  0.00  0.00    +0.110 A 
ATOM      8  O   UNL     1      -0.106  -2.778   7.366  0.00  0.00    -0.427 OA
ATOM      9  C   UNL     1      -0.029  -2.115   6.199  0.00  0.00    +0.352 A 
ATOM     10  O   UNL     1       0.056  -2.732   5.152  0.00  0.00    -0.244 OA
ATOM     11  C   UNL     1      -0.294  -2.927   9.811  0.00  0.00    +0.086 C 
ENDBRANCH   1   3
BRANCH   1  13
ATOM     12  C   UNL     1       0.002   0.015   2.490  0.00  0.00    +0.012 C 
ATOM     13  C   UNL     1       0.025  -0.673   3.650  0.00  0.00    +0.052 C 
BRANCH  12  20
ATOM     14  C   UNL     1      -0.047   1.509   0.013  0.00  0.00    +0.044 C 
ATOM     15  C   UNL     1      -0.046   0.002   0.003  0.00  0.00    -0.043 A 
ATOM     16  C   UNL     1      -0.062  -0.682  -1.195  0.00  0.00    +0.004 A 
ATOM     17  C   UNL     1      -0.061  -2.065  -1.206  0.00  0.00    +0.000 A 
ATOM     18  C   UNL     1      -0.044  -2.774  -0.017  0.00  0.00    +0.001 A 
ATOM     19  C   UNL     1      -0.027  -2.106   1.188  0.00  0.00    +0.008 A 
ATOM     20  C   UNL     1      -0.022  -0.707   1.208  0.00  0.00    -0.022 A 
ENDBRANCH  12  20
ENDBRANCH   1  13
TORSDOF 3
