REMARK  Name = ZINC35831013
REMARK  8 active torsions:
REMARK  status: ('A' for Active; 'I' for Inactive)
REMARK    1  A    between atoms: C_1  and  C_2
REMARK    2  A    between atoms: C_5  and  N_8
REMARK    3  A    between atoms: N_8  and  C_9
REMARK    4  A    between atoms: N_8  and  S_23
REMARK    5  A    between atoms: N_12  and  C_15
REMARK    6  A    between atoms: C_15  and  C_16
REMARK    7  A    between atoms: S_23  and  C_26
REMARK    8  A    between atoms: C_30  and  C_32
REMARK                            x       y       z     vdW  Elec       q    Type
REMARK                         _______ _______ _______ _____ _____    ______ ____
ROOT
ATOM      1  N   UNL     1       0.054  -4.155  -0.027  0.00  0.00    -0.200 N 
ENDROOT
BRANCH   1   6
ATOM      2  C   UNL     1      -0.935   1.411   0.416  0.00  0.00    +0.044 C 
ATOM      3  C   UNL     1      -0.672  -0.068   0.298  0.00  0.00    -0.050 A 
ATOM      4  C   UNL     1       0.617  -0.525   0.096  0.00  0.00    +0.005 A 
ATOM      5  C   UNL     1       0.861  -1.880  -0.013  0.00  0.00    +0.025 A 
ATOM      6  C   UNL     1      -0.190  -2.784   0.082  0.00  0.00    +0.052 A 
ATOM      7  C   UNL     1      -1.483  -2.321   0.286  0.00  0.00    +0.025 A 
ATOM      8  C   UNL     1      -1.720  -0.965   0.399  0.00  0.00    +0.005 A 
ENDBRANCH   1   6
BRANCH   1   9
ATOM      9  C   UNL     1       0.731  -4.867   1.059  0.00  0.00    +0.095 C 
ATOM     10  C   UNL     1      -0.011  -4.619   2.376  0.00  0.00    +0.006 C 
ATOM     11  C   UNL     1       0.746  -5.300   3.518  0.00  0.00    -0.077 C 
ATOM     12  N   UNL     1       2.103  -4.748   3.608  0.00  0.00    +0.382 N 
ATOM     13  C   UNL     1       2.844  -5.046   2.377  0.00  0.00    -0.077 C 
ATOM     14  C   UNL     1       2.168  -4.355   1.190  0.00  0.00    +0.006 C 
ATOM     15  H   UNL     1       2.051  -3.749   3.735  0.00  0.00    -0.081 HD
BRANCH  12  16
ATOM     16  C   UNL     1       2.799  -5.349   4.754  0.00  0.00    -0.043 C 
BRANCH  16  17
ATOM     17  C   UNL     1       4.146  -4.696   4.922  0.00  0.00    -0.061 A 
ATOM     18  C   UNL     1       5.251  -5.212   4.269  0.00  0.00    +0.002 A 
ATOM     19  C   UNL     1       6.487  -4.614   4.422  0.00  0.00    +0.003 A 
ATOM     20  C   UNL     1       6.622  -3.499   5.229  0.00  0.00    +0.038 A 
ATOM     21  C   UNL     1       5.516  -2.982   5.883  0.00  0.00    +0.124 A 
ATOM     22  C   UNL     1       4.277  -3.578   5.724  0.00  0.00    +0.040 A 
ATOM     23  F   UNL     1       5.647  -1.892   6.671  0.00  0.00    -0.205 F 
ENDBRANCH  16  17
ENDBRANCH  12  16
ENDBRANCH   1   9
BRANCH   1  24
ATOM     24  S   UNL     1      -0.422  -4.975  -1.385  0.00  0.00    +0.075 S 
ATOM     25  O   UNL     1      -0.709  -6.305  -0.976  0.00  0.00    -0.150 OA
ATOM     26  O   UNL     1      -1.382  -4.155  -2.038  0.00  0.00    -0.150 OA
BRANCH  24  27
ATOM     27  C   UNL     1       0.975  -5.066  -2.455  0.00  0.00    +0.109 A 
ATOM     28  C   UNL     1       1.152  -4.115  -3.443  0.00  0.00    +0.029 A 
ATOM     29  C   UNL     1       2.248  -4.187  -4.282  0.00  0.00    +0.002 A 
ATOM     30  C   UNL     1       3.166  -5.210  -4.134  0.00  0.00    +0.003 A 
ATOM     31  C   UNL     1       2.989  -6.160  -3.146  0.00  0.00    -0.049 A 
ATOM     32  C   UNL     1       1.896  -6.085  -2.303  0.00  0.00    +0.032 A 
ATOM     33  C   UNL     1       3.991  -7.274  -2.984  0.00  0.00    +0.044 C 
ENDBRANCH  24  27
ENDBRANCH   1  24
TORSDOF 6
