REMARK  Name = ZINC35466028
REMARK  5 active torsions:
REMARK  status: ('A' for Active; 'I' for Inactive)
REMARK    1  A    between atoms: C_1  and  C_2
REMARK    2  A    between atoms: C_6  and  C_20
REMARK    3  A    between atoms: C_6  and  C_21
REMARK    4  A    between atoms: C_12  and  C_17
REMARK    5  A    between atoms: C_14  and  O_16
REMARK                            x       y       z     vdW  Elec       q    Type
REMARK                         _______ _______ _______ _____ _____    ______ ____
ROOT
ATOM      1  C   UNL     1      -0.027   1.554  -0.046  0.00  0.00    +0.014 C 
ATOM      2  C   UNL     1       0.014  -0.002  -0.038  0.00  0.00    -0.001 C 
ATOM      3  C   UNL     1       0.723  -0.395  -1.339  0.00  0.00    +0.009 C 
ATOM      4  C   UNL     1       1.158  -1.854  -1.325  0.00  0.00    +0.001 C 
ATOM      5  C   UNL     1       2.123  -2.082  -0.166  0.00  0.00    +0.007 C 
ATOM      6  C   UNL     1       1.443  -1.783   1.170  0.00  0.00    -0.031 C 
ATOM      7  C   UNL     1       0.796  -0.415   1.188  0.00  0.00    +0.010 C 
ATOM      8  C   UNL     1       0.036  -0.149   2.484  0.00  0.00    +0.080 C 
ATOM      9  C   UNL     1      -1.404  -0.579   2.373  0.00  0.00    +0.150 C 
ATOM     10  O   UNL     1      -1.915  -1.276   3.219  0.00  0.00    -0.296 OA
ATOM     11  C   UNL     1      -2.200  -0.110   1.177  0.00  0.00    +0.197 C 
ATOM     12  C   UNL     1      -1.429  -0.479  -0.090  0.00  0.00    +0.142 C 
ATOM     13  C   UNL     1       2.556  -1.811   2.244  0.00  0.00    +0.011 C 
ATOM     14  C   UNL     1       0.457  -2.901   1.506  0.00  0.00    +0.011 C 
ENDROOT
BRANCH  11  15
ATOM     15  C   UNL     1      -3.543  -0.798   1.167  0.00  0.00    +0.369 C 
ATOM     16  O   UNL     1      -4.557  -0.153   0.964  0.00  0.00    -0.245 OA
ATOM     17  O   UNL     1      -3.614  -2.000   1.364  0.00  0.00    -0.245 OA
ENDBRANCH  11  15
BRANCH  12  18
ATOM     18  O   UNL     1      -1.529  -1.879  -0.326  0.00  0.00    -0.390 OA
ATOM     19  H   UNL     1      -2.433  -2.190  -0.472  0.00  0.00    +0.210 HD
ENDBRANCH  12  18
TORSDOF 2
