REMARK  Name = ZINC22719946
REMARK  15 active torsions:
REMARK  status: ('A' for Active; 'I' for Inactive)
REMARK    1  A    between atoms: C_1  and  C_2
REMARK    2  A    between atoms: C_4  and  C_18
REMARK    3  A    between atoms: C_5  and  C_17
REMARK    4  A    between atoms: N_6  and  C_7
REMARK    5  A    between atoms: C_10  and  S_13
REMARK    6  A    between atoms: S_13  and  N_16
REMARK    7  A    between atoms: C_18  and  C_20
REMARK    8  A    between atoms: C_20  and  S_21
REMARK    9  A    between atoms: S_21  and  C_22
REMARK   10  A    between atoms: C_24  and  C_32
REMARK   11  A    between atoms: C_25  and  C_31
REMARK   12  A    between atoms: N_26  and  C_27
REMARK   13  A    between atoms: C_27  and  C_28
REMARK   14  A    between atoms: C_28  and  C_29
REMARK   15  A    between atoms: C_28  and  C_30
REMARK                            x       y       z     vdW  Elec       q    Type
REMARK                         _______ _______ _______ _____ _____    ______ ____
ROOT
ATOM      1  C   UNL     1      -0.018   1.503   0.010  0.00  0.00    +0.064 C 
ATOM      2  C   UNL     1       0.002  -0.004   0.002  0.00  0.00    +0.022 A 
ATOM      3  C   UNL     1       0.008  -0.777  -1.097  0.00  0.00    +0.034 A 
ATOM      4  C   UNL     1       0.029  -2.168  -0.626  0.00  0.00    +0.039 A 
ATOM      5  C   UNL     1       0.034  -2.101   0.755  0.00  0.00    +0.031 A 
ATOM      6  N   UNL     1       0.024  -0.802   1.112  0.00  0.00    -0.317 N 
ATOM      7  C   UNL     1       0.053  -3.277   1.697  0.00  0.00    +0.064 C 
ENDROOT
BRANCH   6   8
ATOM      8  C   UNL     1       0.030  -0.336   2.433  0.00  0.00    +0.047 A 
ATOM      9  C   UNL     1       1.132  -0.562   3.246  0.00  0.00    +0.028 A 
ATOM     10  C   UNL     1       1.135  -0.101   4.548  0.00  0.00    +0.030 A 
ATOM     11  C   UNL     1       0.042   0.586   5.042  0.00  0.00    +0.105 A 
ATOM     12  C   UNL     1      -1.058   0.813   4.235  0.00  0.00    +0.030 A 
ATOM     13  C   UNL     1      -1.064   0.360   2.930  0.00  0.00    +0.028 A 
BRANCH  11  14
ATOM     14  S   UNL     1       0.049   1.172   6.704  0.00  0.00    +0.056 S 
ATOM     15  O   UNL     1      -1.311   1.308   7.093  0.00  0.00    -0.153 OA
ATOM     16  O   UNL     1       0.968   0.357   7.418  0.00  0.00    -0.153 OA
BRANCH  14  17
ATOM     17  N   UNL     1       0.690   2.699   6.681  0.00  0.00    -0.204 NA
ATOM     18  H   UNL     1       0.409   3.353   7.341  0.00  0.00    +0.144 HD
ATOM     19  H   UNL     1       1.345   2.940   6.008  0.00  0.00    +0.144 HD
ENDBRANCH  14  17
ENDBRANCH  11  14
ENDBRANCH   6   8
BRANCH   4  20
ATOM     20  C   UNL     1       0.041  -3.378  -1.450  0.00  0.00    +0.175 C 
ATOM     21  O   UNL     1       0.058  -4.471  -0.923  0.00  0.00    -0.291 OA
BRANCH  20  22
ATOM     22  C   UNL     1       0.033  -3.266  -2.953  0.00  0.00    +0.157 C 
BRANCH  22  23
ATOM     23  S   UNL     1       0.052  -4.927  -3.683  0.00  0.00    -0.082 S 
BRANCH  23  24
ATOM     24  C   UNL     1       0.040  -4.629  -5.420  0.00  0.00    +0.148 A 
ATOM     25  N   UNL     1       0.028  -3.450  -5.997  0.00  0.00    -0.338 N 
ATOM     26  C   UNL     1       0.023  -3.608  -7.331  0.00  0.00    +0.034 A 
ATOM     27  C   UNL     1       0.032  -4.925  -7.601  0.00  0.00    +0.037 A 
ATOM     28  N   UNL     1       0.049  -5.582  -6.391  0.00  0.00    -0.324 N 
ATOM     29  C   UNL     1       0.029  -5.560  -8.967  0.00  0.00    +0.065 C 
ATOM     30  C   UNL     1       0.008  -2.499  -8.351  0.00  0.00    +0.065 C 
ATOM     31  H   UNL     1       0.023  -2.598  -5.533  0.00  0.00    +0.168 HD
BRANCH  28  32
ATOM     32  C   UNL     1       0.068  -7.033  -6.188  0.00  0.00    +0.127 C 
BRANCH  32  33
ATOM     33  C   UNL     1      -1.368  -7.557  -6.112  0.00  0.00    +0.003 C 
ATOM     34  C   UNL     1      -2.059  -7.346  -7.461  0.00  0.00    +0.009 C 
ATOM     35  C   UNL     1      -1.349  -9.049  -5.777  0.00  0.00    +0.009 C 
ENDBRANCH  32  33
ENDBRANCH  28  32
ENDBRANCH  23  24
ENDBRANCH  22  23
ENDBRANCH  20  22
ENDBRANCH   4  20
TORSDOF 9
