REMARK  Name = ZINC49573677
REMARK  10 active torsions:
REMARK  status: ('A' for Active; 'I' for Inactive)
REMARK    1  A    between atoms: C_1  and  C_2
REMARK    2  A    between atoms: C_2  and  C_3
REMARK    3  A    between atoms: C_4  and  O_38
REMARK    4  A    between atoms: C_7  and  C_9
REMARK    5  A    between atoms: N_10  and  C_11
REMARK    6  A    between atoms: C_11  and  C_12
REMARK    7  A    between atoms: C_12  and  C_14
REMARK    8  A    between atoms: C_14  and  O_37
REMARK    9  A    between atoms: C_19  and  C_36
REMARK   10  A    between atoms: C_34  and  C_35
REMARK                            x       y       z     vdW  Elec       q    Type
REMARK                         _______ _______ _______ _____ _____    ______ ____
ROOT
ATOM      1  C   UNL     1       6.428  -1.272  -5.303  0.00  0.00    +0.131 C 
ATOM      2  C   UNL     1       6.083  -0.488  -6.583  0.00  0.00    +0.043 C 
ATOM      3  C   UNL     1       7.412   0.097  -7.115  0.00  0.00    +0.008 C 
ATOM      4  C   UNL     1       8.307   0.140  -5.863  0.00  0.00    +0.002 C 
ATOM      5  C   UNL     1       7.970  -1.175  -5.137  0.00  0.00    +0.007 C 
ATOM      6  C   UNL     1       8.559  -2.384  -5.865  0.00  0.00    +0.010 C 
ATOM      7  C   UNL     1      10.051  -2.199  -6.138  0.00  0.00    +0.005 C 
ATOM      8  C   UNL     1      10.220  -0.957  -7.015  0.00  0.00    +0.002 C 
ATOM      9  C   UNL     1       9.782   0.242  -6.211  0.00  0.00    -0.003 C 
ATOM     10  C   UNL     1      10.586   0.409  -4.926  0.00  0.00    +0.008 C 
ATOM     11  C   UNL     1      12.011  -0.110  -5.057  0.00  0.00    +0.032 C 
ATOM     12  C   UNL     1      12.441  -0.065  -6.502  0.00  0.00    -0.060 C 
ATOM     13  C   UNL     1      13.491   0.657  -6.875  0.00  0.00    +0.046 C 
ATOM     14  C   UNL     1      13.910   0.715  -8.274  0.00  0.00    +0.156 C 
ATOM     15  O   UNL     1      14.884   1.365  -8.591  0.00  0.00    -0.293 OA
ATOM     16  C   UNL     1      13.129  -0.036  -9.324  0.00  0.00    +0.080 C 
ATOM     17  C   UNL     1      11.674  -0.165  -8.861  0.00  0.00    +0.019 C 
ATOM     18  C   UNL     1      11.657  -0.809  -7.491  0.00  0.00    -0.007 C 
ATOM     19  C   UNL     1      12.294  -2.194  -7.626  0.00  0.00    +0.016 C 
ATOM     20  C   UNL     1       8.380  -1.127  -3.664  0.00  0.00    +0.015 C 
ENDROOT
BRANCH   1  21
ATOM     21  C   UNL     1       5.740  -0.652  -4.114  0.00  0.00    +0.184 C 
ATOM     22  O   UNL     1       6.234   0.299  -3.558  0.00  0.00    -0.292 OA
BRANCH  21  23
ATOM     23  C   UNL     1       4.434  -1.218  -3.620  0.00  0.00    +0.190 C 
BRANCH  23  31
ATOM     24  C   UNL     1       1.175   1.664  -1.503  0.00  0.00    +0.060 A 
ATOM     25  C   UNL     1       2.309   0.945  -1.363  0.00  0.00    +0.159 A 
ATOM     26  C   UNL     1       2.864   0.270  -2.546  0.00  0.00    +0.081 A 
ATOM     27  C   UNL     1       2.174   0.411  -3.782  0.00  0.00    +0.050 A 
ATOM     28  C   UNL     1       1.048   1.149  -3.826  0.00  0.00    +0.015 A 
ATOM     29  N   UNL     1       0.556   1.756  -2.716  0.00  0.00    -0.359 N 
ATOM     30  C   UNL     1       0.316   1.298  -5.135  0.00  0.00    +0.063 C 
ATOM     31  N   UNL     1       3.973  -0.446  -2.463  0.00  0.00    -0.375 N 
ATOM     32  H   UNL     1       4.481  -0.460  -1.637  0.00  0.00    +0.160 HD
ATOM     33  H   UNL     1      -0.260   2.276  -2.788  0.00  0.00    +0.165 HD
BRANCH  24  35
ATOM     34  C   UNL     1       1.063   3.818  -0.280  0.00  0.00    +0.010 C 
ATOM     35  C   UNL     1       0.584   2.366  -0.307  0.00  0.00    +0.053 C 
ENDBRANCH  24  35
BRANCH  25  36
ATOM     36  O   UNL     1       2.926   0.847  -0.154  0.00  0.00    -0.503 OA
ATOM     37  H   UNL     1       3.730   0.309  -0.165  0.00  0.00    +0.292 HD
ENDBRANCH  25  36
ENDBRANCH  23  31
ENDBRANCH  21  23
ENDBRANCH   1  21
BRANCH   1  38
ATOM     38  O   UNL     1       6.034  -2.638  -5.440  0.00  0.00    -0.380 OA
ATOM     39  H   UNL     1       5.083  -2.763  -5.561  0.00  0.00    +0.211 HD
ENDBRANCH   1  38
TORSDOF 6
