REMARK  Name = ZINC35870176
REMARK  7 active torsions:
REMARK  status: ('A' for Active; 'I' for Inactive)
REMARK    1  A    between atoms: C_4  and  C_7
REMARK    2  A    between atoms: C_7  and  C_8
REMARK    3  A    between atoms: C_8  and  N_9
REMARK    4  A    between atoms: C_10  and  C_12
REMARK    5  A    between atoms: C_17  and  N_36
REMARK    6  A    between atoms: N_25  and  C_28
REMARK    7  A    between atoms: C_28  and  C_29
REMARK                            x       y       z     vdW  Elec       q    Type
REMARK                         _______ _______ _______ _____ _____    ______ ____
ROOT
ATOM      1  C   UNL     1       7.365  -2.749   2.524  0.00  0.00    +0.098 C 
ATOM      2  C   UNL     1       8.367  -1.921   1.747  0.00  0.00    +0.051 C 
ATOM      3  C   UNL     1       8.887  -0.765   2.550  0.00  0.00    -0.023 A 
ATOM      4  C   UNL     1       9.290   0.392   1.908  0.00  0.00    +0.038 A 
ATOM      5  C   UNL     1       9.773   1.461   2.639  0.00  0.00    +0.127 A 
ATOM      6  C   UNL     1       9.856   1.378   4.017  0.00  0.00    +0.034 A 
ATOM      7  C   UNL     1       9.455   0.227   4.665  0.00  0.00    +0.025 A 
ATOM      8  C   UNL     1       8.967  -0.850   3.932  0.00  0.00    +0.033 A 
ATOM      9  N   UNL     1       8.554  -2.003   4.587  0.00  0.00    -0.329 N 
ATOM     10  C   UNL     1       7.766  -3.041   3.944  0.00  0.00    +0.069 C 
ATOM     11  C   UNL     1       8.505  -4.374   4.075  0.00  0.00    -0.055 C 
ATOM     12  N   UNL     1       8.785  -4.627   5.496  0.00  0.00    +0.388 N 
ATOM     13  C   UNL     1       9.667  -3.588   6.040  0.00  0.00    -0.059 C 
ATOM     14  C   UNL     1       8.956  -2.234   5.989  0.00  0.00    +0.087 C 
ATOM     15  H   UNL     1       7.917  -4.630   6.011  0.00  0.00    -0.081 HD
ENDROOT
BRANCH   1  17
ATOM     16  N   UNL     1       5.450  -1.678   1.382  0.00  0.00    -0.315 N 
ATOM     17  C   UNL     1       6.050  -2.013   2.541  0.00  0.00    +0.218 C 
ATOM     18  O   UNL     1       5.532  -1.722   3.599  0.00  0.00    -0.275 OA
ATOM     19  H   UNL     1       5.864  -1.911   0.536  0.00  0.00    +0.149 HD
BRANCH  16  20
ATOM     20  C   UNL     1       4.171  -0.963   1.399  0.00  0.00    +0.109 C 
BRANCH  20  21
ATOM     21  C   UNL     1       3.711  -0.707  -0.038  0.00  0.00    +0.054 C 
BRANCH  21  25
ATOM     22  C   UNL     1      -0.017   1.378   0.010  0.00  0.00    +0.000 A 
ATOM     23  C   UNL     1       1.171   2.086   0.002  0.00  0.00    +0.000 A 
ATOM     24  C   UNL     1       2.377   1.411  -0.013  0.00  0.00    +0.004 A 
ATOM     25  C   UNL     1       2.396   0.029  -0.020  0.00  0.00    -0.046 A 
ATOM     26  C   UNL     1       1.208  -0.679  -0.012  0.00  0.00    +0.004 A 
ATOM     27  C   UNL     1       0.002  -0.004   0.002  0.00  0.00    +0.000 A 
ENDBRANCH  21  25
ENDBRANCH  20  21
ENDBRANCH  16  20
ENDBRANCH   1  17
BRANCH   5  28
ATOM     28  N   UNL     1      10.201   2.697   1.947  0.00  0.00    +0.056 N 
ATOM     29  O   UNL     1      10.129   2.771   0.742  0.00  0.00    -0.126 OA
ATOM     30  O   UNL     1      10.624   3.632   2.585  0.00  0.00    -0.126 OA
ENDBRANCH   5  28
BRANCH  12  31
ATOM     31  C   UNL     1       9.435  -5.936   5.636  0.00  0.00    +0.019 C 
BRANCH  31  32
ATOM     32  C   UNL     1       9.613  -6.255   7.098  0.00  0.00    +0.199 C 
ATOM     33  O   UNL     1       9.235  -5.468   7.941  0.00  0.00    -0.278 OA
ATOM     34  N   UNL     1      10.192  -7.414   7.470  0.00  0.00    -0.303 N 
ATOM     35  C   UNL     1      10.699  -8.450   6.558  0.00  0.00    +0.108 C 
ATOM     36  C   UNL     1      11.248  -9.599   7.429  0.00  0.00    +0.020 C 
ATOM     37  C   UNL     1      10.506  -9.398   8.777  0.00  0.00    +0.020 C 
ATOM     38  C   UNL     1      10.427  -7.851   8.858  0.00  0.00    +0.108 C 
ENDBRANCH  31  32
ENDBRANCH  12  31
TORSDOF 7
