REMARK  Name = ZINC39609628
REMARK  4 active torsions:
REMARK  status: ('A' for Active; 'I' for Inactive)
REMARK    1  A    between atoms: C_6  and  C_7
REMARK    2  A    between atoms: C_7  and  N_8
REMARK    3  A    between atoms: C_9  and  C_11
REMARK    4  A    between atoms: C_22  and  C_24
REMARK                            x       y       z     vdW  Elec       q    Type
REMARK                         _______ _______ _______ _____ _____    ______ ____
ROOT
ATOM      1  C   UNL     1      -3.307  -1.938  -3.026  0.00  0.00    +0.100 C 
ATOM      2  C   UNL     1      -3.723  -0.611  -3.699  0.00  0.00    +0.121 C 
ATOM      3  N   UNL     1      -4.884  -0.970  -4.548  0.00  0.00    -0.296 N 
ATOM      4  C   UNL     1      -5.652  -1.940  -3.731  0.00  0.00    +0.115 C 
ATOM      5  C   UNL     1      -4.576  -2.807  -3.048  0.00  0.00    -0.004 C 
ATOM      6  C   UNL     1      -5.004  -3.154  -1.625  0.00  0.00    -0.010 C 
ATOM      7  C   UNL     1      -6.233  -4.066  -1.675  0.00  0.00    -0.082 C 
ATOM      8  N   UNL     1      -5.908  -5.288  -2.421  0.00  0.00    +0.379 N 
ATOM      9  C   UNL     1      -5.588  -4.953  -3.814  0.00  0.00    -0.082 C 
ATOM     10  C   UNL     1      -4.332  -4.079  -3.855  0.00  0.00    -0.010 C 
ATOM     11  C   UNL     1      -5.175  -0.517  -5.784  0.00  0.00    +0.248 C 
ATOM     12  O   UNL     1      -4.391   0.207  -6.366  0.00  0.00    -0.270 OA
ATOM     13  H   UNL     1      -5.114  -5.740  -1.994  0.00  0.00    -0.086 HD
ATOM     14  H   UNL     1      -6.700  -5.913  -2.400  0.00  0.00    -0.086 HD
ENDROOT
BRANCH  11  15
ATOM     15  C   UNL     1      -6.446  -0.900  -6.430  0.00  0.00    +0.055 A 
ATOM     16  C   UNL     1      -7.604  -1.056  -5.664  0.00  0.00    +0.016 A 
ATOM     17  C   UNL     1      -8.787  -1.414  -6.273  0.00  0.00    +0.021 A 
ATOM     18  C   UNL     1      -8.831  -1.619  -7.643  0.00  0.00    +0.042 A 
ATOM     19  C   UNL     1      -7.689  -1.467  -8.409  0.00  0.00    +0.040 A 
ATOM     20  C   UNL     1      -6.498  -1.103  -7.812  0.00  0.00    +0.054 A 
ATOM     21 CL   UNL     1      -5.067  -0.904  -8.774  0.00  0.00    -0.083 Cl
ATOM     22 CL   UNL     1     -10.326  -2.070  -8.401  0.00  0.00    -0.083 Cl
ENDBRANCH  11  15
BRANCH   1  24
ATOM     23  N   UNL     1      -2.088  -2.592  -0.975  0.00  0.00    -0.311 N 
ATOM     24  C   UNL     1      -2.866  -1.690  -1.606  0.00  0.00    +0.218 C 
ATOM     25  O   UNL     1      -3.212  -0.680  -1.031  0.00  0.00    -0.275 OA
ATOM     26  H   UNL     1      -1.812  -3.400  -1.435  0.00  0.00    +0.149 HD
BRANCH  23  27
ATOM     27  C   UNL     1      -1.659  -2.351   0.405  0.00  0.00    +0.139 C 
BRANCH  27  33
ATOM     28  C   UNL     1       0.565  -3.465   0.686  0.00  0.00    +0.007 A 
ATOM     29  C   UNL     1       1.350  -4.519   1.115  0.00  0.00    +0.022 A 
ATOM     30  C   UNL     1       0.765  -5.609   1.733  0.00  0.00    +0.059 A 
ATOM     31  C   UNL     1      -0.606  -5.645   1.921  0.00  0.00    +0.060 A 
ATOM     32  C   UNL     1      -1.390  -4.590   1.490  0.00  0.00    +0.026 A 
ATOM     33  C   UNL     1      -0.804  -3.501   0.873  0.00  0.00    -0.029 A 
ATOM     34 CL   UNL     1      -1.341  -7.014   2.696  0.00  0.00    -0.082 Cl
ATOM     35 CL   UNL     1       1.750  -6.933   2.272  0.00  0.00    -0.082 Cl
ENDBRANCH  27  33
ENDBRANCH  23  27
ENDBRANCH   1  24
TORSDOF 4
