REMARK  Name = ZINC53109785
REMARK  6 active torsions:
REMARK  status: ('A' for Active; 'I' for Inactive)
REMARK    1  A    between atoms: C_1  and  C_2
REMARK    2  A    between atoms: C_5  and  C_8
REMARK    3  A    between atoms: C_5  and  N_10
REMARK    4  A    between atoms: C_8  and  O_9
REMARK    5  A    between atoms: N_10  and  C_11
REMARK    6  A    between atoms: C_16  and  N_17
REMARK                            x       y       z     vdW  Elec       q    Type
REMARK                         _______ _______ _______ _____ _____    ______ ____
ROOT
ATOM      1  N   UNL     1      -1.338  -2.026   2.334  0.00  0.00    -0.334 N 
ATOM      2  H   UNL     1      -0.936  -1.336   2.884  0.00  0.00    +0.147 HD
ENDROOT
BRANCH   1   7
ATOM      3  C   UNL     1      -0.448   1.362  -0.598  0.00  0.00    +0.007 C 
ATOM      4  C   UNL     1      -0.244  -0.141  -0.399  0.00  0.00    -0.014 C 
ATOM      5  C   UNL     1      -1.605  -0.831  -0.290  0.00  0.00    +0.005 C 
ATOM      6  C   UNL     1      -1.401  -2.334  -0.091  0.00  0.00    +0.028 C 
ATOM      7  C   UNL     1      -0.603  -2.575   1.192  0.00  0.00    +0.055 C 
ATOM      8  C   UNL     1       0.758  -1.885   1.083  0.00  0.00    +0.028 C 
ATOM      9  C   UNL     1       0.554  -0.382   0.884  0.00  0.00    +0.005 C 
BRANCH   7  10
ATOM     10  C   UNL     1      -0.399  -4.078   1.391  0.00  0.00    +0.181 C 
BRANCH  10  11
ATOM     11  O   UNL     1       0.360  -4.302   2.580  0.00  0.00    -0.393 OA
ATOM     12  H   UNL     1       0.528  -5.236   2.769  0.00  0.00    +0.209 HD
ENDBRANCH  10  11
ENDBRANCH   7  10
ENDBRANCH   1   7
BRANCH   1  13
ATOM     13  C   UNL     1      -2.619  -2.498   2.632  0.00  0.00    +0.058 A 
ATOM     14  C   UNL     1      -3.193  -3.494   1.852  0.00  0.00    +0.026 A 
ATOM     15  C   UNL     1      -4.459  -3.958   2.149  0.00  0.00    +0.017 A 
ATOM     16  C   UNL     1      -5.156  -3.433   3.223  0.00  0.00    +0.020 A 
ATOM     17  C   UNL     1      -4.587  -2.441   4.002  0.00  0.00    +0.050 A 
ATOM     18  C   UNL     1      -3.318  -1.977   3.713  0.00  0.00    +0.148 A 
ATOM     19 BR   UNL     1      -6.890  -4.071   3.626  0.00  0.00    -0.050 Br
BRANCH  18  20
ATOM     20  N   UNL     1      -2.708  -0.921   4.551  0.00  0.00    +0.058 N 
ATOM     21  O   UNL     1      -3.359  -0.383   5.416  0.00  0.00    -0.126 OA
ATOM     22  O   UNL     1      -1.557  -0.596   4.370  0.00  0.00    -0.126 OA
ENDBRANCH  18  20
ENDBRANCH   1  13
TORSDOF 5
