REMARK  Name = ZINC04113563
REMARK  7 active torsions:
REMARK  status: ('A' for Active; 'I' for Inactive)
REMARK    1  A    between atoms: C_1  and  C_2
REMARK    2  A    between atoms: C_5  and  C_8
REMARK    3  A    between atoms: C_8  and  O_9
REMARK    4  A    between atoms: O_9  and  C_10
REMARK    5  A    between atoms: C_10  and  C_12
REMARK    6  A    between atoms: C_13  and  C_27
REMARK    7  A    between atoms: C_18  and  C_20
REMARK                            x       y       z     vdW  Elec       q    Type
REMARK                         _______ _______ _______ _____ _____    ______ ____
ROOT
ATOM      1  C   UNL     1      -1.202  -0.680   0.020  0.00  0.00    +0.078 C 
ATOM      2  C   UNL     1      -1.164  -2.026  -0.081  0.00  0.00    +0.021 C 
ATOM      3  N   UNL     1      -2.312  -2.766  -0.072  0.00  0.00    -0.273 N 
ATOM      4  C   UNL     1      -3.537  -2.236   0.036  0.00  0.00    +0.304 C 
ATOM      5  O   UNL     1      -4.500  -2.977   0.035  0.00  0.00    -0.252 OA
ATOM      6  N   UNL     1      -3.736  -0.907   0.144  0.00  0.00    -0.288 N 
ATOM      7  C   UNL     1      -2.560  -0.021   0.150  0.00  0.00    +0.145 C 
ATOM      8  C   UNL     1       0.166  -2.723  -0.207  0.00  0.00    +0.061 C 
ATOM      9  H   UNL     1      -2.236  -3.730  -0.146  0.00  0.00    +0.156 HD
ATOM     10  H   UNL     1      -4.632  -0.544   0.221  0.00  0.00    +0.151 HD
ENDROOT
BRANCH   7  11
ATOM     11  C   UNL     1      -2.573   0.767   1.435  0.00  0.00    -0.004 A 
ATOM     12  C   UNL     1      -3.029   0.181   2.601  0.00  0.00    +0.007 A 
ATOM     13  C   UNL     1      -3.036   0.902   3.780  0.00  0.00    +0.000 A 
ATOM     14  C   UNL     1      -2.596   2.212   3.793  0.00  0.00    +0.001 A 
ATOM     15  C   UNL     1      -2.144   2.801   2.627  0.00  0.00    +0.020 A 
ATOM     16  C   UNL     1      -2.132   2.078   1.447  0.00  0.00    +0.046 A 
ATOM     17 CL   UNL     1      -1.565   2.817  -0.018  0.00  0.00    -0.083 Cl
ENDBRANCH   7  11
BRANCH   1  18
ATOM     18  C   UNL     1      -0.015   0.088   0.009  0.00  0.00    +0.339 C 
ATOM     19  O   UNL     1       0.339   0.648  -1.012  0.00  0.00    -0.245 OA
BRANCH  18  20
ATOM     20  O   UNL     1       0.727   0.199   1.131  0.00  0.00    -0.457 OA
BRANCH  20  21
ATOM     21  C   UNL     1       1.914   0.990   1.049  0.00  0.00    +0.268 C 
BRANCH  21  26
ATOM     22  C   UNL     1       4.567   1.026   6.182  0.00  0.00    +0.044 C 
ATOM     23  C   UNL     1       3.875   1.016   4.844  0.00  0.00    -0.050 A 
ATOM     24  C   UNL     1       4.182   0.041   3.914  0.00  0.00    +0.004 A 
ATOM     25  C   UNL     1       3.548   0.033   2.685  0.00  0.00    +0.007 A 
ATOM     26  C   UNL     1       2.606   0.999   2.388  0.00  0.00    -0.010 A 
ATOM     27  C   UNL     1       2.302   1.978   3.316  0.00  0.00    +0.007 A 
ATOM     28  C   UNL     1       2.934   1.984   4.546  0.00  0.00    +0.004 A 
ENDBRANCH  21  26
ENDBRANCH  20  21
ENDBRANCH  18  20
ENDBRANCH   1  18
TORSDOF 5
