REMARK  Name = ZINC09011818
REMARK  8 active torsions:
REMARK  status: ('A' for Active; 'I' for Inactive)
REMARK    1  A    between atoms: C_1  and  O_2
REMARK    2  A    between atoms: O_2  and  C_3
REMARK    3  A    between atoms: C_5  and  N_34
REMARK    4  A    between atoms: C_8  and  N_9
REMARK    5  A    between atoms: C_14  and  C_30
REMARK    6  A    between atoms: C_30  and  C_31
REMARK    7  A    between atoms: C_31  and  S_32
REMARK    8  A    between atoms: S_32  and  C_33
REMARK                            x       y       z     vdW  Elec       q    Type
REMARK                         _______ _______ _______ _____ _____    ______ ____
ROOT
ATOM      1  N   UNL     1       1.597  -0.536  -2.597  0.00  0.00    -0.206 N 
ATOM      2  C   UNL     1       2.404   0.137  -1.770  0.00  0.00    +0.229 C 
ATOM      3  O   UNL     1       3.452  -0.278  -1.322  0.00  0.00    -0.275 OA
ATOM      4  C   UNL     1       1.809   1.496  -1.481  0.00  0.00    +0.073 C 
ATOM      5  C   UNL     1       1.369   1.557  -0.003  0.00  0.00    -0.057 C 
ATOM      6  C   UNL     1      -0.620   1.532  -1.228  0.00  0.00    +0.050 C 
ATOM      7  C   UNL     1       0.484   1.487  -2.292  0.00  0.00    +0.088 C 
ATOM      8  C   UNL     1       0.492   0.128  -2.956  0.00  0.00    +0.229 C 
ATOM      9  O   UNL     1      -0.368  -0.294  -3.699  0.00  0.00    -0.275 OA
ATOM     10  C   UNL     1      -1.818   0.726  -1.641  0.00  0.00    -0.028 A 
ATOM     11  C   UNL     1      -2.004  -0.600  -1.964  0.00  0.00    +0.004 A 
ATOM     12  C   UNL     1      -3.262  -1.058  -2.315  0.00  0.00    +0.000 A 
ATOM     13  C   UNL     1      -4.331  -0.181  -2.340  0.00  0.00    +0.002 A 
ATOM     14  C   UNL     1      -4.150   1.148  -2.017  0.00  0.00    +0.023 A 
ATOM     15  C   UNL     1      -2.887   1.618  -1.663  0.00  0.00    +0.036 A 
ATOM     16  N   UNL     1      -2.457   2.896  -1.301  0.00  0.00    -0.286 N 
ATOM     17  C   UNL     1      -1.137   2.930  -1.032  0.00  0.00    +0.211 C 
ATOM     18  O   UNL     1      -0.492   3.901  -0.696  0.00  0.00    -0.277 OA
ATOM     19  H   UNL     1      -3.040   3.669  -1.251  0.00  0.00    +0.155 HD
ATOM     20  N   UNL     1       0.004   1.027  -0.018  0.00  0.00    +0.394 N 
ATOM     21  H   UNL     1      -0.512   1.351   0.809  0.00  0.00    -0.083 HD
ATOM     22  H   UNL     1       0.022   0.000  -0.029  0.00  0.00    -0.083 HD
ENDROOT
BRANCH   1  28
ATOM     23  C   UNL     1       1.447  -2.938  -2.326  0.00  0.00    +0.144 A 
ATOM     24  C   UNL     1       1.730  -4.216  -2.781  0.00  0.00    +0.080 A 
ATOM     25  C   UNL     1       2.453  -4.391  -3.946  0.00  0.00    +0.130 A 
ATOM     26  C   UNL     1       2.892  -3.293  -4.663  0.00  0.00    +0.035 A 
ATOM     27  C   UNL     1       2.610  -2.016  -4.218  0.00  0.00    +0.030 A 
ATOM     28  C   UNL     1       1.884  -1.833  -3.050  0.00  0.00    +0.086 A 
BRANCH  25  29
ATOM     29  N   UNL     1       2.759  -5.757  -4.427  0.00  0.00    +0.057 N 
ATOM     30  O   UNL     1       3.397  -5.913  -5.453  0.00  0.00    -0.126 OA
ATOM     31  O   UNL     1       2.373  -6.726  -3.796  0.00  0.00    -0.126 OA
ENDBRANCH  25  29
BRANCH  23  33
ATOM     32  C   UNL     1       0.325  -3.945  -0.487  0.00  0.00    +0.277 C 
ATOM     33  O   UNL     1       0.740  -2.765  -1.178  0.00  0.00    -0.493 OA
ENDBRANCH  23  33
ENDBRANCH   1  28
BRANCH   5  34
ATOM     34  C   UNL     1       2.292   0.698   0.865  0.00  0.00    -0.004 C 
BRANCH  34  35
ATOM     35  C   UNL     1       1.866   0.813   2.330  0.00  0.00    +0.067 C 
BRANCH  35  36
ATOM     36  S   UNL     1       2.960  -0.205   3.359  0.00  0.00    -0.164 S 
ATOM     37  C   UNL     1       2.330   0.038   5.043  0.00  0.00    +0.084 C 
ENDBRANCH  35  36
ENDBRANCH  34  35
ENDBRANCH   5  34
TORSDOF 6
