REMARK  Name = ZINC17137680
REMARK  12 active torsions:
REMARK  status: ('A' for Active; 'I' for Inactive)
REMARK    1  A    between atoms: C_1  and  C_2
REMARK    2  A    between atoms: N_6  and  O_7
REMARK    3  A    between atoms: O_7  and  C_8
REMARK    4  A    between atoms: C_8  and  C_9
REMARK    5  A    between atoms: N_11  and  C_12
REMARK    6  A    between atoms: C_12  and  C_14
REMARK    7  A    between atoms: C_12  and  C_20
REMARK    8  A    between atoms: C_20  and  O_22
REMARK    9  A    between atoms: O_22  and  C_23
REMARK   10  A    between atoms: C_34  and  C_43
REMARK   11  A    between atoms: C_39  and  C_40
REMARK   12  A    between atoms: C_39  and  O_42
REMARK                            x       y       z     vdW  Elec       q    Type
REMARK                         _______ _______ _______ _____ _____    ______ ____
ROOT
ATOM      1  C   UNL     1      -2.509   5.291  -0.786  0.00  0.00    +0.016 C 
ATOM      2  C   UNL     1      -2.290   5.455  -2.289  0.00  0.00    -0.007 C 
ATOM      3  C   UNL     1      -3.657   5.769  -2.900  0.00  0.00    +0.017 C 
ATOM      4  C   UNL     1      -4.129   7.176  -2.553  0.00  0.00    +0.059 C 
ATOM      5  C   UNL     1      -3.090   8.160  -3.049  0.00  0.00    +0.080 C 
ATOM      6  N   UNL     1      -3.430   9.261  -3.647  0.00  0.00    -0.089 NA
ATOM      7  C   UNL     1      -1.677   7.815  -2.822  0.00  0.00    +0.026 C 
ATOM      8  C   UNL     1      -1.324   6.584  -2.479  0.00  0.00    -0.062 C 
ATOM      9  C   UNL     1       0.154   6.310  -2.261  0.00  0.00    +0.031 C 
ATOM     10  C   UNL     1       0.539   5.143  -3.168  0.00  0.00    +0.008 C 
ATOM     11  C   UNL     1      -0.290   3.910  -2.821  0.00  0.00    -0.003 C 
ATOM     12  C   UNL     1      -1.786   4.162  -2.914  0.00  0.00    +0.002 C 
ATOM     13  C   UNL     1      -2.623   2.965  -2.487  0.00  0.00    +0.005 C 
ATOM     14  C   UNL     1      -2.147   2.232  -1.236  0.00  0.00    +0.011 C 
ATOM     15  C   UNL     1      -0.657   1.991  -1.281  0.00  0.00    +0.011 C 
ATOM     16  C   UNL     1       0.064   3.347  -1.472  0.00  0.00    +0.002 C 
ATOM     17  C   UNL     1       1.530   2.948  -1.248  0.00  0.00    +0.008 C 
ATOM     18  C   UNL     1       1.428   2.026  -0.001  0.00  0.00    +0.049 C 
ATOM     19  C   UNL     1      -0.018   1.467   0.010  0.00  0.00    +0.132 C 
ATOM     20  C   UNL     1      -0.326   1.005  -2.403  0.00  0.00    +0.015 C 
ENDROOT
BRANCH  19  21
ATOM     21  C   UNL     1       0.002  -0.004   0.002  0.00  0.00    -0.070 C 
ATOM     22  C   UNL     1       0.018  -1.178  -0.004  0.00  0.00    +0.007 C 
ENDBRANCH  19  21
BRANCH  19  23
ATOM     23  O   UNL     1      -0.730   1.952   1.147  0.00  0.00    -0.376 OA
ATOM     24  H   UNL     1      -0.359   1.669   1.994  0.00  0.00    +0.211 HD
ENDBRANCH  19  23
BRANCH   6  25
ATOM     25  O   UNL     1      -2.433  10.160  -4.096  0.00  0.00    -0.384 OA
BRANCH  25  26
ATOM     26  C   UNL     1      -2.950  11.329  -4.734  0.00  0.00    +0.358 C 
BRANCH  26  27
ATOM     27  C   UNL     1      -1.807  12.211  -5.169  0.00  0.00    +0.254 C 
ATOM     28  O   UNL     1      -0.663  11.871  -4.953  0.00  0.00    -0.272 OA
ATOM     29  N   UNL     1      -2.057  13.376  -5.798  0.00  0.00    -0.296 N 
ATOM     30  H   UNL     1      -2.972  13.648  -5.971  0.00  0.00    +0.150 HD
BRANCH  29  31
ATOM     31  C   UNL     1      -0.946  14.233  -6.221  0.00  0.00    +0.213 C 
BRANCH  31  32
ATOM     32  C   UNL     1      -1.421  15.660  -6.315  0.00  0.00    -0.017 A 
ATOM     33  C   UNL     1      -2.668  15.941  -6.840  0.00  0.00    +0.006 A 
ATOM     34  C   UNL     1      -3.106  17.250  -6.922  0.00  0.00    +0.000 A 
ATOM     35  C   UNL     1      -2.291  18.279  -6.489  0.00  0.00    +0.000 A 
ATOM     36  C   UNL     1      -1.041  17.999  -5.970  0.00  0.00    +0.000 A 
ATOM     37  C   UNL     1      -0.606  16.690  -5.883  0.00  0.00    +0.006 A 
ENDBRANCH  31  32
BRANCH  31  38
ATOM     38  C   UNL     1      -0.447  13.780  -7.568  0.00  0.00    +0.332 C 
ATOM     39  O   UNL     1      -0.965  12.837  -8.119  0.00  0.00    -0.248 OA
BRANCH  38  40
ATOM     40  O   UNL     1       0.575  14.422  -8.156  0.00  0.00    -0.466 OA
ATOM     41  C   UNL     1       1.003  13.931  -9.454  0.00  0.00    +0.280 C 
ENDBRANCH  38  40
ENDBRANCH  31  38
ENDBRANCH  29  31
ENDBRANCH  26  27
ENDBRANCH  25  26
ENDBRANCH   6  25
TORSDOF 9
