REMARK  Name = ZINC65265890
REMARK  2 active torsions:
REMARK  status: ('A' for Active; 'I' for Inactive)
REMARK    1  A    between atoms: C_14  and  C_16
REMARK    2  A    between atoms: N_27  and  C_28
REMARK                            x       y       z     vdW  Elec       q    Type
REMARK                         _______ _______ _______ _____ _____    ______ ____
ROOT
ATOM      1  C   UNL     1       0.174   1.445  -0.056  0.00  0.00    +0.000 A 
ATOM      2  C   UNL     1       1.370   2.137  -0.105  0.00  0.00    +0.002 A 
ATOM      3  C   UNL     1       2.559   1.435  -0.132  0.00  0.00    +0.023 A 
ATOM      4  C   UNL     1       2.550   0.047  -0.115  0.00  0.00    +0.037 A 
ATOM      5  C   UNL     1       1.353  -0.657  -0.078  0.00  0.00    -0.012 A 
ATOM      6  C   UNL     1       0.165   0.067  -0.042  0.00  0.00    +0.007 A 
ATOM      7  C   UNL     1       1.234  -2.159  -0.091  0.00  0.00    +0.119 C 
ATOM      8  N   UNL     1       2.373  -2.824   0.558  0.00  0.00    -0.299 NA
ATOM      9  C   UNL     1       3.465  -3.059  -0.412  0.00  0.00    +0.091 C 
ATOM     10  C   UNL     1       4.635  -3.796   0.261  0.00  0.00    +0.050 C 
ATOM     11  C   UNL     1       4.209  -5.279   0.160  0.00  0.00    +0.110 C 
ATOM     12  N   UNL     1       3.216  -5.376  -0.921  0.00  0.00    -0.295 N 
ATOM     13  C   UNL     1       3.020  -4.036  -1.510  0.00  0.00    +0.137 C 
ATOM     14  C   UNL     1       2.588  -6.503  -1.311  0.00  0.00    +0.247 C 
ATOM     15  O   UNL     1       1.707  -6.451  -2.148  0.00  0.00    -0.270 OA
ATOM     16  C   UNL     1       3.879  -1.738  -0.963  0.00  0.00    +0.095 C 
ATOM     17  N   UNL     1       3.750  -0.656  -0.125  0.00  0.00    -0.303 N 
ATOM     18  N   UNL     1       4.337  -1.615  -2.166  0.00  0.00    -0.372 N 
ATOM     19  H   UNL     1       2.700  -2.289   1.349  0.00  0.00    +0.123 HD
ATOM     20  H   UNL     1       4.417  -2.396  -2.736  0.00  0.00    +0.161 HD
ATOM     21  H   UNL     1       4.484  -0.387   0.449  0.00  0.00    +0.153 HD
ENDROOT
BRANCH  14  22
ATOM     22  C   UNL     1       2.969  -7.802  -0.721  0.00  0.00    +0.041 A 
ATOM     23  C   UNL     1       2.434  -8.987  -1.232  0.00  0.00    +0.017 A 
ATOM     24  C   UNL     1       2.792 -10.198  -0.681  0.00  0.00    +0.050 A 
ATOM     25  C   UNL     1       3.682 -10.246   0.383  0.00  0.00    +0.166 A 
ATOM     26  C   UNL     1       4.219  -9.066   0.899  0.00  0.00    +0.167 A 
ATOM     27  C   UNL     1       3.869  -7.849   0.347  0.00  0.00    +0.062 A 
ATOM     28  O   UNL     1       5.057  -9.383   1.929  0.00  0.00    -0.453 OA
ATOM     29  C   UNL     1       4.714 -10.730   2.303  0.00  0.00    +0.466 C 
ATOM     30  O   UNL     1       4.186 -11.298   1.090  0.00  0.00    -0.453 OA
ENDBRANCH  14  22
BRANCH  18  31
ATOM     31  C   UNL     1       4.733  -0.297  -2.669  0.00  0.00    +0.080 C 
ATOM     32  C   UNL     1       3.517   0.419  -3.291  0.00  0.00    +0.024 C 
ATOM     33  C   UNL     1       4.103   1.173  -4.510  0.00  0.00    +0.002 C 
ATOM     34  C   UNL     1       5.154   0.174  -5.057  0.00  0.00    +0.002 C 
ATOM     35  C   UNL     1       5.774  -0.453  -3.791  0.00  0.00    +0.024 C 
ENDBRANCH  18  31
TORSDOF 2
