REMARK  Name = ZINC38111036
REMARK  6 active torsions:
REMARK  status: ('A' for Active; 'I' for Inactive)
REMARK    1  A    between atoms: C_4  and  C_7
REMARK    2  A    between atoms: C_7  and  N_8
REMARK    3  A    between atoms: N_8  and  CA_9
REMARK    4  A    between atoms: CA_9  and  C_11
REMARK    5  A    between atoms: CA_9  and  C_13
REMARK    6  A    between atoms: C_11  and  O_12
REMARK                            x       y       z     vdW  Elec       q    Type
REMARK                         _______ _______ _______ _____ _____    ______ ____
ROOT
ATOM      1  CA  UNL     1       5.435  -1.670   1.325  0.00  0.00    -0.014 C 
ENDROOT
BRANCH   1   2
ATOM      2  C   UNL     1       5.949  -1.814   2.734  0.00  0.00    -0.054 A 
ATOM      3  C   UNL     1       7.296  -1.649   2.998  0.00  0.00    +0.051 A 
ATOM      4  C   UNL     1       7.771  -1.781   4.292  0.00  0.00    +0.168 A 
ATOM      5  C   UNL     1       6.888  -2.081   5.327  0.00  0.00    +0.180 A 
ATOM      6  C   UNL     1       5.539  -2.245   5.056  0.00  0.00    +0.063 A 
ATOM      7  C   UNL     1       5.071  -2.106   3.761  0.00  0.00    +0.021 A 
ATOM      8 BR   UNL     1       4.336  -2.652   6.457  0.00  0.00    -0.046 Br
ATOM      9  O   UNL     1       7.593  -2.157   6.493  0.00  0.00    -0.451 OA
ATOM     10  C   UNL     1       8.970  -2.305   6.101  0.00  0.00    +0.466 C 
ATOM     11  O   UNL     1       9.029  -1.669   4.811  0.00  0.00    -0.453 OA
ENDBRANCH   1   2
BRANCH   1  12
ATOM     12  N   UNL     1       4.153  -0.953   1.342  0.00  0.00    +0.388 N 
ATOM     13  H1  UNL     1       4.267  -0.072   1.821  0.00  0.00    -0.084 HD
ATOM     14  H2  UNL     1       3.462  -1.510   1.822  0.00  0.00    -0.084 HD
BRANCH  12  15
ATOM     15  C   UNL     1       3.711  -0.707  -0.038  0.00  0.00    -0.046 C 
BRANCH  15  19
ATOM     16  C   UNL     1      -0.017   1.378   0.010  0.00  0.00    +0.000 A 
ATOM     17  C   UNL     1       1.171   2.086   0.002  0.00  0.00    +0.000 A 
ATOM     18  C   UNL     1       2.377   1.411  -0.013  0.00  0.00    +0.002 A 
ATOM     19  C   UNL     1       2.396   0.029  -0.020  0.00  0.00    -0.064 A 
ATOM     20  C   UNL     1       1.208  -0.679  -0.012  0.00  0.00    +0.002 A 
ATOM     21  C   UNL     1       0.002  -0.004   0.002  0.00  0.00    +0.000 A 
ENDBRANCH  15  19
ENDBRANCH  12  15
ENDBRANCH   1  12
BRANCH   1  22
ATOM     22  C   UNL     1       5.235  -3.057   0.710  0.00  0.00    +0.144 C 
BRANCH  22  23
ATOM     23  O   UNL     1       4.380  -3.832   1.552  0.00  0.00    -0.396 OA
ATOM     24  H   UNL     1       4.209  -4.726   1.223  0.00  0.00    +0.209 HD
ENDBRANCH  22  23
ENDBRANCH   1  22
TORSDOF 6
