REMARK  Name = ZINC58022638
REMARK  5 active torsions:
REMARK  status: ('A' for Active; 'I' for Inactive)
REMARK    1  A    between atoms: C_1  and  C_2
REMARK    2  A    between atoms: C_2  and  C_3
REMARK    3  A    between atoms: C_2  and  N_10
REMARK    4  A    between atoms: C_11  and  C_13
REMARK    5  A    between atoms: C_13  and  N_14
REMARK                            x       y       z     vdW  Elec       q    Type
REMARK                         _______ _______ _______ _____ _____    ______ ____
ROOT
ATOM      1  N   UNL     1      -0.236  -1.150  -4.707  0.00  0.00    -0.215 N 
ATOM      2  C   UNL     1      -1.022  -2.206  -5.013  0.00  0.00    +0.247 C 
ATOM      3  O   UNL     1      -1.350  -3.126  -4.304  0.00  0.00    -0.273 OA
ATOM      4  C   UNL     1      -1.369  -2.001  -6.478  0.00  0.00    +0.113 C 
ATOM      5  C   UNL     1      -0.218  -2.537  -7.327  0.00  0.00    +0.035 C 
ATOM      6  C   UNL     1      -0.637  -2.740  -8.782  0.00  0.00    +0.003 C 
ATOM      7  C   UNL     1      -0.568  -1.441  -9.606  0.00  0.00    +0.000 C 
ATOM      8  C   UNL     1      -1.787  -0.572  -9.247  0.00  0.00    +0.000 C 
ATOM      9  C   UNL     1      -3.035  -1.451  -9.152  0.00  0.00    +0.000 C 
ATOM     10  C   UNL     1      -3.517  -1.579  -7.710  0.00  0.00    +0.003 C 
ATOM     11  C   UNL     1      -2.706  -2.575  -6.883  0.00  0.00    +0.035 C 
ATOM     12  N   UNL     1      -1.400  -0.523  -6.483  0.00  0.00    -0.285 N 
ATOM     13  C   UNL     1      -0.488  -0.145  -5.555  0.00  0.00    +0.310 C 
ATOM     14  O   UNL     1       0.023   0.949  -5.505  0.00  0.00    -0.252 OA
ATOM     15  H   UNL     1      -1.997   0.078  -6.929  0.00  0.00    +0.151 HD
ENDROOT
BRANCH   1  16
ATOM     16  C   UNL     1       0.712  -1.094  -3.598  0.00  0.00    +0.213 C 
BRANCH  16  18
ATOM     17  N   UNL     1       0.688  -0.476  -1.203  0.00  0.00    -0.307 N 
ATOM     18  C   UNL     1       0.006  -0.608  -2.358  0.00  0.00    +0.231 C 
ATOM     19  O   UNL     1      -1.175  -0.336  -2.400  0.00  0.00    -0.274 OA
ATOM     20  H   UNL     1       1.632  -0.695  -1.170  0.00  0.00    +0.149 HD
BRANCH  17  22
ATOM     21  C   UNL     1      -0.019   1.526   0.010  0.00  0.00    +0.033 C 
ATOM     22  C   UNL     1       0.002  -0.004   0.002  0.00  0.00    +0.102 C 
BRANCH  22  23
ATOM     23  C   UNL     1       0.731  -0.503   1.223  0.00  0.00    -0.009 A 
ATOM     24  C   UNL     1       2.077  -0.808   1.148  0.00  0.00    +0.007 A 
ATOM     25  C   UNL     1       2.746  -1.266   2.268  0.00  0.00    +0.000 A 
ATOM     26  C   UNL     1       2.069  -1.419   3.463  0.00  0.00    +0.001 A 
ATOM     27  C   UNL     1       0.723  -1.115   3.539  0.00  0.00    +0.020 A 
ATOM     28  C   UNL     1       0.054  -0.651   2.420  0.00  0.00    +0.046 A 
ATOM     29 CL   UNL     1      -1.635  -0.263   2.517  0.00  0.00    -0.083 Cl
ENDBRANCH  22  23
ENDBRANCH  17  22
ENDBRANCH  16  18
ENDBRANCH   1  16
TORSDOF 4
