REMARK  Name = ZINC67638814
REMARK  14 active torsions:
REMARK  status: ('A' for Active; 'I' for Inactive)
REMARK    1  A    between atoms: C_1  and  C_2
REMARK    2  A    between atoms: N_5  and  C_8
REMARK    3  A    between atoms: C_8  and  C_9
REMARK    4  A    between atoms: C_9  and  C_11
REMARK    5  A    between atoms: C_9  and  O_26
REMARK    6  A    between atoms: C_11  and  N_12
REMARK    7  A    between atoms: N_15  and  C_16
REMARK    8  A    between atoms: C_16  and  C_17
REMARK    9  A    between atoms: C_17  and  N_18
REMARK   10  A    between atoms: C_19  and  O_21
REMARK   11  A    between atoms: O_21  and  C_22
REMARK   12  A    between atoms: C_22  and  C_23
REMARK   13  A    between atoms: C_22  and  C_24
REMARK   14  A    between atoms: C_22  and  C_25
REMARK                            x       y       z     vdW  Elec       q    Type
REMARK                         _______ _______ _______ _____ _____    ______ ____
ROOT
ATOM      1  N   UNL     1       0.630  -6.349   4.007  0.00  0.00    -0.297 N 
ATOM      2  C   UNL     1       0.786  -7.662   4.270  0.00  0.00    +0.300 C 
ATOM      3  O   UNL     1       0.440  -8.491   3.452  0.00  0.00    -0.253 OA
ATOM      4  N   UNL     1       1.328  -8.054   5.441  0.00  0.00    -0.298 N 
ATOM      5  H   UNL     1       0.906  -5.687   4.660  0.00  0.00    +0.150 HD
ATOM      6  H   UNL     1       1.605  -7.392   6.093  0.00  0.00    +0.150 HD
ENDROOT
BRANCH   1   7
ATOM      7  C   UNL     1       0.041  -5.922   2.735  0.00  0.00    +0.135 C 
BRANCH   7   8
ATOM      8  C   UNL     1      -0.023  -4.394   2.690  0.00  0.00    +0.115 C 
BRANCH   8   9
ATOM      9  O   UNL     1       1.303  -3.862   2.691  0.00  0.00    -0.392 OA
ATOM     10  H   UNL     1       1.841  -4.147   1.940  0.00  0.00    +0.210 HD
ENDBRANCH   8   9
BRANCH   8  11
ATOM     11  C   UNL     1      -0.750  -3.952   1.419  0.00  0.00    -0.046 C 
BRANCH  11  16
ATOM     12  C   UNL     1      -2.158   1.567   1.124  0.00  0.00    +0.007 C 
ATOM     13  C   UNL     1      -2.222   0.038   1.151  0.00  0.00    -0.018 C 
ATOM     14  C   UNL     1      -1.674  -0.474   2.486  0.00  0.00    -0.016 C 
ATOM     15  C   UNL     1      -1.667  -2.005   2.474  0.00  0.00    -0.078 C 
ATOM     16  N   UNL     1      -0.817  -2.485   1.378  0.00  0.00    +0.381 N 
ATOM     17  C   UNL     1      -1.376  -2.057   0.090  0.00  0.00    -0.078 C 
ATOM     18  C   UNL     1      -1.372  -0.529   0.010  0.00  0.00    -0.016 C 
ATOM     19  H   UNL     1       0.112  -2.105   1.483  0.00  0.00    -0.082 HD
ENDBRANCH  11  16
ENDBRANCH   8  11
ENDBRANCH   7   8
ENDBRANCH   1   7
BRANCH   4  20
ATOM     20  C   UNL     1       1.499  -9.481   5.727  0.00  0.00    +0.124 C 
BRANCH  20  21
ATOM     21  C   UNL     1       2.130  -9.651   7.110  0.00  0.00    +0.126 C 
BRANCH  21  22
ATOM     22  N   UNL     1       2.301 -11.078   7.396  0.00  0.00    -0.280 N 
ATOM     23  C   UNL     1       2.842 -11.470   8.566  0.00  0.00    +0.401 C 
ATOM     24  O   UNL     1       3.189 -10.641   9.384  0.00  0.00    -0.226 OA
ATOM     25  H   UNL     1       2.024 -11.740   6.743  0.00  0.00    +0.152 HD
BRANCH  23  26
ATOM     26  O   UNL     1       2.999 -12.782   8.829  0.00  0.00    -0.445 OA
BRANCH  26  27
ATOM     27  C   UNL     1       3.580 -13.126  10.089  0.00  0.00    +0.107 C 
ATOM     28  C   UNL     1       2.705 -12.581  11.219  0.00  0.00    +0.055 C 
ATOM     29  C   UNL     1       3.677 -14.648  10.207  0.00  0.00    +0.055 C 
ATOM     30  C   UNL     1       4.980 -12.516  10.188  0.00  0.00    +0.055 C 
ENDBRANCH  26  27
ENDBRANCH  23  26
ENDBRANCH  21  22
ENDBRANCH  20  21
ENDBRANCH   4  20
TORSDOF 10
