REMARK  Name = ZINC10656111
REMARK  11 active torsions:
REMARK  status: ('A' for Active; 'I' for Inactive)
REMARK    1  A    between atoms: C_1  and  C_2
REMARK    2  A    between atoms: C_3  and  C_30
REMARK    3  A    between atoms: C_7  and  N_29
REMARK    4  A    between atoms: C_9  and  C_11
REMARK    5  A    between atoms: C_11  and  C_13
REMARK    6  A    between atoms: C_11  and  S_14
REMARK    7  A    between atoms: S_14  and  C_15
REMARK    8  A    between atoms: C_18  and  C_21
REMARK    9  A    between atoms: N_19  and  N_20
REMARK   10  A    between atoms: C_26  and  O_27
REMARK   11  A    between atoms: O_27  and  C_28
REMARK                            x       y       z     vdW  Elec       q    Type
REMARK                         _______ _______ _______ _____ _____    ______ ____
ROOT
ATOM      1  S   UNL     1       1.601  -2.326   5.743  0.00  0.00    -0.074 S 
ENDROOT
BRANCH   1   2
ATOM      2  C   UNL     1       2.245  -3.612   6.761  0.00  0.00    +0.209 A 
ATOM      3  N   UNL     1       2.994  -4.617   6.367  0.00  0.00    -0.121 NA
ATOM      4  N   UNL     1       3.286  -5.368   7.368  0.00  0.00    -0.127 NA
ATOM      5  C   UNL     1       2.742  -4.890   8.462  0.00  0.00    +0.185 A 
ATOM      6  N   UNL     1       2.062  -3.747   8.108  0.00  0.00    -0.224 N 
BRANCH   5   7
ATOM      7  C   UNL     1       2.844  -5.467   9.819  0.00  0.00    +0.062 A 
ATOM      8  C   UNL     1       1.717  -5.532  10.639  0.00  0.00    +0.015 A 
ATOM      9  C   UNL     1       1.818  -6.072  11.905  0.00  0.00    +0.001 A 
ATOM     10  C   UNL     1       3.034  -6.548  12.365  0.00  0.00    +0.004 A 
ATOM     11  C   UNL     1       4.157  -6.488  11.561  0.00  0.00    +0.046 A 
ATOM     12  C   UNL     1       4.070  -5.955  10.286  0.00  0.00    +0.131 A 
BRANCH  12  13
ATOM     13  O   UNL     1       5.171  -5.902   9.493  0.00  0.00    -0.494 OA
ATOM     14  C   UNL     1       6.388  -6.420  10.036  0.00  0.00    +0.277 C 
ENDBRANCH  12  13
ENDBRANCH   5   7
BRANCH   6  15
ATOM     15  N   UNL     1       1.351  -2.921   8.932  0.00  0.00    -0.295 N 
ATOM     16  H   UNL     1       0.416  -3.271   9.075  0.00  0.00    +0.163 HD
ATOM     17  H   UNL     1       1.827  -2.791   9.812  0.00  0.00    +0.163 HD
ENDBRANCH   6  15
ENDBRANCH   1   2
BRANCH   1  18
ATOM     18  C   UNL     1       2.207  -2.736   4.083  0.00  0.00    +0.119 C 
ATOM     19  C   UNL     1       3.733  -2.635   4.057  0.00  0.00    +0.028 C 
BRANCH  18  28
ATOM     20  C   UNL     1      -0.148   2.250   0.322  0.00  0.00    +0.045 C 
ATOM     21  C   UNL     1      -0.030   0.752   0.210  0.00  0.00    -0.028 A 
ATOM     22  C   UNL     1      -0.471   0.117  -0.886  0.00  0.00    -0.008 A 
ATOM     23  S   UNL     1      -0.117  -1.597  -0.546  0.00  0.00    -0.074 S 
ATOM     24  C   UNL     1       0.615  -1.414   1.059  0.00  0.00    +0.114 A 
ATOM     25  C   UNL     1       0.569  -0.020   1.284  0.00  0.00    +0.050 A 
ATOM     26  C   UNL     1       1.108   0.415   2.526  0.00  0.00    +0.128 A 
ATOM     27  N   UNL     1       1.607  -0.482   3.362  0.00  0.00    -0.216 NA
ATOM     28  C   UNL     1       1.622  -1.772   3.083  0.00  0.00    +0.145 A 
ATOM     29  N   UNL     1       1.127  -2.238   1.952  0.00  0.00    -0.224 NA
ATOM     30  C   UNL     1      -1.115   0.711  -2.113  0.00  0.00    +0.052 C 
BRANCH  26  31
ATOM     31  N   UNL     1       1.111   1.758   2.856  0.00  0.00    -0.343 N 
ATOM     32  H   UNL     1       1.083   2.429   2.156  0.00  0.00    +0.144 HD
ATOM     33  H   UNL     1       1.142   2.029   3.787  0.00  0.00    +0.144 HD
ENDBRANCH  26  31
ENDBRANCH  18  28
ENDBRANCH   1  18
TORSDOF 7
