REMARK  Name = ZINC39323308
REMARK  6 active torsions:
REMARK  status: ('A' for Active; 'I' for Inactive)
REMARK    1  A    between atoms: C_1  and  O_2
REMARK    2  A    between atoms: O_2  and  C_3
REMARK    3  A    between atoms: C_3  and  C_4
REMARK    4  A    between atoms: C_6  and  C_18
REMARK    5  A    between atoms: C_8  and  C_16
REMARK    6  A    between atoms: C_9  and  N_15
REMARK                            x       y       z     vdW  Elec       q    Type
REMARK                         _______ _______ _______ _____ _____    ______ ____
ROOT
ATOM      1  C   UNL     1       0.586  -2.442   0.991  0.00  0.00    +0.094 C 
ATOM      2  C   UNL     1       1.736  -3.061   0.875  0.00  0.00    +0.032 C 
ATOM      3  C   UNL     1       3.167  -2.598   0.875  0.00  0.00    +0.100 C 
ATOM      4  C   UNL     1       3.921  -3.605   1.723  0.00  0.00    +0.098 C 
ATOM      5  C   UNL     1       3.342  -4.746   2.151  0.00  0.00    +0.195 C 
ATOM      6  O   UNL     1       2.073  -5.136   1.930  0.00  0.00    -0.448 OA
ATOM      7  C   UNL     1       1.384  -4.548   0.824  0.00  0.00    +0.343 C 
ATOM      8  N   UNL     1      -0.068  -4.525   1.023  0.00  0.00    -0.138 NA
ATOM      9  N   UNL     1      -0.426  -3.342   1.087  0.00  0.00    -0.153 NA
ENDROOT
BRANCH   3  10
ATOM     10  C   UNL     1       3.710  -2.585  -0.531  0.00  0.00    +0.002 A 
ATOM     11  C   UNL     1       5.008  -2.170  -0.767  0.00  0.00    +0.046 A 
ATOM     12  C   UNL     1       5.507  -2.159  -2.058  0.00  0.00    +0.020 A 
ATOM     13  C   UNL     1       4.707  -2.562  -3.111  0.00  0.00    +0.003 A 
ATOM     14  C   UNL     1       3.410  -2.977  -2.875  0.00  0.00    +0.020 A 
ATOM     15  C   UNL     1       2.913  -2.994  -1.584  0.00  0.00    +0.046 A 
ATOM     16 CL   UNL     1       1.286  -3.522  -1.288  0.00  0.00    -0.083 Cl
ATOM     17 CL   UNL     1       6.012  -1.663   0.555  0.00  0.00    -0.083 Cl
ENDBRANCH   3  10
BRANCH   5  18
ATOM     18  N   UNL     1       4.128  -5.598   2.886  0.00  0.00    -0.329 N 
ATOM     19  H   UNL     1       5.051  -5.365   3.073  0.00  0.00    +0.145 HD
ATOM     20  H   UNL     1       3.761  -6.432   3.218  0.00  0.00    +0.145 HD
ENDBRANCH   5  18
BRANCH   4  21
ATOM     21  C   UNL     1       5.282  -3.338   2.078  0.00  0.00    +0.101 C 
ATOM     22  N   UNL     1       6.362  -3.126   2.360  0.00  0.00    -0.191 NA
ENDBRANCH   4  21
BRANCH   1  23
ATOM     23  C   UNL     1       0.412  -0.945   1.019  0.00  0.00    +0.216 C 
BRANCH  23  25
ATOM     24  C   UNL     1      -0.549   0.881  -0.201  0.00  0.00    +0.194 C 
ATOM     25  O   UNL     1      -0.328  -0.529  -0.130  0.00  0.00    -0.377 OA
ENDBRANCH  23  25
ENDBRANCH   1  23
TORSDOF 5
