REMARK  Name = ZINC06393369
REMARK  8 active torsions:
REMARK  status: ('A' for Active; 'I' for Inactive)
REMARK    1  A    between atoms: C_1  and  C_2
REMARK    2  A    between atoms: C_2  and  C_19
REMARK    3  A    between atoms: C_5  and  C_10
REMARK    4  A    between atoms: C_7  and  C_8
REMARK    5  A    between atoms: C_7  and  C_9
REMARK    6  A    between atoms: N_21  and  N_22
REMARK    7  A    between atoms: C_23  and  C_24
REMARK    8  A    between atoms: N_27  and  C_29
REMARK                            x       y       z     vdW  Elec       q    Type
REMARK                         _______ _______ _______ _____ _____    ______ ____
ROOT
ATOM      1  C   UNL     1      -0.160   1.594   0.040  0.00  0.00    +0.021 C 
ATOM      2  C   UNL     1      -0.124   0.068  -0.075  0.00  0.00    +0.052 C 
ATOM      3  C   UNL     1      -1.544  -0.523   0.108  0.00  0.00    +0.017 C 
ATOM      4  C   UNL     1      -1.714  -0.534   1.647  0.00  0.00    +0.013 C 
ATOM      5  C   UNL     1      -0.320  -0.924   2.179  0.00  0.00    +0.062 C 
ATOM      6  C   UNL     1       0.691  -0.541   1.084  0.00  0.00    -0.012 C 
ATOM      7  C   UNL     1       1.684   0.489   1.625  0.00  0.00    +0.012 C 
ATOM      8  C   UNL     1       1.438  -1.786   0.602  0.00  0.00    +0.012 C 
ENDROOT
BRANCH   5   9
ATOM      9  C   UNL     1      -0.020  -0.167   3.447  0.00  0.00    +0.112 A 
ATOM     10  N   UNL     1       0.677  -0.629   4.444  0.00  0.00    -0.232 NA
ATOM     11  C   UNL     1       0.752   0.310   5.422  0.00  0.00    +0.089 A 
ATOM     12  C   UNL     1       1.362   0.346   6.679  0.00  0.00    +0.030 A 
ATOM     13  C   UNL     1       1.258   1.466   7.454  0.00  0.00    +0.002 A 
ATOM     14  C   UNL     1       0.552   2.574   7.007  0.00  0.00    +0.002 A 
ATOM     15  C   UNL     1      -0.058   2.561   5.770  0.00  0.00    +0.028 A 
ATOM     16  C   UNL     1       0.037   1.432   4.969  0.00  0.00    +0.066 A 
ATOM     17  N   UNL     1      -0.435   1.101   3.714  0.00  0.00    -0.342 N 
ATOM     18  H   UNL     1      -0.966   1.667   3.132  0.00  0.00    +0.167 HD
ENDBRANCH   5   9
BRANCH   2  19
ATOM     19  C   UNL     1       0.456  -0.346  -1.403  0.00  0.00    +0.239 C 
ATOM     20  O   UNL     1      -0.163  -1.098  -2.126  0.00  0.00    -0.273 OA
ATOM     21  N   UNL     1       1.661   0.119  -1.786  0.00  0.00    -0.207 N 
ATOM     22  H   UNL     1       2.155   0.721  -1.207  0.00  0.00    +0.177 HD
BRANCH  21  23
ATOM     23  N   UNL     1       2.200  -0.266  -3.021  0.00  0.00    -0.188 NA
ATOM     24  C   UNL     1       3.361   0.182  -3.390  0.00  0.00    +0.141 C 
BRANCH  24  25
ATOM     25  C   UNL     1       3.928  -0.224  -4.690  0.00  0.00    +0.032 A 
ATOM     26  C   UNL     1       3.326  -1.083  -5.635  0.00  0.00    +0.143 A 
ATOM     27  N   UNL     1       4.136  -1.197  -6.653  0.00  0.00    -0.179 NA
ATOM     28  N   UNL     1       5.279  -0.427  -6.410  0.00  0.00    -0.274 N 
ATOM     29  C   UNL     1       5.143   0.170  -5.210  0.00  0.00    +0.117 A 
ATOM     30  C   UNL     1       6.427  -0.290  -7.310  0.00  0.00    +0.172 C 
ENDBRANCH  24  25
ENDBRANCH  21  23
ENDBRANCH   2  19
TORSDOF 4
