REMARK  Name = ZINC16920051
REMARK  11 active torsions:
REMARK  status: ('A' for Active; 'I' for Inactive)
REMARK    1  A    between atoms: C_1  and  C_2
REMARK    2  A    between atoms: C_2  and  C_4
REMARK    3  A    between atoms: C_2  and  N_60
REMARK    4  A    between atoms: C_7  and  S_16
REMARK    5  A    between atoms: N_8  and  C_9
REMARK    6  A    between atoms: S_16  and  C_17
REMARK    7  A    between atoms: C_17  and  C_19
REMARK    8  A    between atoms: C_17  and  C_20
REMARK    9  A    between atoms: N_22  and  C_23
REMARK   10  A    between atoms: C_32  and  N_60
REMARK   11  A    between atoms: C_33  and  N_60
REMARK                            x       y       z     vdW  Elec       q    Type
REMARK                         _______ _______ _______ _____ _____    ______ ____
ROOT
ATOM      1  C   UNL     1      -1.715   3.456   0.075  0.00  0.00    +0.125 A 
ATOM      2  N   UNL     1      -1.693   3.016  -1.151  0.00  0.00    -0.135 NA
ATOM      3  N   UNL     1      -2.612   3.588  -1.843  0.00  0.00    -0.122 NA
ATOM      4  C   UNL     1      -3.278   4.433  -1.090  0.00  0.00    +0.197 A 
ATOM      5  N   UNL     1      -2.729   4.372   0.161  0.00  0.00    -0.275 N 
ENDROOT
BRANCH   5   6
ATOM      6  C   UNL     1      -3.122   5.098   1.295  0.00  0.00    +0.050 A 
ATOM      7  C   UNL     1      -3.652   4.436   2.395  0.00  0.00    +0.028 A 
ATOM      8  C   UNL     1      -4.034   5.153   3.512  0.00  0.00    +0.022 A 
ATOM      9  C   UNL     1      -3.898   6.530   3.532  0.00  0.00    +0.041 A 
ATOM     10  C   UNL     1      -3.375   7.192   2.435  0.00  0.00    +0.022 A 
ATOM     11  C   UNL     1      -2.987   6.479   1.318  0.00  0.00    +0.028 A 
ATOM     12 CL   UNL     1      -4.384   7.428   4.936  0.00  0.00    -0.084 Cl
ENDBRANCH   5   6
BRANCH   1  14
ATOM     13  C   UNL     1       0.580   3.666   0.992  0.00  0.00    -0.005 C 
ATOM     14  C   UNL     1      -0.797   3.031   1.193  0.00  0.00    -0.003 C 
BRANCH  14  17
ATOM     15  C   UNL     1       0.021   1.103  -0.022  0.00  0.00    -0.096 C 
ATOM     16  C   UNL     1       0.022   1.098   2.400  0.00  0.00    -0.096 C 
ATOM     17  N   UNL     1      -0.694   1.557   1.190  0.00  0.00    +0.382 N 
ATOM     18  H   UNL     1      -1.639   1.156   1.190  0.00  0.00    -0.082 HD
ENDBRANCH  14  17
ENDBRANCH   1  14
BRANCH   4  19
ATOM     19  S   UNL     1      -4.628   5.447  -1.595  0.00  0.00    -0.073 S 
BRANCH  19  20
ATOM     20  C   UNL     1      -4.754   4.961  -3.333  0.00  0.00    +0.137 C 
ATOM     21  C   UNL     1      -3.487   5.389  -4.076  0.00  0.00    +0.029 C 
BRANCH  20  22
ATOM     22  C   UNL     1      -5.952   5.630  -3.957  0.00  0.00    +0.230 C 
ATOM     23  O   UNL     1      -6.378   6.666  -3.492  0.00  0.00    -0.274 OA
ATOM     24  N   UNL     1      -6.550   5.077  -5.031  0.00  0.00    -0.285 N 
ATOM     25  H   UNL     1      -6.170   4.286  -5.444  0.00  0.00    +0.155 HD
BRANCH  24  26
ATOM     26  C   UNL     1      -7.718   5.645  -5.550  0.00  0.00    +0.034 A 
ATOM     27  C   UNL     1      -7.892   7.023  -5.531  0.00  0.00    +0.023 A 
ATOM     28  C   UNL     1      -9.046   7.577  -6.045  0.00  0.00    +0.006 A 
ATOM     29  C   UNL     1     -10.033   6.766  -6.580  0.00  0.00    -0.044 A 
ATOM     30  C   UNL     1      -9.864   5.393  -6.601  0.00  0.00    -0.042 A 
ATOM     31  C   UNL     1      -8.705   4.833  -6.091  0.00  0.00    +0.027 A 
ATOM     32  C   UNL     1     -11.074   4.737  -7.231  0.00  0.00    +0.036 C 
ATOM     33  C   UNL     1     -11.800   5.871  -7.986  0.00  0.00    +0.009 C 
ATOM     34  C   UNL     1     -11.369   7.125  -7.196  0.00  0.00    +0.036 C 
ENDBRANCH  24  26
ENDBRANCH  20  22
ENDBRANCH  19  20
ENDBRANCH   4  19
TORSDOF 7
