REMARK  Name = ZINC35807689
REMARK  8 active torsions:
REMARK  status: ('A' for Active; 'I' for Inactive)
REMARK    1  A    between atoms: C_1  and  C_2
REMARK    2  A    between atoms: C_2  and  C_3
REMARK    3  A    between atoms: C_3  and  C_5
REMARK    4  A    between atoms: C_3  and  N_6
REMARK    5  A    between atoms: C_7  and  C_9
REMARK    6  A    between atoms: C_12  and  N_15
REMARK    7  A    between atoms: C_31  and  C_36
REMARK    8  A    between atoms: C_39  and  C_42
REMARK                            x       y       z     vdW  Elec       q    Type
REMARK                         _______ _______ _______ _____ _____    ______ ____
ROOT
ATOM      1  N   UNL     1       8.638   1.750  -2.753  0.00  0.00    -0.193 N 
ATOM      2  C   UNL     1       9.586   2.017  -3.674  0.00  0.00    +0.248 C 
ATOM      3  O   UNL     1       9.475   1.942  -4.879  0.00  0.00    -0.273 OA
ATOM      4  C   UNL     1      10.817   2.430  -2.894  0.00  0.00    +0.170 C 
ATOM      5  C   UNL     1      11.194   3.873  -3.252  0.00  0.00    +0.069 C 
ATOM      6  C   UNL     1      11.952   4.491  -2.104  0.00  0.00    -0.015 A 
ATOM      7  C   UNL     1      12.817   5.656  -2.144  0.00  0.00    +0.003 A 
ATOM      8  C   UNL     1      13.201   6.512  -3.181  0.00  0.00    +0.010 A 
ATOM      9  C   UNL     1      14.053   7.538  -2.854  0.00  0.00    +0.001 A 
ATOM     10  C   UNL     1      14.518   7.725  -1.562  0.00  0.00    +0.002 A 
ATOM     11  C   UNL     1      14.154   6.892  -0.518  0.00  0.00    +0.026 A 
ATOM     12  C   UNL     1      13.289   5.843  -0.821  0.00  0.00    +0.047 A 
ATOM     13  N   UNL     1      12.739   4.857  -0.052  0.00  0.00    -0.356 N 
ATOM     14  H   UNL     1      12.888   4.744   0.900  0.00  0.00    +0.166 HD
ATOM     15  C   UNL     1      11.946   4.055  -0.827  0.00  0.00    +0.046 A 
ATOM     16  C   UNL     1      11.170   2.840  -0.358  0.00  0.00    +0.155 C 
ATOM     17  N   UNL     1      10.347   2.393  -1.491  0.00  0.00    -0.260 N 
ATOM     18  C   UNL     1       9.086   1.959  -1.506  0.00  0.00    +0.317 C 
ATOM     19  O   UNL     1       8.421   1.772  -0.506  0.00  0.00    -0.252 OA
ENDROOT
BRANCH  16  20
ATOM     20  C   UNL     1      12.120   1.737   0.030  0.00  0.00    -0.021 A 
ATOM     21  C   UNL     1      12.216   1.340   1.351  0.00  0.00    +0.006 A 
ATOM     22  C   UNL     1      13.087   0.327   1.707  0.00  0.00    +0.004 A 
ATOM     23  C   UNL     1      13.863  -0.288   0.742  0.00  0.00    -0.050 A 
ATOM     24  C   UNL     1      13.766   0.109  -0.579  0.00  0.00    +0.004 A 
ATOM     25  C   UNL     1      12.892   1.118  -0.935  0.00  0.00    +0.006 A 
ATOM     26  C   UNL     1      14.813  -1.391   1.130  0.00  0.00    +0.044 C 
ENDBRANCH  16  20
BRANCH   1  30
ATOM     27  C   UNL     1       4.784   0.449  -3.668  0.00  0.00    +0.037 A 
ATOM     28  C   UNL     1       5.202   0.519  -2.337  0.00  0.00    +0.015 A 
ATOM     29  C   UNL     1       6.476   0.949  -2.038  0.00  0.00    +0.025 A 
ATOM     30  C   UNL     1       7.346   1.313  -3.060  0.00  0.00    +0.045 A 
ATOM     31  C   UNL     1       6.933   1.246  -4.386  0.00  0.00    +0.025 A 
ATOM     32  C   UNL     1       5.663   0.811  -4.692  0.00  0.00    +0.015 A 
BRANCH  27  34
ATOM     33  N   UNL     1       2.574  -0.361  -3.003  0.00  0.00    -0.309 N 
ATOM     34  C   UNL     1       3.420  -0.012  -3.992  0.00  0.00    +0.244 C 
ATOM     35  O   UNL     1       3.059  -0.077  -5.151  0.00  0.00    -0.270 OA
ATOM     36  H   UNL     1       2.861  -0.309  -2.078  0.00  0.00    +0.149 HD
BRANCH  33  37
ATOM     37  C   UNL     1       1.220  -0.819  -3.325  0.00  0.00    +0.070 C 
ATOM     38  C   UNL     1       1.247  -2.317  -3.631  0.00  0.00    +0.028 C 
BRANCH  37  40
ATOM     39  C   UNL     1       0.171   0.949  -1.904  0.00  0.00    +0.005 C 
ATOM     40  C   UNL     1       0.297  -0.558  -2.132  0.00  0.00    +0.018 C 
ENDBRANCH  37  40
ENDBRANCH  33  37
ENDBRANCH  27  34
ENDBRANCH   1  30
TORSDOF 5
