REMARK  Name = ZINC33703727
REMARK  7 active torsions:
REMARK  status: ('A' for Active; 'I' for Inactive)
REMARK    1  A    between atoms: C_6  and  C_7
REMARK    2  A    between atoms: N_15  and  C_18
REMARK    3  A    between atoms: C_24  and  C_26
REMARK    4  A    between atoms: C_24  and  C_33
REMARK    5  A    between atoms: C_26  and  C_27
REMARK    6  A    between atoms: C_27  and  C_28
REMARK    7  A    between atoms: C_28  and  N_29
REMARK                            x       y       z     vdW  Elec       q    Type
REMARK                         _______ _______ _______ _____ _____    ______ ____
ROOT
ATOM      1  C   UNL     1       2.343   2.053  -0.351  0.00  0.00    -0.027 C 
ATOM      2  C   UNL     1       0.897   2.145  -0.091  0.00  0.00    +0.077 C 
ATOM      3  C   UNL     1       0.505   3.410  -0.954  0.00  0.00    +0.086 C 
ATOM      4  C   UNL     1      -0.890   3.548  -0.400  0.00  0.00    +0.225 C 
ATOM      5  O   UNL     1      -1.498   4.577  -0.198  0.00  0.00    -0.275 OA
ATOM      6  N   UNL     1      -1.327   2.274  -0.180  0.00  0.00    -0.239 N 
ATOM      7  C   UNL     1      -0.306   1.356  -0.164  0.00  0.00    +0.225 C 
ATOM      8  O   UNL     1      -0.397   0.148  -0.208  0.00  0.00    -0.275 OA
ATOM      9  C   UNL     1       1.612   4.342  -0.459  0.00  0.00    +0.048 C 
ATOM     10  N   UNL     1       2.794   3.463  -0.218  0.00  0.00    +0.395 N 
ATOM     11  H   UNL     1       3.193   3.627   0.794  0.00  0.00    -0.083 HD
ATOM     12  H   UNL     1       3.581   3.668  -0.959  0.00  0.00    -0.083 HD
ENDROOT
BRANCH   1  18
ATOM     13  C   UNL     1       3.332   1.662   1.915  0.00  0.00    +0.003 A 
ATOM     14  C   UNL     1       3.944   0.847   2.848  0.00  0.00    +0.015 A 
ATOM     15  C   UNL     1       4.252  -0.463   2.526  0.00  0.00    +0.018 A 
ATOM     16  C   UNL     1       3.941  -0.958   1.272  0.00  0.00    +0.015 A 
ATOM     17  C   UNL     1       3.323  -0.144   0.342  0.00  0.00    +0.003 A 
ATOM     18  C   UNL     1       3.016   1.165   0.664  0.00  0.00    -0.061 A 
ATOM     19 BR   UNL     1       5.097  -1.576   3.800  0.00  0.00    -0.050 Br
ENDBRANCH   1  18
BRANCH   6  20
ATOM     20  C   UNL     1      -2.736   1.925   0.022  0.00  0.00    +0.084 C 
ATOM     21  C   UNL     1      -2.909   1.280   1.399  0.00  0.00    +0.023 C 
ATOM     22  C   UNL     1      -4.380   0.916   1.610  0.00  0.00    +0.002 C 
ATOM     23  C   UNL     1      -4.821  -0.070   0.526  0.00  0.00    +0.000 C 
ATOM     24  C   UNL     1      -4.648   0.575  -0.851  0.00  0.00    +0.002 C 
ATOM     25  C   UNL     1      -3.177   0.939  -1.062  0.00  0.00    +0.023 C 
ENDBRANCH   6  20
BRANCH   9  26
ATOM     26  C   UNL     1       1.192   5.016   0.823  0.00  0.00    +0.346 C 
ATOM     27  O   UNL     1       0.672   6.105   0.790  0.00  0.00    -0.248 OA
ATOM     28  O   UNL     1       1.397   4.404   2.000  0.00  0.00    -0.248 OA
ENDBRANCH   9  26
BRANCH   9  29
ATOM     29  C   UNL     1       1.937   5.390  -1.525  0.00  0.00    +0.001 C 
BRANCH  29  30
ATOM     30  C   UNL     1       3.128   6.234  -1.065  0.00  0.00    +0.018 C 
BRANCH  30  31
ATOM     31  C   UNL     1       3.453   7.282  -2.131  0.00  0.00    +0.105 C 
BRANCH  31  32
ATOM     32  N   UNL     1       4.593   8.089  -1.690  0.00  0.00    -0.300 N 
ATOM     33  C   UNL     1       5.060   9.081  -2.474  0.00  0.00    +0.297 C 
ATOM     34  O   UNL     1       4.534   9.306  -3.547  0.00  0.00    -0.253 OA
ATOM     35  N   UNL     1       6.109   9.824  -2.068  0.00  0.00    -0.313 N 
ATOM     36  H   UNL     1       5.069   7.885  -0.719  0.00  0.00    +0.150 HD
ATOM     37  H   UNL     1       6.490  10.633  -2.708  0.00  0.00    +0.146 HD
ATOM     38  H   UNL     1       6.584   9.620  -1.098  0.00  0.00    +0.146 HD
ENDBRANCH  31  32
ENDBRANCH  30  31
ENDBRANCH  29  30
ENDBRANCH   9  29
TORSDOF 7
