REMARK  Name = ZINC33750014
REMARK  10 active torsions:
REMARK  status: ('A' for Active; 'I' for Inactive)
REMARK    1  A    between atoms: C_1  and  C_2
REMARK    2  A    between atoms: C_13  and  O_15
REMARK    3  A    between atoms: O_15  and  C_16
REMARK    4  A    between atoms: C_16  and  C_18
REMARK    5  A    between atoms: C_18  and  C_19
REMARK    6  A    between atoms: C_19  and  C_20
REMARK    7  A    between atoms: N_22  and  CA_23
REMARK    8  A    between atoms: CA_23  and  C_25
REMARK    9  A    between atoms: CA_23  and  C_31
REMARK   10  A    between atoms: C_42  and  C_43
REMARK                            x       y       z     vdW  Elec       q    Type
REMARK                         _______ _______ _______ _____ _____    ______ ____
ROOT
ATOM      1  C   UNL     1      -5.912  -5.580  -4.549  0.00  0.00    +0.015 C 
ATOM      2  C   UNL     1      -6.896  -4.444  -4.836  0.00  0.00    +0.008 C 
ATOM      3  C   UNL     1      -6.513  -3.648  -6.086  0.00  0.00    +0.011 C 
ATOM      4  C   UNL     1      -6.781  -4.476  -7.344  0.00  0.00    +0.005 C 
ATOM      5  C   UNL     1      -8.278  -4.797  -7.433  0.00  0.00    +0.002 C 
ATOM      6  C   UNL     1      -8.672  -5.641  -6.224  0.00  0.00    -0.003 C 
ATOM      7  C   UNL     1      -8.350  -4.939  -4.924  0.00  0.00    +0.002 C 
ATOM      8  C   UNL     1      -9.210  -3.687  -4.703  0.00  0.00    +0.008 C 
ATOM      9  C   UNL     1      -8.335  -2.711  -3.891  0.00  0.00    +0.045 C 
ATOM     10  C   UNL     1      -6.982  -3.420  -3.666  0.00  0.00    +0.183 C 
ATOM     11  C   UNL     1     -10.172  -5.950  -6.284  0.00  0.00    +0.008 C 
ATOM     12  C   UNL     1     -10.461  -6.815  -7.512  0.00  0.00    +0.032 C 
ATOM     13  C   UNL     1      -9.936  -6.101  -8.744  0.00  0.00    -0.060 C 
ATOM     14  C   UNL     1     -10.755  -5.979  -9.788  0.00  0.00    +0.046 C 
ATOM     15  C   UNL     1     -10.291  -5.310 -11.009  0.00  0.00    +0.156 C 
ATOM     16  O   UNL     1     -11.068  -4.840 -11.815  0.00  0.00    -0.293 OA
ATOM     17  C   UNL     1      -8.790  -5.238 -11.212  0.00  0.00    +0.080 C 
ATOM     18  C   UNL     1      -8.179  -4.706  -9.916  0.00  0.00    +0.019 C 
ATOM     19  C   UNL     1      -8.531  -5.582  -8.727  0.00  0.00    -0.007 C 
ATOM     20  C   UNL     1      -7.582  -6.782  -8.744  0.00  0.00    +0.016 C 
ENDROOT
BRANCH  10  21
ATOM     21  O   UNL     1      -5.888  -2.468  -3.741  0.00  0.00    -0.461 OA
BRANCH  21  22
ATOM     22  C   UNL     1      -5.446  -1.955  -2.583  0.00  0.00    +0.308 C 
ATOM     23  O   UNL     1      -5.955  -2.291  -1.540  0.00  0.00    -0.251 OA
BRANCH  22  24
ATOM     24  C   UNL     1      -4.314  -0.960  -2.583  0.00  0.00    +0.130 C 
BRANCH  24  25
ATOM     25  C   UNL     1      -4.007  -0.537  -1.145  0.00  0.00    +0.107 C 
BRANCH  25  26
ATOM     26  C   UNL     1      -2.875   0.458  -1.145  0.00  0.00    +0.214 C 
ATOM     27  O   UNL     1      -2.364   0.795  -2.192  0.00  0.00    -0.276 OA
ATOM     28  N   UNL     1      -2.430   0.973   0.019  0.00  0.00    -0.299 N 
ATOM     29  H   UNL     1      -2.893   0.667   0.969  0.00  0.00    +0.150 HD
BRANCH  28  30
ATOM     30  CA  UNL     1      -1.329   1.940   0.019  0.00  0.00    +0.217 C 
BRANCH  30  31
ATOM     31  C   UNL     1      -1.415   2.798   1.254  0.00  0.00    -0.016 A 
ATOM     32  C   UNL     1      -1.768   2.233   2.466  0.00  0.00    +0.006 A 
ATOM     33  C   UNL     1      -1.841   3.020   3.600  0.00  0.00    +0.000 A 
ATOM     34  C   UNL     1      -1.573   4.373   3.521  0.00  0.00    +0.000 A 
ATOM     35  C   UNL     1      -1.226   4.940   2.309  0.00  0.00    +0.000 A 
ATOM     36  C   UNL     1      -1.147   4.152   1.175  0.00  0.00    +0.006 A 
ENDBRANCH  30  31
BRANCH  30  37
ATOM     37  C   UNL     1      -0.014   1.204   0.009  0.00  0.00    +0.380 C 
ATOM     38  O   UNL     1       0.002  -0.004   0.002  0.00  0.00    -0.244 OA
ATOM     39  OXT UNL     1       1.139   1.891   0.001  0.00  0.00    -0.244 OA
ENDBRANCH  30  37
ENDBRANCH  28  30
ENDBRANCH  25  26
ENDBRANCH  24  25
ENDBRANCH  22  24
ENDBRANCH  21  22
ENDBRANCH  10  21
TORSDOF 8
