REMARK  Name = ZINC37944256
REMARK  4 active torsions:
REMARK  status: ('A' for Active; 'I' for Inactive)
REMARK    1  A    between atoms: C_6  and  N_7
REMARK    2  A    between atoms: N_7  and  C_8
REMARK    3  A    between atoms: C_8  and  C_10
REMARK    4  A    between atoms: C_8  and  C_18
REMARK                            x       y       z     vdW  Elec       q    Type
REMARK                         _______ _______ _______ _____ _____    ______ ____
ROOT
ATOM      1  C   UNL     1      -1.176  -2.185   0.002  0.00  0.00    +0.187 C 
ENDROOT
BRANCH   1   2
ATOM      2  C   UNL     1      -2.462  -2.703  -0.589  0.00  0.00    -0.017 A 
ATOM      3  C   UNL     1      -3.660  -2.084  -0.285  0.00  0.00    +0.007 A 
ATOM      4  C   UNL     1      -4.841  -2.559  -0.825  0.00  0.00    +0.022 A 
ATOM      5  C   UNL     1      -4.823  -3.653  -1.671  0.00  0.00    +0.059 A 
ATOM      6  C   UNL     1      -3.623  -4.273  -1.976  0.00  0.00    +0.060 A 
ATOM      7  C   UNL     1      -2.442  -3.793  -1.438  0.00  0.00    +0.027 A 
ATOM      8 CL   UNL     1      -3.600  -5.646  -3.037  0.00  0.00    -0.082 Cl
ATOM      9 CL   UNL     1      -6.306  -4.250  -2.350  0.00  0.00    -0.082 Cl
ENDBRANCH   1   2
BRANCH   1  10
ATOM     10  C   UNL     1      -1.031  -2.693   1.413  0.00  0.00    +0.235 C 
ATOM     11  O   UNL     1      -0.953  -1.909   2.335  0.00  0.00    -0.274 OA
ATOM     12  N   UNL     1      -0.987  -4.019   1.651  0.00  0.00    -0.328 N 
ATOM     13  H   UNL     1      -1.050  -4.646   0.914  0.00  0.00    +0.145 HD
ATOM     14  H   UNL     1      -0.894  -4.346   2.560  0.00  0.00    +0.145 HD
ENDBRANCH   1  10
BRANCH   1  15
ATOM     15  N   UNL     1      -1.198  -0.720   0.010  0.00  0.00    -0.329 N 
ATOM     16  H   UNL     1      -2.045  -0.248   0.021  0.00  0.00    +0.147 HD
BRANCH  15  22
ATOM     17  C   UNL     1      -0.017   1.385   0.010  0.00  0.00    +0.024 A 
ATOM     18  C   UNL     1       1.171   2.090   0.002  0.00  0.00    +0.017 A 
ATOM     19  C   UNL     1       2.378   1.415  -0.013  0.00  0.00    +0.018 A 
ATOM     20  C   UNL     1       2.400   0.031  -0.021  0.00  0.00    +0.017 A 
ATOM     21  C   UNL     1       1.216  -0.679  -0.014  0.00  0.00    +0.024 A 
ATOM     22  C   UNL     1       0.002  -0.004   0.002  0.00  0.00    +0.028 A 
ATOM     23 BR   UNL     1       4.002   2.384  -0.025  0.00  0.00    -0.050 Br
ENDBRANCH  15  22
ENDBRANCH   1  15
TORSDOF 4
