REMARK  Name = ZINC39668750
REMARK  8 active torsions:
REMARK  status: ('A' for Active; 'I' for Inactive)
REMARK    1  A    between atoms: C_1  and  C_2
REMARK    2  A    between atoms: C_2  and  C_4
REMARK    3  A    between atoms: C_2  and  O_33
REMARK    4  A    between atoms: C_4  and  N_5
REMARK    5  A    between atoms: C_6  and  C_8
REMARK    6  A    between atoms: C_19  and  C_21
REMARK    7  A    between atoms: C_24  and  C_26
REMARK    8  A    between atoms: O_33  and  C_34
REMARK                            x       y       z     vdW  Elec       q    Type
REMARK                         _______ _______ _______ _____ _____    ______ ____
ROOT
ATOM      1  C   UNL     1       1.459  -4.350   2.582  0.00  0.00    +0.100 C 
ATOM      2  C   UNL     1       2.423  -4.953   1.536  0.00  0.00    +0.121 C 
ATOM      3  N   UNL     1       3.705  -5.119   2.260  0.00  0.00    -0.294 N 
ATOM      4  C   UNL     1       3.308  -5.582   3.611  0.00  0.00    +0.115 C 
ATOM      5  C   UNL     1       2.041  -4.768   3.942  0.00  0.00    -0.004 C 
ATOM      6  C   UNL     1       1.041  -5.635   4.702  0.00  0.00    -0.010 C 
ATOM      7  C   UNL     1       1.618  -5.989   6.075  0.00  0.00    -0.082 C 
ATOM      8  N   UNL     1       1.897  -4.758   6.824  0.00  0.00    +0.379 N 
ATOM      9  C   UNL     1       2.928  -3.974   6.133  0.00  0.00    -0.082 C 
ATOM     10  C   UNL     1       2.406  -3.535   4.762  0.00  0.00    -0.010 C 
ATOM     11  C   UNL     1       4.951  -4.899   1.795  0.00  0.00    +0.282 C 
ATOM     12  O   UNL     1       5.912  -5.082   2.519  0.00  0.00    -0.267 OA
ATOM     13  H   UNL     1       1.052  -4.210   6.894  0.00  0.00    -0.086 HD
ATOM     14  H   UNL     1       2.219  -4.994   7.750  0.00  0.00    -0.086 HD
ENDROOT
BRANCH  11  15
ATOM     15  C   UNL     1       5.149  -4.439   0.418  0.00  0.00    +0.190 A 
ATOM     16  C   UNL     1       6.362  -4.182  -0.183  0.00  0.00    +0.055 A 
ATOM     17  C   UNL     1       6.085  -3.768  -1.490  0.00  0.00    +0.051 A 
ATOM     18  C   UNL     1       4.727  -3.788  -1.638  0.00  0.00    +0.139 A 
ATOM     19  O   UNL     1       4.174  -4.198  -0.484  0.00  0.00    -0.450 OA
BRANCH  18  20
ATOM     20  C   UNL     1       3.990  -3.423  -2.864  0.00  0.00    +0.052 A 
ATOM     21  C   UNL     1       4.272  -2.224  -3.522  0.00  0.00    +0.014 A 
ATOM     22  C   UNL     1       3.580  -1.890  -4.667  0.00  0.00    +0.001 A 
ATOM     23  C   UNL     1       2.607  -2.739  -5.166  0.00  0.00    +0.003 A 
ATOM     24  C   UNL     1       2.321  -3.929  -4.521  0.00  0.00    +0.039 A 
ATOM     25  C   UNL     1       3.011  -4.280  -3.376  0.00  0.00    +0.134 A 
ATOM     26  F   UNL     1       2.735  -5.445  -2.750  0.00  0.00    -0.205 F 
ENDBRANCH  18  20
ENDBRANCH  11  15
BRANCH   1  28
ATOM     27  N   UNL     1       0.304  -2.171   2.770  0.00  0.00    -0.312 N 
ATOM     28  C   UNL     1       1.428  -2.848   2.463  0.00  0.00    +0.218 C 
ATOM     29  O   UNL     1       2.415  -2.249   2.092  0.00  0.00    -0.275 OA
ATOM     30  H   UNL     1      -0.485  -2.651   3.067  0.00  0.00    +0.149 HD
BRANCH  27  31
ATOM     31  C   UNL     1       0.274  -0.711   2.655  0.00  0.00    +0.148 C 
BRANCH  31  33
ATOM     32  C   UNL     1      -1.180   1.314   2.821  0.00  0.00    +0.053 C 
ATOM     33  C   UNL     1      -1.109  -0.196   3.059  0.00  0.00    +0.187 C 
BRANCH  33  34
ATOM     34  O   UNL     1      -1.333  -0.470   4.443  0.00  0.00    -0.486 OA
BRANCH  34  35
ATOM     35  C   UNL     1      -2.626  -0.564   4.852  0.00  0.00    +0.139 A 
ATOM     36  C   UNL     1      -3.667  -0.292   3.969  0.00  0.00    +0.049 A 
ATOM     37  C   UNL     1      -4.968  -0.400   4.432  0.00  0.00    +0.023 A 
ATOM     38  C   UNL     1      -5.188  -0.772   5.745  0.00  0.00    +0.111 A 
ATOM     39  N   UNL     1      -4.180  -1.023   6.556  0.00  0.00    -0.260 NA
ATOM     40  C   UNL     1      -2.927  -0.936   6.154  0.00  0.00    +0.156 A 
ENDBRANCH  34  35
ENDBRANCH  33  34
ENDBRANCH  31  33
ENDBRANCH  27  31
ENDBRANCH   1  28
TORSDOF 7
