REMARK  Name = ZINC17115064
REMARK  9 active torsions:
REMARK  status: ('A' for Active; 'I' for Inactive)
REMARK    1  A    between atoms: C_1  and  C_2
REMARK    2  A    between atoms: C_2  and  C_3
REMARK    3  A    between atoms: C_3  and  C_4
REMARK    4  A    between atoms: C_4  and  C_5
REMARK    5  A    between atoms: C_8  and  N_11
REMARK    6  A    between atoms: N_11  and  S_12
REMARK    7  A    between atoms: S_12  and  C_15
REMARK    8  A    between atoms: C_19  and  C_21
REMARK    9  A    between atoms: N_23  and  N_24
REMARK                            x       y       z     vdW  Elec       q    Type
REMARK                         _______ _______ _______ _____ _____    ______ ____
ROOT
ATOM      1  C   UNL     1      -2.693  -0.406   0.388  0.00  0.00    +0.109 A 
ATOM      2  C   UNL     1      -3.331   0.761   0.769  0.00  0.00    +0.029 A 
ATOM      3  C   UNL     1      -4.596   1.052   0.291  0.00  0.00    +0.003 A 
ATOM      4  C   UNL     1      -5.233   0.175  -0.562  0.00  0.00    +0.013 A 
ATOM      5  C   UNL     1      -4.597  -1.006  -0.947  0.00  0.00    +0.040 A 
ATOM      6  C   UNL     1      -3.319  -1.292  -0.464  0.00  0.00    +0.042 A 
ENDROOT
BRANCH   5   7
ATOM      7  C   UNL     1      -5.274  -1.951  -1.860  0.00  0.00    +0.261 C 
ATOM      8  O   UNL     1      -4.718  -2.979  -2.193  0.00  0.00    -0.269 OA
ATOM      9  N   UNL     1      -6.509  -1.672  -2.324  0.00  0.00    -0.220 N 
ATOM     10  H   UNL     1      -6.953  -0.852  -2.059  0.00  0.00    +0.174 HD
BRANCH   9  11
ATOM     11  N   UNL     1      -7.150  -2.567  -3.190  0.00  0.00    -0.137 N 
ATOM     12  C   UNL     1      -8.160  -3.384  -2.824  0.00  0.00    +0.263 C 
ATOM     13  O   UNL     1      -8.665  -3.480  -1.726  0.00  0.00    -0.271 OA
ATOM     14  C   UNL     1      -8.528  -4.155  -4.071  0.00  0.00    +0.114 C 
ATOM     15  C   UNL     1      -9.973  -3.869  -4.465  0.00  0.00    +0.035 C 
ATOM     16  C   UNL     1     -10.318  -4.636  -5.744  0.00  0.00    +0.003 C 
ATOM     17  C   UNL     1     -10.123  -6.135  -5.507  0.00  0.00    +0.000 C 
ATOM     18  C   UNL     1      -8.663  -6.408  -5.138  0.00  0.00    +0.003 C 
ATOM     19  C   UNL     1      -8.312  -5.649  -3.856  0.00  0.00    +0.035 C 
ATOM     20  N   UNL     1      -7.605  -3.643  -5.092  0.00  0.00    -0.284 N 
ATOM     21  C   UNL     1      -6.842  -2.714  -4.484  0.00  0.00    +0.326 C 
ATOM     22  O   UNL     1      -5.969  -2.083  -5.047  0.00  0.00    -0.251 OA
ATOM     23  H   UNL     1      -7.557  -3.916  -6.021  0.00  0.00    +0.151 HD
ENDBRANCH   9  11
ENDBRANCH   5   7
BRANCH   1  24
ATOM     24  S   UNL     1      -1.079  -0.765   0.999  0.00  0.00    +0.072 S 
ATOM     25  O   UNL     1      -0.879  -2.161   0.820  0.00  0.00    -0.150 OA
ATOM     26  O   UNL     1      -0.977  -0.138   2.269  0.00  0.00    -0.150 OA
BRANCH  24  27
ATOM     27  N   UNL     1       0.002  -0.001   0.004  0.00  0.00    -0.216 N 
ATOM     28  H   UNL     1       0.591   0.682   0.362  0.00  0.00    +0.174 HD
BRANCH  27  32
ATOM     29  C   UNL     1       0.195  -1.010  -4.031  0.00  0.00    -0.047 A 
ATOM     30  C   UNL     1       0.174   0.320  -3.652  0.00  0.00    +0.005 A 
ATOM     31  C   UNL     1       0.110   0.658  -2.315  0.00  0.00    +0.025 A 
ATOM     32  C   UNL     1       0.066  -0.339  -1.349  0.00  0.00    +0.048 A 
ATOM     33  C   UNL     1       0.093  -1.674  -1.732  0.00  0.00    +0.025 A 
ATOM     34  C   UNL     1       0.152  -2.006  -3.072  0.00  0.00    +0.005 A 
BRANCH  29  35
ATOM     35  C   UNL     1       0.265  -1.375  -5.491  0.00  0.00    +0.035 C 
BRANCH  35  36
ATOM     36  C   UNL     1       1.730  -1.495  -5.917  0.00  0.00    +0.004 C 
BRANCH  36  38
ATOM     37  C   UNL     1       3.265  -1.986  -7.826  0.00  0.00    +0.004 C 
ATOM     38  C   UNL     1       1.801  -1.866  -7.400  0.00  0.00    -0.003 C 
ENDBRANCH  36  38
ENDBRANCH  35  36
ENDBRANCH  29  35
ENDBRANCH  27  32
ENDBRANCH  24  27
ENDBRANCH   1  24
TORSDOF 8
