REMARK  Name = ZINC33699297
REMARK  7 active torsions:
REMARK  status: ('A' for Active; 'I' for Inactive)
REMARK    1  A    between atoms: C_4  and  C_7
REMARK    2  A    between atoms: C_10  and  C_13
REMARK    3  A    between atoms: N_15  and  C_28
REMARK    4  A    between atoms: C_16  and  C_19
REMARK    5  A    between atoms: C_22  and  N_25
REMARK    6  A    between atoms: C_31  and  S_34
REMARK    7  A    between atoms: S_34  and  N_37
REMARK                            x       y       z     vdW  Elec       q    Type
REMARK                         _______ _______ _______ _____ _____    ______ ____
ROOT
ATOM      1  C   UNL     1       4.581   4.201  -0.019  0.00  0.00    +0.069 C 
ATOM      2  N   UNL     1       3.629   3.332  -0.014  0.00  0.00    -0.183 NA
ATOM      3  N   UNL     1       2.351   3.888   0.001  0.00  0.00    -0.216 N 
ATOM      4  C   UNL     1       2.471   5.354   0.001  0.00  0.00    +0.134 C 
ATOM      5  C   UNL     1       3.994   5.594  -0.006  0.00  0.00    +0.087 C 
ENDROOT
BRANCH   1   9
ATOM      6  C   UNL     1       8.729   3.290  -0.063  0.00  0.00    -0.018 A 
ATOM      7  C   UNL     1       7.789   2.259  -0.059  0.00  0.00    +0.009 A 
ATOM      8  C   UNL     1       6.444   2.552  -0.045  0.00  0.00    +0.010 A 
ATOM      9  C   UNL     1       6.020   3.885  -0.034  0.00  0.00    -0.002 A 
ATOM     10  C   UNL     1       6.963   4.917  -0.044  0.00  0.00    +0.010 A 
ATOM     11  C   UNL     1       8.307   4.620  -0.053  0.00  0.00    +0.009 A 
BRANCH   6  15
ATOM     12  C   UNL     1      12.881   2.379  -0.105  0.00  0.00    +0.000 A 
ATOM     13  C   UNL     1      12.465   3.699  -0.095  0.00  0.00    +0.001 A 
ATOM     14  C   UNL     1      11.119   4.000  -0.081  0.00  0.00    +0.008 A 
ATOM     15  C   UNL     1      10.177   2.973  -0.078  0.00  0.00    -0.018 A 
ATOM     16  C   UNL     1      10.602   1.645  -0.083  0.00  0.00    +0.008 A 
ATOM     17  C   UNL     1      11.951   1.355  -0.102  0.00  0.00    +0.001 A 
ENDBRANCH   6  15
ENDBRANCH   1   9
BRANCH   4  18
ATOM     18  C   UNL     1       1.851   5.937   1.245  0.00  0.00    -0.025 A 
ATOM     19  C   UNL     1       1.992   5.286   2.457  0.00  0.00    +0.008 A 
ATOM     20  C   UNL     1       1.426   5.822   3.599  0.00  0.00    +0.033 A 
ATOM     21  C   UNL     1       0.713   7.004   3.527  0.00  0.00    +0.126 A 
ATOM     22  C   UNL     1       0.569   7.652   2.315  0.00  0.00    +0.033 A 
ATOM     23  C   UNL     1       1.137   7.118   1.174  0.00  0.00    +0.008 A 
BRANCH  21  24
ATOM     24  N   UNL     1       0.104   7.576   4.749  0.00  0.00    +0.056 N 
ATOM     25  O   UNL     1      -0.525   8.617   4.686  0.00  0.00    -0.126 OA
ATOM     26  O   UNL     1       0.232   7.005   5.818  0.00  0.00    -0.126 OA
ENDBRANCH  21  24
ENDBRANCH   4  18
BRANCH   3  27
ATOM     27  C   UNL     1       1.154   3.171   0.008  0.00  0.00    +0.052 A 
ATOM     28  C   UNL     1       1.174   1.782   0.000  0.00  0.00    +0.027 A 
ATOM     29  C   UNL     1      -0.013   1.076   0.008  0.00  0.00    +0.030 A 
ATOM     30  C   UNL     1      -1.220   1.750   0.017  0.00  0.00    +0.105 A 
ATOM     31  C   UNL     1      -1.244   3.133   0.030  0.00  0.00    +0.030 A 
ATOM     32  C   UNL     1      -0.061   3.845   0.022  0.00  0.00    +0.027 A 
BRANCH  30  33
ATOM     33  S   UNL     1      -2.732   0.845   0.020  0.00  0.00    +0.056 S 
ATOM     34  O   UNL     1      -3.723   1.708  -0.521  0.00  0.00    -0.153 OA
ATOM     35  O   UNL     1      -2.444  -0.429  -0.539  0.00  0.00    -0.153 OA
BRANCH  33  36
ATOM     36  N   UNL     1      -3.144   0.586   1.603  0.00  0.00    -0.204 NA
ATOM     37  H   UNL     1      -4.087   0.021   1.648  0.00  0.00    +0.144 HD
ATOM     38  H   UNL     1      -3.271   1.552   2.112  0.00  0.00    +0.144 HD
ENDBRANCH  33  36
ENDBRANCH  30  33
ENDBRANCH   3  27
TORSDOF 7
