REMARK  Name = ZINC38604759
REMARK  13 active torsions:
REMARK  status: ('A' for Active; 'I' for Inactive)
REMARK    1  A    between atoms: C_1  and  C_2
REMARK    2  A    between atoms: C_2  and  C_3
REMARK    3  A    between atoms: C_3  and  C_5
REMARK    4  A    between atoms: C_3  and  N_6
REMARK    5  A    between atoms: C_10  and  C_11
REMARK    6  A    between atoms: N_13  and  C_27
REMARK    7  A    between atoms: C_15  and  C_16
REMARK    8  A    between atoms: C_19  and  O_23
REMARK    9  A    between atoms: C_20  and  C_22
REMARK   10  A    between atoms: O_23  and  C_24
REMARK   11  A    between atoms: C_24  and  C_25
REMARK   12  A    between atoms: C_33  and  C_39
REMARK   13  A    between atoms: C_34  and  C_37
REMARK                            x       y       z     vdW  Elec       q    Type
REMARK                         _______ _______ _______ _____ _____    ______ ____
ROOT
ATOM      1  C   UNL     1       0.713   2.017  -6.541  0.00  0.00    +0.021 A 
ATOM      2  C   UNL     1      -0.384   1.282  -6.979  0.00  0.00    +0.123 A 
ATOM      3  N   UNL     1      -0.586   1.580  -8.271  0.00  0.00    -0.239 N 
ATOM      4  N   UNL     1       0.368   2.507  -8.699  0.00  0.00    -0.166 NA
ATOM      5  C   UNL     1       1.165   2.805  -7.699  0.00  0.00    +0.100 A 
ENDROOT
BRANCH   1  10
ATOM      6  N   UNL     1       0.054   1.475  -1.790  0.00  0.00    -0.231 N 
ATOM      7  C   UNL     1       0.854   1.421  -2.870  0.00  0.00    +0.254 C 
ATOM      8  O   UNL     1       1.919   0.835  -2.806  0.00  0.00    -0.270 OA
ATOM      9  C   UNL     1       0.449   2.066  -4.127  0.00  0.00    +0.042 C 
ATOM     10  C   UNL     1       1.276   2.011  -5.247  0.00  0.00    +0.025 C 
ATOM     11  C   UNL     1      -0.790   2.743  -4.186  0.00  0.00    -0.016 C 
ATOM     12  C   UNL     1      -1.587   2.775  -3.051  0.00  0.00    +0.117 C 
ATOM     13  C   UNL     1      -1.131   2.109  -1.828  0.00  0.00    +0.264 C 
ATOM     14  O   UNL     1      -1.832   2.134  -0.834  0.00  0.00    -0.269 OA
ATOM     15  C   UNL     1      -1.238   3.416  -5.457  0.00  0.00    +0.046 C 
BRANCH   6  16
ATOM     16  C   UNL     1       0.479   0.824  -0.548  0.00  0.00    +0.081 C 
ATOM     17  C   UNL     1      -0.539  -0.251  -0.161  0.00  0.00    +0.028 C 
BRANCH  16  19
ATOM     18  C   UNL     1       1.676   2.871   0.239  0.00  0.00    +0.006 C 
ATOM     19  C   UNL     1       0.571   1.866   0.568  0.00  0.00    +0.019 C 
ENDBRANCH  16  19
ENDBRANCH   6  16
BRANCH  12  20
ATOM     20  C   UNL     1      -2.849   3.451  -3.075  0.00  0.00    +0.105 C 
ATOM     21  N   UNL     1      -3.850   3.988  -3.095  0.00  0.00    -0.191 NA
ENDBRANCH  12  20
ENDBRANCH   1  10
BRANCH   5  22
ATOM     22  C   UNL     1       2.304   3.752  -7.731  0.00  0.00    +0.003 A 
ATOM     23  C   UNL     1       2.607   4.518  -6.606  0.00  0.00    +0.014 A 
ATOM     24  C   UNL     1       3.668   5.398  -6.639  0.00  0.00    +0.046 A 
ATOM     25  C   UNL     1       4.434   5.522  -7.791  0.00  0.00    +0.124 A 
ATOM     26  C   UNL     1       4.134   4.761  -8.912  0.00  0.00    -0.008 A 
ATOM     27  C   UNL     1       3.079   3.874  -8.884  0.00  0.00    +0.017 A 
ATOM     28  C   UNL     1       4.968   4.899 -10.160  0.00  0.00    +0.047 C 
BRANCH  25  29
ATOM     29  O   UNL     1       5.478   6.390  -7.820  0.00  0.00    -0.488 OA
BRANCH  29  30
ATOM     30  C   UNL     1       5.730   7.142  -6.631  0.00  0.00    +0.256 C 
BRANCH  30  31
ATOM     31  C   UNL     1       6.917   8.045  -6.850  0.00  0.00    +0.006 C 
ATOM     32  C   UNL     1       6.871   9.294  -6.459  0.00  0.00    +0.007 C 
ENDBRANCH  30  31
ENDBRANCH  29  30
ENDBRANCH  25  29
ENDBRANCH   5  22
BRANCH   3  33
ATOM     33  C   UNL     1      -1.600   1.042  -9.072  0.00  0.00    +0.065 A 
ATOM     34  C   UNL     1      -2.499   0.128  -8.536  0.00  0.00    +0.028 A 
ATOM     35  C   UNL     1      -3.499  -0.401  -9.329  0.00  0.00    +0.002 A 
ATOM     36  C   UNL     1      -3.606  -0.021 -10.654  0.00  0.00    +0.000 A 
ATOM     37  C   UNL     1      -2.713   0.888 -11.191  0.00  0.00    +0.002 A 
ATOM     38  C   UNL     1      -1.714   1.424 -10.402  0.00  0.00    +0.028 A 
ENDBRANCH   3  33
TORSDOF 9
