REMARK  Name = ZINC40735693
REMARK  7 active torsions:
REMARK  status: ('A' for Active; 'I' for Inactive)
REMARK    1  A    between atoms: C_9  and  O_23
REMARK    2  A    between atoms: C_10  and  C_11
REMARK    3  A    between atoms: C_11  and  N_12
REMARK    4  A    between atoms: N_12  and  C_13
REMARK    5  A    between atoms: C_13  and  C_14
REMARK    6  A    between atoms: O_23  and  C_24
REMARK    7  A    between atoms: C_24  and  C_25
REMARK                            x       y       z     vdW  Elec       q    Type
REMARK                         _______ _______ _______ _____ _____    ______ ____
ROOT
ATOM      1  C   UNL     1      -0.016   1.357   0.009  0.00  0.00    +0.001 A 
ATOM      2  C   UNL     1       1.168   2.091   0.002  0.00  0.00    +0.001 A 
ATOM      3  C   UNL     1       2.378   1.468  -0.013  0.00  0.00    +0.009 A 
ATOM      4  C   UNL     1       2.438   0.064  -0.021  0.00  0.00    -0.013 A 
ATOM      5  C   UNL     1       1.232  -0.683  -0.013  0.00  0.00    -0.017 A 
ATOM      6  C   UNL     1       0.002  -0.004   0.002  0.00  0.00    +0.008 A 
ATOM      7  C   UNL     1       1.290  -2.087  -0.021  0.00  0.00    +0.012 A 
ATOM      8  C   UNL     1       2.497  -2.713  -0.036  0.00  0.00    +0.046 A 
ATOM      9  C   UNL     1       3.687  -1.979  -0.043  0.00  0.00    +0.123 A 
ATOM     10  C   UNL     1       3.668  -0.613  -0.037  0.00  0.00    -0.015 A 
ENDROOT
BRANCH  10  11
ATOM     11  C   UNL     1       4.960   0.163  -0.046  0.00  0.00    -0.042 C 
BRANCH  11  12
ATOM     12  N   UNL     1       5.393   0.408   1.336  0.00  0.00    +0.384 N 
ATOM     13  H   UNL     1       4.685   0.939   1.821  0.00  0.00    -0.085 HD
ATOM     14  H   UNL     1       5.534  -0.473   1.806  0.00  0.00    -0.085 HD
BRANCH  12  15
ATOM     15  C   UNL     1       6.652   1.165   1.327  0.00  0.00    -0.046 C 
BRANCH  15  16
ATOM     16  C   UNL     1       7.097   1.417   2.745  0.00  0.00    -0.061 A 
ATOM     17  C   UNL     1       6.679   2.556   3.406  0.00  0.00    +0.005 A 
ATOM     18  C   UNL     1       7.084   2.792   4.707  0.00  0.00    +0.050 A 
ATOM     19  C   UNL     1       7.911   1.885   5.351  0.00  0.00    +0.166 A 
ATOM     20  C   UNL     1       8.332   0.737   4.684  0.00  0.00    +0.166 A 
ATOM     21  C   UNL     1       7.917   0.505   3.383  0.00  0.00    +0.051 A 
ATOM     22  O   UNL     1       9.129   0.014   5.523  0.00  0.00    -0.453 OA
ATOM     23  C   UNL     1       9.523   0.928   6.563  0.00  0.00    +0.466 C 
ATOM     24  O   UNL     1       8.444   1.881   6.607  0.00  0.00    -0.453 OA
ENDBRANCH  15  16
ENDBRANCH  12  15
ENDBRANCH  11  12
ENDBRANCH  10  11
BRANCH   9  25
ATOM     25  O   UNL     1       4.878  -2.633  -0.057  0.00  0.00    -0.487 OA
BRANCH  25  26
ATOM     26  C   UNL     1       4.834  -4.061  -0.064  0.00  0.00    +0.268 C 
BRANCH  26  27
ATOM     27  C   UNL     1       6.239  -4.607  -0.079  0.00  0.00    +0.043 A 
ATOM     28  C   UNL     1       6.875  -4.847  -1.285  0.00  0.00    +0.131 A 
ATOM     29  C   UNL     1       8.166  -5.348  -1.298  0.00  0.00    +0.039 A 
ATOM     30  C   UNL     1       8.818  -5.609  -0.107  0.00  0.00    +0.004 A 
ATOM     31  C   UNL     1       8.182  -5.370   1.097  0.00  0.00    +0.020 A 
ATOM     32  C   UNL     1       6.894  -4.863   1.111  0.00  0.00    +0.050 A 
ATOM     33 CL   UNL     1       6.100  -4.556   2.624  0.00  0.00    -0.083 Cl
ATOM     34  F   UNL     1       6.238  -4.592  -2.448  0.00  0.00    -0.205 F 
ENDBRANCH  26  27
ENDBRANCH  25  26
ENDBRANCH   9  25
TORSDOF 7
