REMARK  Name = ZINC40095448
REMARK  13 active torsions:
REMARK  status: ('A' for Active; 'I' for Inactive)
REMARK    1  A    between atoms: C_1  and  C_2
REMARK    2  A    between atoms: C_2  and  C_3
REMARK    3  A    between atoms: C_3  and  C_4
REMARK    4  A    between atoms: C_4  and  C_5
REMARK    5  A    between atoms: C_5  and  O_6
REMARK    6  A    between atoms: O_6  and  C_7
REMARK    7  A    between atoms: C_10  and  C_13
REMARK    8  A    between atoms: C_15  and  C_24
REMARK    9  A    between atoms: N_19  and  C_20
REMARK   10  A    between atoms: C_20  and  C_21
REMARK   11  A    between atoms: C_21  and  O_22
REMARK   12  A    between atoms: C_24  and  C_26
REMARK   13  A    between atoms: C_33  and  C_36
REMARK                            x       y       z     vdW  Elec       q    Type
REMARK                         _______ _______ _______ _____ _____    ______ ____
ROOT
ATOM      1  C   UNL     1      -7.776  -6.631   0.045  0.00  0.00    +0.145 C 
ATOM      2  C   UNL     1      -8.058  -7.255   1.392  0.00  0.00    +0.076 C 
ATOM      3  C   UNL     1      -8.197  -8.585   1.185  0.00  0.00    +0.249 C 
ATOM      4  C   UNL     1      -8.019  -8.874  -0.253  0.00  0.00    +0.288 C 
ATOM      5  O   UNL     1      -8.085  -9.978  -0.756  0.00  0.00    -0.266 OA
ATOM      6  N   UNL     1      -7.773  -7.733  -0.925  0.00  0.00    -0.281 N 
ATOM      7  O   UNL     1      -8.458  -9.504   2.143  0.00  0.00    -0.282 OA
ENDROOT
BRANCH   1  11
ATOM      8  C   UNL     1      -3.965  -4.699   0.089  0.00  0.00    +0.121 A 
ATOM      9  C   UNL     1      -5.125  -3.945  -0.011  0.00  0.00    +0.046 A 
ATOM     10  C   UNL     1      -6.356  -4.572  -0.026  0.00  0.00    +0.009 A 
ATOM     11  C   UNL     1      -6.432  -5.950   0.060  0.00  0.00    -0.022 A 
ATOM     12  C   UNL     1      -5.277  -6.704   0.161  0.00  0.00    +0.009 A 
ATOM     13  C   UNL     1      -4.044  -6.082   0.169  0.00  0.00    +0.046 A 
BRANCH   8  14
ATOM     14  O   UNL     1      -2.753  -4.085   0.103  0.00  0.00    -0.492 OA
BRANCH  14  15
ATOM     15  C   UNL     1      -2.747  -2.659   0.017  0.00  0.00    +0.229 C 
BRANCH  15  16
ATOM     16  C   UNL     1      -1.304  -2.151   0.047  0.00  0.00    +0.041 C 
BRANCH  16  17
ATOM     17  C   UNL     1      -1.298  -0.624  -0.045  0.00  0.00    +0.003 C 
BRANCH  17  19
ATOM     18  C   UNL     1       0.150   1.411  -0.107  0.00  0.00    +0.004 C 
ATOM     19  C   UNL     1       0.145  -0.117  -0.015  0.00  0.00    -0.003 C 
ENDBRANCH  17  19
ENDBRANCH  16  17
ENDBRANCH  15  16
ENDBRANCH  14  15
ENDBRANCH   8  14
ENDBRANCH   1  11
BRANCH   2  20
ATOM     20  C   UNL     1      -8.161  -6.554   2.676  0.00  0.00    +0.195 C 
ATOM     21  O   UNL     1      -7.337  -6.757   3.548  0.00  0.00    -0.287 OA
BRANCH  20  22
ATOM     22  C   UNL     1      -9.264  -5.601   2.910  0.00  0.00    +0.023 A 
ATOM     23  C   UNL     1     -10.281  -5.453   1.962  0.00  0.00    +0.015 A 
ATOM     24  C   UNL     1     -11.310  -4.569   2.184  0.00  0.00    +0.046 A 
ATOM     25  C   UNL     1     -11.350  -3.811   3.356  0.00  0.00    +0.124 A 
ATOM     26  C   UNL     1     -10.331  -3.957   4.293  0.00  0.00    -0.002 A 
ATOM     27  C   UNL     1      -9.304  -4.844   4.086  0.00  0.00    +0.019 A 
ATOM     28  C   UNL     1     -10.633  -2.999   5.429  0.00  0.00    +0.083 C 
ATOM     29  C   UNL     1     -11.693  -2.070   4.791  0.00  0.00    +0.175 C 
ATOM     30  O   UNL     1     -12.272  -2.901   3.771  0.00  0.00    -0.488 OA
ATOM     31  C   UNL     1     -12.745  -1.659   5.823  0.00  0.00    +0.052 C 
ENDBRANCH  20  22
ENDBRANCH   2  20
BRANCH   6  32
ATOM     32  C   UNL     1      -7.542  -7.612  -2.366  0.00  0.00    +0.137 C 
BRANCH  32  33
ATOM     33  C   UNL     1      -6.046  -7.751  -2.657  0.00  0.00    +0.175 C 
BRANCH  33  34
ATOM     34  O   UNL     1      -5.615  -9.070  -2.314  0.00  0.00    -0.393 OA
ATOM     35  H   UNL     1      -4.675  -9.230  -2.473  0.00  0.00    +0.209 HD
ENDBRANCH  33  34
ENDBRANCH  32  33
ENDBRANCH   6  32
TORSDOF 11
