REMARK  Name = ZINC39655468
REMARK  9 active torsions:
REMARK  status: ('A' for Active; 'I' for Inactive)
REMARK    1  A    between atoms: C_1  and  C_2
REMARK    2  A    between atoms: C_2  and  C_3
REMARK    3  A    between atoms: C_2  and  C_4
REMARK    4  A    between atoms: C_4  and  C_6
REMARK    5  A    between atoms: C_4  and  N_26
REMARK    6  A    between atoms: C_6  and  O_8
REMARK    7  A    between atoms: O_8  and  C_9
REMARK    8  A    between atoms: C_9  and  C_10
REMARK    9  A    between atoms: N_15  and  C_16
REMARK                            x       y       z     vdW  Elec       q    Type
REMARK                         _______ _______ _______ _____ _____    ______ ____
ROOT
ATOM      1  C   UNL     1      -2.314  -0.828  -3.688  0.00  0.00    +0.328 C 
ENDROOT
BRANCH   1   2
ATOM      2  C   UNL     1      -1.523  -1.383  -4.845  0.00  0.00    +0.258 C 
ATOM      3  O   UNL     1      -0.422  -1.854  -4.656  0.00  0.00    -0.272 OA
ATOM      4  N   UNL     1      -2.040  -1.356  -6.089  0.00  0.00    -0.237 N 
ATOM      5  C   UNL     1      -1.333  -1.853  -7.124  0.00  0.00    +0.306 C 
ATOM      6  O   UNL     1      -0.229  -2.324  -6.934  0.00  0.00    -0.252 OA
ATOM      7  N   UNL     1      -1.850  -1.826  -8.368  0.00  0.00    -0.294 N 
ATOM      8  H   UNL     1      -2.921  -0.980  -6.240  0.00  0.00    +0.159 HD
ATOM      9  H   UNL     1      -2.731  -1.449  -8.519  0.00  0.00    +0.151 HD
BRANCH   7  10
ATOM     10  C   UNL     1      -1.081  -2.365  -9.493  0.00  0.00    +0.037 C 
ATOM     11  C   UNL     1       0.237  -1.599  -9.623  0.00  0.00    +0.029 C 
ATOM     12  C   UNL     1       1.040  -2.163 -10.798  0.00  0.00    -0.008 C 
ATOM     13  C   UNL     1       0.232  -2.010 -12.088  0.00  0.00    +0.007 C 
ATOM     14  C   UNL     1      -1.087  -2.776 -11.957  0.00  0.00    -0.008 C 
ATOM     15  C   UNL     1      -1.889  -2.213 -10.783  0.00  0.00    +0.029 C 
ATOM     16  C   UNL     1      -0.793  -4.258 -11.710  0.00  0.00    +0.007 C 
ATOM     17  C   UNL     1       0.015  -4.410 -10.420  0.00  0.00    -0.008 C 
ATOM     18  C   UNL     1       1.333  -3.644 -10.551  0.00  0.00    +0.007 C 
ATOM     19  C   UNL     1      -0.788  -3.846  -9.246  0.00  0.00    +0.029 C 
ENDBRANCH   7  10
ENDBRANCH   1   2
BRANCH   1  20
ATOM     20  O   UNL     1      -1.559  -0.970  -2.483  0.00  0.00    -0.454 OA
BRANCH  20  21
ATOM     21  C   UNL     1      -2.126  -0.522  -1.353  0.00  0.00    +0.329 C 
ATOM     22  O   UNL     1      -3.227  -0.025  -1.385  0.00  0.00    -0.249 OA
BRANCH  21  23
ATOM     23  C   UNL     1      -1.390  -0.638  -0.043  0.00  0.00    +0.196 C 
BRANCH  23  24
ATOM     24  N   UNL     1      -2.215  -0.081   1.032  0.00  0.00    -0.220 N 
ATOM     25  C   UNL     1      -2.685  -0.789   2.075  0.00  0.00    +0.255 C 
ATOM     26  O   UNL     1      -2.497  -1.972   2.271  0.00  0.00    -0.270 OA
ATOM     27  C   UNL     1      -3.470   0.115   2.942  0.00  0.00    +0.049 A 
ATOM     28  C   UNL     1      -4.173  -0.047   4.125  0.00  0.00    +0.014 A 
ATOM     29  C   UNL     1      -4.818   1.038   4.696  0.00  0.00    +0.001 A 
ATOM     30  C   UNL     1      -4.765   2.281   4.093  0.00  0.00    +0.001 A 
ATOM     31  C   UNL     1      -4.066   2.459   2.909  0.00  0.00    +0.014 A 
ATOM     32  C   UNL     1      -3.416   1.382   2.327  0.00  0.00    +0.049 A 
ATOM     33  C   UNL     1      -2.596   1.207   1.110  0.00  0.00    +0.255 C 
ATOM     34  O   UNL     1      -2.316   2.078   0.312  0.00  0.00    -0.270 OA
ENDBRANCH  23  24
BRANCH  23  36
ATOM     35  C   UNL     1       0.608   0.137   1.242  0.00  0.00    +0.009 C 
ATOM     36  C   UNL     1      -0.073   0.136  -0.128  0.00  0.00    +0.015 C 
ATOM     37  C   UNL     1       0.846  -0.532  -1.153  0.00  0.00    +0.009 C 
ENDBRANCH  23  36
ENDBRANCH  21  23
ENDBRANCH  20  21
ENDBRANCH   1  20
TORSDOF 7
