REMARK  Name = ZINC59857956
REMARK  7 active torsions:
REMARK  status: ('A' for Active; 'I' for Inactive)
REMARK    1  A    between atoms: C_1  and  C_2
REMARK    2  A    between atoms: C_5  and  N_9
REMARK    3  A    between atoms: C_6  and  C_8
REMARK    4  A    between atoms: C_10  and  C_29
REMARK    5  A    between atoms: C_11  and  C_15
REMARK    6  A    between atoms: C_12  and  C_14
REMARK    7  A    between atoms: N_16  and  N_17
REMARK                            x       y       z     vdW  Elec       q    Type
REMARK                         _______ _______ _______ _____ _____    ______ ____
ROOT
ATOM      1  C   UNL     1       0.307  -7.383  -1.758  0.00  0.00    +0.141 C 
ATOM      2  N   UNL     1       0.424  -8.579  -1.267  0.00  0.00    -0.188 NA
ENDROOT
BRANCH   2   3
ATOM      3  N   UNL     1       0.435  -9.689  -2.121  0.00  0.00    -0.217 N 
ATOM      4  C   UNL     1       0.560 -10.961  -1.598  0.00  0.00    +0.204 A 
ATOM      5  C   UNL     1       0.578 -12.129  -2.498  0.00  0.00    +0.291 A 
ATOM      6  N   UNL     1       0.701 -13.366  -1.968  0.00  0.00    -0.318 N 
ATOM      7  C   UNL     1       0.807 -13.501  -0.595  0.00  0.00    +0.068 A 
ATOM      8  C   UNL     1       0.936 -14.763  -0.024  0.00  0.00    +0.028 A 
ATOM      9  C   UNL     1       1.042 -14.889   1.344  0.00  0.00    +0.002 A 
ATOM     10  C   UNL     1       1.020 -13.765   2.159  0.00  0.00    +0.002 A 
ATOM     11  C   UNL     1       0.895 -12.518   1.619  0.00  0.00    +0.030 A 
ATOM     12  C   UNL     1       0.787 -12.363   0.230  0.00  0.00    +0.090 A 
ATOM     13  N   UNL     1       0.669 -11.129  -0.303  0.00  0.00    -0.224 NA
ATOM     14  O   UNL     1       0.482 -11.981  -3.703  0.00  0.00    -0.264 OA
ATOM     15  H   UNL     1       0.355  -9.565  -3.080  0.00  0.00    +0.176 HD
ATOM     16  H   UNL     1       0.715 -14.148  -2.542  0.00  0.00    +0.169 HD
ENDBRANCH   2   3
BRANCH   1  19
ATOM     17  N   UNL     1       0.212  -4.147  -0.111  0.00  0.00    -0.236 N 
ATOM     18  C   UNL     1       0.178  -4.893  -1.236  0.00  0.00    +0.051 A 
ATOM     19  C   UNL     1       0.295  -6.213  -0.859  0.00  0.00    +0.038 A 
ATOM     20  C   UNL     1       0.403  -6.239   0.549  0.00  0.00    +0.069 A 
ATOM     21  N   UNL     1       0.358  -5.008   0.983  0.00  0.00    -0.171 NA
ATOM     22  C   UNL     1       0.550  -7.473   1.402  0.00  0.00    +0.068 C 
ATOM     23  C   UNL     1       0.037  -4.377  -2.645  0.00  0.00    +0.066 C 
BRANCH  17  28
ATOM     24  C   UNL     1      -0.151   1.511   0.137  0.00  0.00    +0.044 C 
ATOM     25  C   UNL     1      -0.055   0.008   0.072  0.00  0.00    -0.050 A 
ATOM     26  C   UNL     1       0.818  -0.589  -0.820  0.00  0.00    +0.005 A 
ATOM     27  C   UNL     1       0.908  -1.965  -0.883  0.00  0.00    +0.028 A 
ATOM     28  C   UNL     1       0.123  -2.750  -0.049  0.00  0.00    +0.069 A 
ATOM     29  C   UNL     1      -0.752  -2.148   0.845  0.00  0.00    -0.025 A 
ATOM     30  C   UNL     1      -0.834  -0.770   0.907  0.00  0.00    +0.008 A 
ATOM     31  C   UNL     1      -1.607  -2.996   1.751  0.00  0.00    +0.046 C 
ENDBRANCH  17  28
ENDBRANCH   1  19
TORSDOF 3
