REMARK  Name = ZINC66408478
REMARK  4 active torsions:
REMARK  status: ('A' for Active; 'I' for Inactive)
REMARK    1  A    between atoms: C_1  and  C_2
REMARK    2  A    between atoms: C_3  and  C_24
REMARK    3  A    between atoms: C_5  and  C_7
REMARK    4  A    between atoms: C_7  and  N_8
REMARK                            x       y       z     vdW  Elec       q    Type
REMARK                         _______ _______ _______ _____ _____    ______ ____
ROOT
ATOM      1  N   UNL     1      -1.322  -3.664   1.881  0.00  0.00    -0.215 N 
ATOM      2  C   UNL     1      -2.040  -3.206   2.929  0.00  0.00    +0.247 C 
ATOM      3  O   UNL     1      -1.685  -2.409   3.770  0.00  0.00    -0.273 OA
ATOM      4  C   UNL     1      -3.379  -3.898   2.830  0.00  0.00    +0.117 C 
ATOM      5  C   UNL     1      -4.498  -2.875   2.654  0.00  0.00    +0.040 C 
ATOM      6  C   UNL     1      -5.781  -3.618   2.283  0.00  0.00    +0.038 C 
ATOM      7  C   UNL     1      -6.035  -4.751   3.241  0.00  0.00    -0.044 A 
ATOM      8  C   UNL     1      -7.320  -5.278   3.290  0.00  0.00    +0.004 A 
ATOM      9  C   UNL     1      -7.619  -6.321   4.141  0.00  0.00    +0.000 A 
ATOM     10  C   UNL     1      -6.632  -6.850   4.953  0.00  0.00    +0.000 A 
ATOM     11  C   UNL     1      -5.356  -6.328   4.907  0.00  0.00    +0.004 A 
ATOM     12  C   UNL     1      -5.055  -5.275   4.053  0.00  0.00    -0.042 A 
ATOM     13  C   UNL     1      -3.644  -4.742   4.067  0.00  0.00    +0.070 C 
ATOM     14  N   UNL     1      -3.260  -4.743   1.636  0.00  0.00    -0.285 N 
ATOM     15  C   UNL     1      -2.023  -4.534   1.145  0.00  0.00    +0.310 C 
ATOM     16  O   UNL     1      -1.591  -5.078   0.148  0.00  0.00    -0.252 OA
ATOM     17  H   UNL     1      -3.939  -5.331   1.270  0.00  0.00    +0.151 HD
ENDROOT
BRANCH   1  18
ATOM     18  C   UNL     1       0.053  -3.253   1.584  0.00  0.00    +0.213 C 
BRANCH  18  23
ATOM     19  C   UNL     1      -0.018   1.503   0.010  0.00  0.00    +0.069 C 
ATOM     20  C   UNL     1       0.002  -0.004   0.002  0.00  0.00    +0.079 A 
ATOM     21  C   UNL     1       0.008  -0.791  -1.087  0.00  0.00    +0.125 A 
ATOM     22  O   UNL     1       0.027  -2.067  -0.654  0.00  0.00    -0.443 OA
ATOM     23  C   UNL     1       0.033  -2.044   0.685  0.00  0.00    +0.214 A 
ATOM     24  N   UNL     1       0.024  -0.803   1.083  0.00  0.00    -0.217 NA
ATOM     25  C   UNL     1      -0.005  -0.333  -2.522  0.00  0.00    +0.088 C 
ENDBRANCH  18  23
ENDBRANCH   1  18
TORSDOF 2
