REMARK  Name = ZINC65752976
REMARK  5 active torsions:
REMARK  status: ('A' for Active; 'I' for Inactive)
REMARK    1  A    between atoms: C_3  and  C_6
REMARK    2  A    between atoms: C_6  and  C_7
REMARK    3  A    between atoms: C_6  and  N_23
REMARK    4  A    between atoms: C_7  and  N_8
REMARK    5  A    between atoms: N_11  and  C_12
REMARK                            x       y       z     vdW  Elec       q    Type
REMARK                         _______ _______ _______ _____ _____    ______ ____
ROOT
ATOM      1  N   UNL     1       5.793   2.316  -1.224  0.00  0.00    -0.300 N 
ATOM      2  C   UNL     1       6.543   2.464  -2.334  0.00  0.00    +0.304 C 
ATOM      3  O   UNL     1       6.088   2.159  -3.420  0.00  0.00    -0.253 OA
ATOM      4  N   UNL     1       7.796   2.949  -2.241  0.00  0.00    -0.269 N 
ATOM      5  H   UNL     1       6.156   2.559  -0.358  0.00  0.00    +0.150 HD
ATOM      6  H   UNL     1       8.135   3.258  -1.386  0.00  0.00    +0.156 HD
ENDROOT
BRANCH   4   7
ATOM      7  C   UNL     1       8.608   3.007  -3.374  0.00  0.00    +0.036 A 
ATOM      8  C   UNL     1       8.048   3.305  -4.611  0.00  0.00    +0.024 A 
ATOM      9  C   UNL     1       8.842   3.367  -5.741  0.00  0.00    +0.015 A 
ATOM     10  C   UNL     1      10.206   3.129  -5.641  0.00  0.00    +0.049 A 
ATOM     11  C   UNL     1      10.777   2.826  -4.386  0.00  0.00    +0.051 A 
ATOM     12  C   UNL     1       9.977   2.772  -3.260  0.00  0.00    +0.037 A 
ATOM     13  C   UNL     1      12.222   2.634  -4.637  0.00  0.00    +0.251 C 
ATOM     14  O   UNL     1      13.056   2.358  -3.799  0.00  0.00    -0.270 OA
ATOM     15  N   UNL     1      12.456   2.816  -5.949  0.00  0.00    -0.248 N 
ATOM     16  C   UNL     1      11.321   3.111  -6.607  0.00  0.00    +0.251 C 
ATOM     17  O   UNL     1      11.228   3.325  -7.799  0.00  0.00    -0.270 OA
ATOM     18  H   UNL     1      13.329   2.744  -6.366  0.00  0.00    +0.158 HD
ENDBRANCH   4   7
BRANCH   1  19
ATOM     19  C   UNL     1       4.430   1.788  -1.326  0.00  0.00    +0.095 C 
BRANCH  19  20
ATOM     20  C   UNL     1       3.759   1.841   0.048  0.00  0.00    -0.013 C 
BRANCH  20  21
ATOM     21  N   UNL     1       2.435   1.210  -0.029  0.00  0.00    +0.386 N 
ATOM     22  C   UNL     1       2.575  -0.248  -0.277  0.00  0.00    -0.078 C 
ATOM     23  C   UNL     1       1.226  -0.824   0.222  0.00  0.00    -0.020 C 
ATOM     24  C   UNL     1       0.919   0.042   1.465  0.00  0.00    -0.020 C 
ATOM     25  C   UNL     1       1.735   1.333   1.268  0.00  0.00    -0.078 C 
ATOM     26  H   UNL     1       1.888   1.637  -0.761  0.00  0.00    -0.081 HD
ENDBRANCH  20  21
BRANCH  20  29
ATOM     27  C   UNL     1       4.042   5.316   1.582  0.00  0.00    +0.008 A 
ATOM     28  C   UNL     1       4.373   3.997   1.334  0.00  0.00    +0.009 A 
ATOM     29  C   UNL     1       3.607   3.277   0.479  0.00  0.00    -0.022 A 
ATOM     30  S   UNL     1       2.372   4.471  -0.006  0.00  0.00    -0.103 S 
ATOM     31  C   UNL     1       2.961   5.850   0.964  0.00  0.00    +0.045 A 
ENDBRANCH  20  29
ENDBRANCH  19  20
ENDBRANCH   1  19
TORSDOF 5
