REMARK  Name = ZINC00715721
REMARK  6 active torsions:
REMARK  status: ('A' for Active; 'I' for Inactive)
REMARK    1  A    between atoms: C_1  and  O_2
REMARK    2  A    between atoms: O_2  and  C_3
REMARK    3  A    between atoms: C_3  and  C_5
REMARK    4  A    between atoms: C_8  and  C_11
REMARK    5  A    between atoms: C_11  and  S_12
REMARK    6  A    between atoms: S_12  and  C_13
REMARK                            x       y       z     vdW  Elec       q    Type
REMARK                         _______ _______ _______ _____ _____    ______ ____
ROOT
ATOM      1  C   UNL     1      -3.473   3.090   1.456  0.00  0.00    +0.191 A 
ATOM      2  N   UNL     1      -3.870   3.322   0.210  0.00  0.00    -0.207 NA
ATOM      3  C   UNL     1      -4.906   4.097  -0.064  0.00  0.00    +0.129 A 
ATOM      4  C   UNL     1      -5.621   4.707   1.005  0.00  0.00    +0.051 A 
ATOM      5  C   UNL     1      -6.785   5.594   0.939  0.00  0.00    -0.025 A 
ATOM      6  C   UNL     1      -7.280   6.041   2.110  0.00  0.00    -0.004 A 
ATOM      7  S   UNL     1      -6.245   5.320   3.356  0.00  0.00    -0.073 S 
ATOM      8  C   UNL     1      -5.144   4.417   2.298  0.00  0.00    +0.115 A 
ATOM      9  N   UNL     1      -4.105   3.627   2.491  0.00  0.00    -0.215 NA
ATOM     10  C   UNL     1      -8.453   6.952   2.311  0.00  0.00    +0.043 C 
ATOM     11  C   UNL     1      -8.793   7.609   0.966  0.00  0.00    +0.005 C 
ATOM     12  C   UNL     1      -8.835   6.523  -0.114  0.00  0.00    +0.005 C 
ATOM     13  C   UNL     1      -7.423   6.005  -0.385  0.00  0.00    +0.037 C 
ATOM     14  N   UNL     1      -5.289   4.314  -1.375  0.00  0.00    -0.343 N 
ATOM     15  H   UNL     1      -4.965   3.729  -2.078  0.00  0.00    +0.144 HD
ATOM     16  H   UNL     1      -5.882   5.050  -1.592  0.00  0.00    +0.144 HD
ENDROOT
BRANCH   1  17
ATOM     17  S   UNL     1      -2.083   2.044   1.740  0.00  0.00    -0.081 S 
BRANCH  17  18
ATOM     18  C   UNL     1      -1.657   1.618   0.033  0.00  0.00    +0.112 C 
BRANCH  18  22
ATOM     19  C   UNL     1       1.739  -0.981   0.006  0.00  0.00    +0.059 A 
ATOM     20  C   UNL     1       0.449  -1.512   0.070  0.00  0.00    +0.015 A 
ATOM     21  C   UNL     1      -0.642  -0.668   0.081  0.00  0.00    +0.005 A 
ATOM     22  C   UNL     1      -0.460   0.703   0.028  0.00  0.00    -0.037 A 
ATOM     23  C   UNL     1       0.815   1.236  -0.036  0.00  0.00    +0.005 A 
ATOM     24  C   UNL     1       1.915   0.404  -0.047  0.00  0.00    +0.015 A 
BRANCH  19  25
ATOM     25  C   UNL     1       2.912  -1.879  -0.004  0.00  0.00    +0.339 C 
ATOM     26  O   UNL     1       2.756  -3.082   0.043  0.00  0.00    -0.245 OA
BRANCH  25  28
ATOM     27  C   UNL     1       5.260  -2.304  -0.073  0.00  0.00    +0.280 C 
ATOM     28  O   UNL     1       4.154  -1.362  -0.066  0.00  0.00    -0.464 OA
ENDBRANCH  25  28
ENDBRANCH  19  25
ENDBRANCH  18  22
ENDBRANCH  17  18
ENDBRANCH   1  17
TORSDOF 5
