REMARK  Name = ZINC25317947
REMARK  8 active torsions:
REMARK  status: ('A' for Active; 'I' for Inactive)
REMARK    1  A    between atoms: C_1  and  C_2
REMARK    2  A    between atoms: C_4  and  C_15
REMARK    3  A    between atoms: C_6  and  C_12
REMARK    4  A    between atoms: N_9  and  C_11
REMARK    5  A    between atoms: C_12  and  C_13
REMARK    6  A    between atoms: C_12  and  C_14
REMARK    7  A    between atoms: N_17  and  N_18
REMARK    8  A    between atoms: C_19  and  C_21
REMARK                            x       y       z     vdW  Elec       q    Type
REMARK                         _______ _______ _______ _____ _____    ______ ____
ROOT
ATOM      1  C   UNL     1       1.152   1.645  -0.517  0.00  0.00    +0.261 C 
ATOM      2  O   UNL     1       1.117   2.848  -0.344  0.00  0.00    -0.269 OA
ATOM      3  N   UNL     1       0.015   0.968  -0.774  0.00  0.00    -0.230 N 
ATOM      4  H   UNL     1       0.046  -0.121  -0.926  0.00  0.00    +0.173 HD
ENDROOT
BRANCH   1   8
ATOM      5  C   UNL     1       3.032   4.145  -0.290  0.00  0.00    +0.068 C 
ATOM      6  C   UNL     1       4.004   2.993  -0.257  0.00  0.00    +0.070 A 
ATOM      7  C   UNL     1       3.663   1.626  -0.329  0.00  0.00    +0.054 A 
ATOM      8  C   UNL     1       2.442   0.925  -0.445  0.00  0.00    +0.052 A 
ATOM      9  C   UNL     1       2.492  -0.466  -0.494  0.00  0.00    +0.037 A 
ATOM     10  C   UNL     1       3.721  -1.105  -0.424  0.00  0.00    +0.047 A 
ATOM     11  N   UNL     1       4.844  -0.430  -0.312  0.00  0.00    -0.232 NA
ATOM     12  C   UNL     1       4.865   0.894  -0.259  0.00  0.00    +0.159 A 
ATOM     13  N   UNL     1       5.872   1.817  -0.146  0.00  0.00    -0.249 N 
ATOM     14  N   UNL     1       5.298   3.094  -0.156  0.00  0.00    -0.174 NA
ATOM     15  C   UNL     1       7.303   1.519  -0.047  0.00  0.00    +0.174 C 
BRANCH  10  16
ATOM     16  C   UNL     1       3.771  -2.610  -0.478  0.00  0.00    +0.032 C 
ATOM     17  C   UNL     1       3.553  -3.178   0.926  0.00  0.00    +0.014 C 
ATOM     18  C   UNL     1       2.674  -3.124  -1.412  0.00  0.00    +0.014 C 
ENDBRANCH  10  16
ENDBRANCH   1   8
BRANCH   3  19
ATOM     19  N   UNL     1      -1.205   1.651  -0.848  0.00  0.00    -0.234 N 
ATOM     20  C   UNL     1      -2.341   0.975  -1.111  0.00  0.00    +0.235 C 
ATOM     21  O   UNL     1      -2.306  -0.225  -1.284  0.00  0.00    -0.274 OA
ATOM     22  H   UNL     1      -1.237   2.739  -0.692  0.00  0.00    +0.173 HD
BRANCH  20  23
ATOM     23  C   UNL     1      -3.655   1.709  -1.191  0.00  0.00    +0.049 C 
ATOM     24  C   UNL     1      -3.935   2.398   0.146  0.00  0.00    +0.019 C 
ATOM     25  C   UNL     1      -5.269   3.144   0.065  0.00  0.00    -0.009 C 
ATOM     26  C   UNL     1      -6.391   2.151  -0.242  0.00  0.00    +0.007 C 
ATOM     27  C   UNL     1      -6.110   1.462  -1.579  0.00  0.00    -0.009 C 
ATOM     28  C   UNL     1      -4.777   0.716  -1.499  0.00  0.00    +0.019 C 
ATOM     29  C   UNL     1      -6.040   2.513  -2.690  0.00  0.00    +0.007 C 
ATOM     30  C   UNL     1      -4.918   3.506  -2.382  0.00  0.00    -0.009 C 
ATOM     31  C   UNL     1      -5.199   4.195  -1.045  0.00  0.00    +0.007 C 
ATOM     32  C   UNL     1      -3.584   2.760  -2.301  0.00  0.00    +0.019 C 
ENDBRANCH  20  23
ENDBRANCH   3  19
TORSDOF 4
