REMARK  Name = ZINC01423088
REMARK  10 active torsions:
REMARK  status: ('A' for Active; 'I' for Inactive)
REMARK    1  A    between atoms: C_1  and  C_2
REMARK    2  A    between atoms: C_2  and  O_3
REMARK    3  A    between atoms: O_3  and  C_4
REMARK    4  A    between atoms: C_4  and  C_6
REMARK    5  A    between atoms: C_10  and  N_11
REMARK    6  A    between atoms: C_12  and  C_14
REMARK    7  A    between atoms: C_15  and  C_33
REMARK    8  A    between atoms: C_19  and  C_21
REMARK    9  A    between atoms: C_29  and  C_31
REMARK   10  A    between atoms: C_29  and  C_32
REMARK                            x       y       z     vdW  Elec       q    Type
REMARK                         _______ _______ _______ _____ _____    ______ ____
ROOT
ATOM      1  C   UNL     1      -1.227   2.952  -7.146  0.00  0.00    +0.044 C 
ATOM      2  C   UNL     1      -2.179   3.337  -8.012  0.00  0.00    +0.014 C 
ATOM      3  N   UNL     1      -1.887   3.488  -9.340  0.00  0.00    -0.321 N 
ATOM      4  C   UNL     1      -0.787   2.883  -9.884  0.00  0.00    +0.016 C 
ATOM      5  C   UNL     1       0.226   2.466  -9.095  0.00  0.00    +0.024 C 
ATOM      6  C   UNL     1       0.174   2.672  -7.602  0.00  0.00    +0.097 C 
ATOM      7  C   UNL     1       1.354   1.828  -9.640  0.00  0.00    +0.162 C 
ATOM      8  O   UNL     1       2.253   1.473  -8.903  0.00  0.00    -0.292 OA
ATOM      9  C   UNL     1       1.469   1.577 -11.119  0.00  0.00    +0.086 C 
ATOM     10  C   UNL     1       0.064   1.430 -11.710  0.00  0.00    -0.023 C 
ATOM     11  C   UNL     1      -0.736   2.692 -11.380  0.00  0.00    +0.058 C 
ATOM     12  C   UNL     1      -0.627   0.209 -11.099  0.00  0.00    +0.011 C 
ATOM     13  C   UNL     1       0.155   1.262 -13.228  0.00  0.00    +0.011 C 
ATOM     14  C   UNL     1      -3.576   3.610  -7.517  0.00  0.00    +0.061 C 
ATOM     15  H   UNL     1      -2.540   4.100  -9.980  0.00  0.00    +0.152 HD
ENDROOT
BRANCH   6  16
ATOM     16  C   UNL     1       1.057   3.836  -7.233  0.00  0.00    +0.002 A 
ATOM     17  C   UNL     1       2.150   3.858  -6.431  0.00  0.00    +0.012 A 
ATOM     18  C   UNL     1       2.814   5.054  -6.236  0.00  0.00    +0.008 A 
ATOM     19  C   UNL     1       2.346   6.172  -6.842  0.00  0.00    +0.045 A 
ATOM     20  S   UNL     1       0.930   5.546  -7.730  0.00  0.00    -0.101 S 
ENDBRANCH   6  16
BRANCH   1  22
ATOM     21  N   UNL     1      -0.644   2.302  -4.917  0.00  0.00    -0.275 N 
ATOM     22  C   UNL     1      -1.554   2.801  -5.776  0.00  0.00    +0.247 C 
ATOM     23  O   UNL     1      -2.659   3.122  -5.375  0.00  0.00    -0.270 OA
ATOM     24  H   UNL     1       0.353   2.012  -5.279  0.00  0.00    +0.156 HD
BRANCH  21  29
ATOM     25  C   UNL     1      -0.170   1.665  -2.549  0.00  0.00    +0.091 A 
ATOM     26  C   UNL     1      -0.752   1.613  -1.218  0.00  0.00    -0.021 A 
ATOM     27  C   UNL     1      -2.025   2.056  -1.129  0.00  0.00    -0.004 A 
ATOM     28  S   UNL     1      -2.454   2.536  -2.778  0.00  0.00    -0.077 S 
ATOM     29  C   UNL     1      -0.964   2.155  -3.578  0.00  0.00    +0.087 A 
ATOM     30  C   UNL     1      -2.875   2.120   0.102  0.00  0.00    +0.043 C 
ATOM     31  C   UNL     1      -2.216   1.259   1.190  0.00  0.00    +0.005 C 
ATOM     32  C   UNL     1      -0.726   1.609   1.266  0.00  0.00    +0.005 C 
ATOM     33  C   UNL     1      -0.011   1.103   0.012  0.00  0.00    +0.037 C 
BRANCH  25  34
ATOM     34  C   UNL     1       1.202   1.217  -2.796  0.00  0.00    +0.342 C 
ATOM     35  O   UNL     1       1.419   0.057  -3.091  0.00  0.00    -0.245 OA
BRANCH  34  36
ATOM     36  O   UNL     1       2.225   2.090  -2.697  0.00  0.00    -0.461 OA
BRANCH  36  38
ATOM     37  C   UNL     1       4.580   2.704  -2.797  0.00  0.00    +0.048 C 
ATOM     38  C   UNL     1       3.558   1.576  -2.955  0.00  0.00    +0.229 C 
ENDBRANCH  36  38
ENDBRANCH  34  36
ENDBRANCH  25  34
ENDBRANCH  21  29
ENDBRANCH   1  22
TORSDOF 6
