REMARK  Name = ZINC00659192
REMARK  7 active torsions:
REMARK  status: ('A' for Active; 'I' for Inactive)
REMARK    1  A    between atoms: C_1  and  C_2
REMARK    2  A    between atoms: C_3  and  C_8
REMARK    3  A    between atoms: N_6  and  C_7
REMARK    4  A    between atoms: C_8  and  N_9
REMARK    5  A    between atoms: C_10  and  C_12
REMARK    6  A    between atoms: C_17  and  C_32
REMARK    7  A    between atoms: C_20  and  C_23
REMARK                            x       y       z     vdW  Elec       q    Type
REMARK                         _______ _______ _______ _____ _____    ______ ____
ROOT
ATOM      1  C   UNL     1       2.941   0.932  -4.570  0.00  0.00    +0.149 A 
ATOM      2  C   UNL     1       3.321   1.431  -5.836  0.00  0.00    +0.078 A 
ATOM      3  C   UNL     1       4.645   1.678  -5.796  0.00  0.00    +0.119 A 
ATOM      4  N   UNL     1       5.101   1.352  -4.550  0.00  0.00    -0.238 N 
ATOM      5  N   UNL     1       4.017   0.893  -3.803  0.00  0.00    -0.164 NA
ATOM      6  C   UNL     1       6.499   1.493  -4.133  0.00  0.00    +0.215 C 
ATOM      7  C   UNL     1       7.204   2.467  -5.083  0.00  0.00    +0.063 C 
ATOM      8  C   UNL     1       6.936   2.064  -6.537  0.00  0.00    +0.104 C 
ATOM      9  N   UNL     1       5.487   2.175  -6.795  0.00  0.00    -0.322 N 
ATOM     10  H   UNL     1       5.139   2.569  -7.610  0.00  0.00    +0.148 HD
ENDROOT
BRANCH   8  11
ATOM     11  C   UNL     1       7.386   0.643  -6.760  0.00  0.00    -0.024 A 
ATOM     12  C   UNL     1       6.579  -0.407  -6.364  0.00  0.00    +0.009 A 
ATOM     13  C   UNL     1       6.988  -1.712  -6.566  0.00  0.00    +0.050 A 
ATOM     14  C   UNL     1       8.209  -1.970  -7.168  0.00  0.00    +0.166 A 
ATOM     15  C   UNL     1       9.022  -0.913  -7.568  0.00  0.00    +0.167 A 
ATOM     16  C   UNL     1       8.603   0.393  -7.366  0.00  0.00    +0.055 A 
ATOM     17  O   UNL     1      10.158  -1.423  -8.127  0.00  0.00    -0.453 OA
ATOM     18  C   UNL     1      10.215  -2.796  -7.697  0.00  0.00    +0.466 C 
ATOM     19  O   UNL     1       8.835  -3.143  -7.477  0.00  0.00    -0.453 OA
ENDBRANCH   8  11
BRANCH   1  21
ATOM     20  N   UNL     1       1.347   0.073  -2.923  0.00  0.00    -0.306 N 
ATOM     21  C   UNL     1       1.577   0.529  -4.170  0.00  0.00    +0.264 C 
ATOM     22  O   UNL     1       0.662   0.610  -4.966  0.00  0.00    -0.268 OA
ATOM     23  H   UNL     1       2.077   0.008  -2.288  0.00  0.00    +0.149 HD
BRANCH  20  24
ATOM     24  C   UNL     1      -0.006  -0.327  -2.527  0.00  0.00    +0.143 C 
BRANCH  24  27
ATOM     25  C   UNL     1      -0.018   1.503   0.010  0.00  0.00    +0.065 C 
ATOM     26  C   UNL     1       0.002  -0.004   0.002  0.00  0.00    +0.040 A 
ATOM     27  C   UNL     1       0.008  -0.796  -1.095  0.00  0.00    +0.010 A 
ATOM     28  C   UNL     1       0.028  -2.127  -0.666  0.00  0.00    +0.139 A 
ATOM     29  N   UNL     1       0.035  -2.134   0.643  0.00  0.00    -0.179 NA
ATOM     30  N   UNL     1       0.024  -0.805   1.088  0.00  0.00    -0.271 N 
ATOM     31  C   UNL     1       0.031  -0.364   2.485  0.00  0.00    +0.172 C 
ENDBRANCH  24  27
ENDBRANCH  20  24
ENDBRANCH   1  21
BRANCH   6  32
ATOM     32  C   UNL     1       6.555   2.036  -2.704  0.00  0.00    +0.412 C 
ATOM     33  F   UNL     1       5.900   1.151  -1.842  0.00  0.00    -0.168 F 
ATOM     34  F   UNL     1       7.891   2.170  -2.308  0.00  0.00    -0.168 F 
ATOM     35  F   UNL     1       5.927   3.285  -2.655  0.00  0.00    -0.168 F 
ENDBRANCH   6  32
TORSDOF 5
