REMARK  Name = ZINC39881956
REMARK  10 active torsions:
REMARK  status: ('A' for Active; 'I' for Inactive)
REMARK    1  A    between atoms: C_1  and  C_2
REMARK    2  A    between atoms: C_2  and  C_3
REMARK    3  A    between atoms: C_2  and  C_4
REMARK    4  A    between atoms: C_2  and  C_5
REMARK    5  A    between atoms: N_7  and  C_8
REMARK    6  A    between atoms: C_8  and  C_16
REMARK    7  A    between atoms: C_9  and  C_10
REMARK    8  A    between atoms: N_18  and  C_19
REMARK    9  A    between atoms: C_22  and  S_25
REMARK   10  A    between atoms: S_25  and  N_28
REMARK                            x       y       z     vdW  Elec       q    Type
REMARK                         _______ _______ _______ _____ _____    ______ ____
ROOT
ATOM      1  C   UNL     1       1.000  -1.952  -2.577  0.00  0.00    +0.097 C 
ATOM      2  C   UNL     1       1.596  -3.120  -2.244  0.00  0.00    +0.036 C 
ENDROOT
BRANCH   2   3
ATOM      3  C   UNL     1       2.982  -3.383  -2.659  0.00  0.00    -0.023 A 
ATOM      4  C   UNL     1       3.897  -2.329  -2.763  0.00  0.00    +0.008 A 
ATOM      5  C   UNL     1       5.195  -2.584  -3.153  0.00  0.00    +0.001 A 
ATOM      6  C   UNL     1       5.593  -3.877  -3.442  0.00  0.00    +0.000 A 
ATOM      7  C   UNL     1       4.695  -4.925  -3.341  0.00  0.00    +0.001 A 
ATOM      8  C   UNL     1       3.395  -4.688  -2.946  0.00  0.00    +0.008 A 
ENDBRANCH   2   3
BRANCH   1  11
ATOM      9  C   UNL     1      -0.912  -0.540  -2.490  0.00  0.00    +0.223 C 
ATOM     10  O   UNL     1      -0.378   0.212  -3.276  0.00  0.00    -0.275 OA
ATOM     11  N   UNL     1      -0.259  -1.636  -2.055  0.00  0.00    -0.281 N 
ATOM     12  H   UNL     1      -0.662  -2.206  -1.381  0.00  0.00    +0.155 HD
BRANCH   9  14
ATOM     13  C   UNL     1      -2.815   1.043  -2.639  0.00  0.00    +0.020 C 
ATOM     14  C   UNL     1      -2.307  -0.250  -1.997  0.00  0.00    +0.039 C 
ATOM     15  C   UNL     1      -2.287  -0.090  -0.476  0.00  0.00    +0.020 C 
ATOM     16  C   UNL     1      -3.233  -1.407  -2.377  0.00  0.00    +0.020 C 
ENDBRANCH   9  14
ENDBRANCH   1  11
BRANCH   1  17
ATOM     17  C   UNL     1       1.675  -1.016  -3.486  0.00  0.00    +0.262 C 
ATOM     18  O   UNL     1       2.160   0.012  -3.051  0.00  0.00    -0.268 OA
ATOM     19  N   UNL     1       1.757  -1.295  -4.802  0.00  0.00    -0.280 N 
ATOM     20  H   UNL     1       1.304  -2.074  -5.162  0.00  0.00    +0.155 HD
BRANCH  19  21
ATOM     21  C   UNL     1       2.495  -0.462  -5.649  0.00  0.00    +0.034 A 
ATOM     22  C   UNL     1       3.646   0.160  -5.183  0.00  0.00    +0.025 A 
ATOM     23  C   UNL     1       4.373   0.982  -6.022  0.00  0.00    +0.030 A 
ATOM     24  C   UNL     1       3.955   1.187  -7.324  0.00  0.00    +0.105 A 
ATOM     25  C   UNL     1       2.809   0.569  -7.791  0.00  0.00    +0.030 A 
ATOM     26  C   UNL     1       2.081  -0.259  -6.959  0.00  0.00    +0.025 A 
BRANCH  24  27
ATOM     27  S   UNL     1       4.884   2.237  -8.391  0.00  0.00    +0.056 S 
ATOM     28  O   UNL     1       3.986   2.696  -9.392  0.00  0.00    -0.153 OA
ATOM     29  O   UNL     1       5.611   3.125  -7.554  0.00  0.00    -0.153 OA
BRANCH  27  30
ATOM     30  N   UNL     1       6.003   1.288  -9.159  0.00  0.00    -0.204 NA
ATOM     31  H   UNL     1       6.306   1.520 -10.050  0.00  0.00    +0.144 HD
ATOM     32  H   UNL     1       6.356   0.499  -8.717  0.00  0.00    +0.144 HD
ENDBRANCH  27  30
ENDBRANCH  24  27
ENDBRANCH  19  21
ENDBRANCH   1  17
TORSDOF 7
