REMARK  Name = ZINC15020473
REMARK  8 active torsions:
REMARK  status: ('A' for Active; 'I' for Inactive)
REMARK    1  A    between atoms: C_1  and  C_2
REMARK    2  A    between atoms: C_2  and  O_3
REMARK    3  A    between atoms: O_3  and  P_4
REMARK    4  A    between atoms: P_4  and  C_6
REMARK    5  A    between atoms: C_6  and  P_7
REMARK    6  A    between atoms: P_7  and  O_10
REMARK    7  A    between atoms: O_10  and  C_11
REMARK    8  A    between atoms: C_11  and  C_12
REMARK                            x       y       z     vdW  Elec       q    Type
REMARK                         _______ _______ _______ _____ _____    ______ ____
ROOT
ATOM      1  C   UNL     1      -1.205   2.091   3.886  0.00  0.00    +0.258 C 
ENDROOT
BRANCH   1   2
ATOM      2  P   UNL     1      -0.176   1.201   2.673  0.00  0.00    +0.372 P 
ATOM      3  O   UNL     1       1.236   1.618   2.823  0.00  0.00    -0.256 OA
ATOM      4  O   UNL     1      -0.297  -0.384   2.926  0.00  0.00    -0.140 OA
BRANCH   2   5
ATOM      5  O   UNL     1      -0.682   1.547   1.184  0.00  0.00    -0.306 OA
BRANCH   5   7
ATOM      6  C   UNL     1      -0.753   1.593  -1.232  0.00  0.00    +0.034 C 
ATOM      7  C   UNL     1      -0.013   1.086   0.008  0.00  0.00    +0.167 C 
ENDBRANCH   5   7
ENDBRANCH   2   5
ENDBRANCH   1   2
BRANCH   1   8
ATOM      8  P   UNL     1      -0.632   1.700   5.572  0.00  0.00    +0.372 P 
ATOM      9  O   UNL     1       0.780   2.117   5.722  0.00  0.00    -0.256 OA
ATOM     10  O   UNL     1      -0.754   0.115   5.825  0.00  0.00    -0.140 OA
BRANCH   8  11
ATOM     11  O   UNL     1      -1.541   2.486   6.643  0.00  0.00    -0.306 OA
BRANCH  11  12
ATOM     12  C   UNL     1      -1.279   2.469   8.048  0.00  0.00    +0.167 C 
ATOM     13  C   UNL     1      -2.328   3.314   8.773  0.00  0.00    +0.034 C 
ENDBRANCH  11  12
ENDBRANCH   8  11
ENDBRANCH   1   8
TORSDOF 6
