REMARK  Name = ZINC39638037
REMARK  10 active torsions:
REMARK  status: ('A' for Active; 'I' for Inactive)
REMARK    1  A    between atoms: C_1  and  C_2
REMARK    2  A    between atoms: C_2  and  C_3
REMARK    3  A    between atoms: C_3  and  C_5
REMARK    4  A    between atoms: C_3  and  N_8
REMARK    5  A    between atoms: C_5  and  O_6
REMARK    6  A    between atoms: O_6  and  C_7
REMARK    7  A    between atoms: C_9  and  C_11
REMARK    8  A    between atoms: C_22  and  C_24
REMARK    9  A    between atoms: C_25  and  C_37
REMARK   10  A    between atoms: C_28  and  C_29
REMARK                            x       y       z     vdW  Elec       q    Type
REMARK                         _______ _______ _______ _____ _____    ______ ____
ROOT
ATOM      1  C   UNL     1      -1.423  -0.098  -3.888  0.00  0.00    +0.100 C 
ATOM      2  C   UNL     1      -2.720   0.655  -3.518  0.00  0.00    +0.121 C 
ATOM      3  N   UNL     1      -2.354   2.090  -3.588  0.00  0.00    -0.296 N 
ATOM      4  C   UNL     1      -1.466   2.185  -4.772  0.00  0.00    +0.115 C 
ATOM      5  C   UNL     1      -0.604   0.909  -4.714  0.00  0.00    -0.004 C 
ATOM      6  C   UNL     1      -0.366   0.368  -6.121  0.00  0.00    -0.010 C 
ATOM      7  C   UNL     1       0.499   1.359  -6.904  0.00  0.00    -0.082 C 
ATOM      8  N   UNL     1       1.778   1.551  -6.209  0.00  0.00    +0.379 N 
ATOM      9  C   UNL     1       1.546   2.158  -4.893  0.00  0.00    -0.082 C 
ATOM     10  C   UNL     1       0.725   1.201  -4.025  0.00  0.00    -0.010 C 
ATOM     11  C   UNL     1      -2.741   3.083  -2.763  0.00  0.00    +0.252 C 
ATOM     12  O   UNL     1      -2.431   4.233  -3.009  0.00  0.00    -0.270 OA
ATOM     13  H   UNL     1       2.232   0.658  -6.091  0.00  0.00    -0.086 HD
ATOM     14  H   UNL     1       2.369   2.157  -6.758  0.00  0.00    -0.086 HD
ENDROOT
BRANCH  11  15
ATOM     15  C   UNL     1      -3.538   2.775  -1.564  0.00  0.00    +0.106 A 
ATOM     16  C   UNL     1      -3.066   2.599  -0.296  0.00  0.00    +0.147 A 
ATOM     17  O   UNL     1      -4.103   2.337   0.504  0.00  0.00    -0.359 OA
ATOM     18  N   UNL     1      -5.296   2.338  -0.254  0.00  0.00    -0.077 NA
ATOM     19  C   UNL     1      -4.998   2.604  -1.501  0.00  0.00    +0.128 A 
ATOM     20  C   UNL     1      -1.623   2.686   0.128  0.00  0.00    +0.090 C 
BRANCH  19  21
ATOM     21  C   UNL     1      -5.949   2.709  -2.633  0.00  0.00    +0.041 A 
ATOM     22  C   UNL     1      -6.749   1.620  -2.979  0.00  0.00    +0.052 A 
ATOM     23  C   UNL     1      -7.633   1.724  -4.035  0.00  0.00    +0.021 A 
ATOM     24  C   UNL     1      -7.726   2.905  -4.750  0.00  0.00    +0.003 A 
ATOM     25  C   UNL     1      -6.935   3.988  -4.412  0.00  0.00    +0.021 A 
ATOM     26  C   UNL     1      -6.051   3.899  -3.354  0.00  0.00    +0.052 A 
ATOM     27 CL   UNL     1      -5.066   5.263  -2.926  0.00  0.00    -0.083 Cl
ATOM     28 CL   UNL     1      -6.633   0.137  -2.084  0.00  0.00    -0.083 Cl
ENDBRANCH  19  21
ENDBRANCH  11  15
BRANCH   1  30
ATOM     29  N   UNL     1       0.217  -1.503  -2.682  0.00  0.00    -0.310 N 
ATOM     30  C   UNL     1      -0.670  -0.489  -2.642  0.00  0.00    +0.218 C 
ATOM     31  O   UNL     1      -0.862   0.108  -1.605  0.00  0.00    -0.275 OA
ATOM     32  H   UNL     1       0.317  -2.029  -3.491  0.00  0.00    +0.149 HD
BRANCH  29  33
ATOM     33  C   UNL     1       1.031  -1.812  -1.503  0.00  0.00    +0.098 C 
BRANCH  33  35
ATOM     34  C   UNL     1      -0.964  -2.457  -0.144  0.00  0.00    +0.006 C 
ATOM     35  C   UNL     1       0.372  -2.942  -0.711  0.00  0.00    +0.021 C 
ENDBRANCH  33  35
BRANCH  33  36
ATOM     36  C   UNL     1       2.428  -2.248  -1.948  0.00  0.00    +0.181 C 
BRANCH  36  37
ATOM     37  O   UNL     1       2.336  -3.474  -2.675  0.00  0.00    -0.381 OA
ATOM     38  C   UNL     1       3.593  -3.972  -3.138  0.00  0.00    +0.194 C 
ENDBRANCH  36  37
ENDBRANCH  33  36
ENDBRANCH  29  33
ENDBRANCH   1  30
TORSDOF 7
