REMARK  Name = ZINC36597774
REMARK  17 active torsions:
REMARK  status: ('A' for Active; 'I' for Inactive)
REMARK    1  A    between atoms: C_1  and  C_2
REMARK    2  A    between atoms: C_5  and  C_7
REMARK    3  A    between atoms: C_7  and  N_8
REMARK    4  A    between atoms: N_8  and  C_9
REMARK    5  A    between atoms: C_9  and  C_11
REMARK    6  A    between atoms: C_9  and  C_21
REMARK    7  A    between atoms: C_14  and  O_19
REMARK    8  A    between atoms: C_15  and  O_17
REMARK    9  A    between atoms: O_17  and  C_18
REMARK   10  A    between atoms: O_19  and  C_20
REMARK   11  A    between atoms: N_23  and  C_24
REMARK   12  A    between atoms: C_24  and  C_25
REMARK   13  A    between atoms: C_24  and  C_26
REMARK   14  A    between atoms: C_24  and  C_27
REMARK   15  A    between atoms: C_28  and  C_30
REMARK   16  A    between atoms: C_34  and  O_37
REMARK   17  A    between atoms: C_35  and  O_36
REMARK                            x       y       z     vdW  Elec       q    Type
REMARK                         _______ _______ _______ _____ _____    ______ ____
ROOT
ATOM      1  N   UNL     1       1.810  -5.594  -1.379  0.00  0.00    -0.275 N 
ATOM      2  C   UNL     1       1.671  -6.146  -0.158  0.00  0.00    +0.252 C 
ATOM      3  O   UNL     1       0.597  -6.603   0.184  0.00  0.00    -0.270 OA
ENDROOT
BRANCH   2   4
ATOM      4  C   UNL     1       2.821  -6.196   0.765  0.00  0.00    +0.082 A 
ATOM      5  C   UNL     1       3.846  -5.251   0.662  0.00  0.00    +0.017 A 
ATOM      6  C   UNL     1       4.919  -5.300   1.525  0.00  0.00    +0.005 A 
ATOM      7  C   UNL     1       4.989  -6.284   2.498  0.00  0.00    +0.049 A 
ATOM      8  C   UNL     1       3.982  -7.227   2.613  0.00  0.00    +0.159 A 
ATOM      9  C   UNL     1       2.889  -7.187   1.752  0.00  0.00    +0.171 A 
BRANCH   9  10
ATOM     10  O   UNL     1       1.897  -8.106   1.865  0.00  0.00    -0.503 OA
ATOM     11  H   UNL     1       2.037  -8.903   1.335  0.00  0.00    +0.292 HD
ENDBRANCH   9  10
BRANCH   8  12
ATOM     12  O   UNL     1       4.058  -8.190   3.571  0.00  0.00    -0.503 OA
ATOM     13  H   UNL     1       3.650  -7.941   4.411  0.00  0.00    +0.292 HD
ENDBRANCH   8  12
ENDBRANCH   2   4
BRANCH   1  14
ATOM     14  C   UNL     1       0.813  -5.856  -2.420  0.00  0.00    +0.183 C 
BRANCH  14  19
ATOM     15  C   UNL     1       3.055  -7.011  -6.788  0.00  0.00    +0.086 C 
ATOM     16  C   UNL     1       2.418  -7.158  -5.430  0.00  0.00    +0.102 A 
ATOM     17  C   UNL     1       2.235  -8.315  -4.768  0.00  0.00    +0.045 A 
ATOM     18  C   UNL     1       1.607  -7.991  -3.544  0.00  0.00    +0.046 A 
ATOM     19  C   UNL     1       1.443  -6.656  -3.530  0.00  0.00    +0.122 A 
ATOM     20  O   UNL     1       1.942  -6.156  -4.673  0.00  0.00    -0.463 OA
ENDBRANCH  14  19
ENDBRANCH   1  14
BRANCH   1  21
ATOM     21  C   UNL     1       2.960  -4.732  -1.667  0.00  0.00    +0.193 C 
BRANCH  21  22
ATOM     22  C   UNL     1       4.232  -5.526  -1.520  0.00  0.00    -0.015 A 
ATOM     23  C   UNL     1       4.208  -6.901  -1.667  0.00  0.00    +0.010 A 
ATOM     24  C   UNL     1       5.373  -7.633  -1.534  0.00  0.00    +0.050 A 
ATOM     25  C   UNL     1       6.568  -6.990  -1.252  0.00  0.00    +0.162 A 
ATOM     26  C   UNL     1       6.591  -5.607  -1.104  0.00  0.00    +0.162 A 
ATOM     27  C   UNL     1       5.421  -4.878  -1.244  0.00  0.00    +0.055 A 
BRANCH  26  28
ATOM     28  O   UNL     1       7.761  -4.971  -0.827  0.00  0.00    -0.491 OA
ATOM     29  C   UNL     1       7.707  -3.551  -0.670  0.00  0.00    +0.277 C 
ENDBRANCH  26  28
BRANCH  25  30
ATOM     30  O   UNL     1       7.714  -7.710  -1.119  0.00  0.00    -0.491 OA
ATOM     31  C   UNL     1       7.614  -9.125  -1.284  0.00  0.00    +0.277 C 
ENDBRANCH  25  30
ENDBRANCH  21  22
BRANCH  21  32
ATOM     32  C   UNL     1       2.854  -4.208  -3.076  0.00  0.00    +0.239 C 
ATOM     33  O   UNL     1       1.773  -4.151  -3.622  0.00  0.00    -0.273 OA
ATOM     34  N   UNL     1       3.962  -3.804  -3.729  0.00  0.00    -0.309 N 
ATOM     35  H   UNL     1       4.827  -3.850  -3.292  0.00  0.00    +0.149 HD
BRANCH  34  36
ATOM     36  C   UNL     1       3.859  -3.295  -5.099  0.00  0.00    +0.026 C 
ATOM     37  C   UNL     1       2.949  -2.065  -5.119  0.00  0.00    +0.031 C 
ATOM     38  C   UNL     1       5.250  -2.907  -5.604  0.00  0.00    +0.031 C 
ATOM     39  C   UNL     1       3.272  -4.379  -6.004  0.00  0.00    +0.031 C 
ENDBRANCH  34  36
ENDBRANCH  21  32
ENDBRANCH   1  21
TORSDOF 11
