REMARK  Name = ZINC35711855
REMARK  12 active torsions:
REMARK  status: ('A' for Active; 'I' for Inactive)
REMARK    1  A    between atoms: C_1  and  C_2
REMARK    2  A    between atoms: C_2  and  C_3
REMARK    3  A    between atoms: C_3  and  N_4
REMARK    4  A    between atoms: C_5  and  C_36
REMARK    5  A    between atoms: C_6  and  C_30
REMARK    6  A    between atoms: C_7  and  C_12
REMARK    7  A    between atoms: C_15  and  N_18
REMARK    8  A    between atoms: N_21  and  C_22
REMARK    9  A    between atoms: C_30  and  O_32
REMARK   10  A    between atoms: O_32  and  C_33
REMARK   11  A    between atoms: C_33  and  C_34
REMARK   12  A    between atoms: C_33  and  C_35
REMARK                            x       y       z     vdW  Elec       q    Type
REMARK                         _______ _______ _______ _____ _____    ______ ____
ROOT
ATOM      1  C   UNL     1      -2.638  -5.579  -0.057  0.00  0.00    -0.022 A 
ATOM      2  C   UNL     1      -3.842  -5.020   0.330  0.00  0.00    +0.007 A 
ATOM      3  C   UNL     1      -4.995  -5.781   0.317  0.00  0.00    +0.024 A 
ATOM      4  C   UNL     1      -4.944  -7.109  -0.086  0.00  0.00    +0.035 A 
ATOM      5  C   UNL     1      -3.733  -7.667  -0.474  0.00  0.00    +0.024 A 
ATOM      6  C   UNL     1      -2.585  -6.899  -0.464  0.00  0.00    +0.007 A 
ENDROOT
BRANCH   1  10
ATOM      7  N   UNL     1      -1.260  -1.987   0.110  0.00  0.00    -0.259 N 
ATOM      8  C   UNL     1      -1.313  -2.549  -1.133  0.00  0.00    +0.024 C 
ATOM      9  C   UNL     1      -1.374  -3.889  -1.290  0.00  0.00    +0.078 C 
ATOM     10  C   UNL     1      -1.383  -4.746  -0.041  0.00  0.00    +0.143 C 
ATOM     11  N   UNL     1      -1.322  -4.042   1.252  0.00  0.00    -0.288 N 
ATOM     12  C   UNL     1      -1.260  -2.696   1.246  0.00  0.00    +0.307 C 
ATOM     13  O   UNL     1      -1.206  -2.106   2.308  0.00  0.00    -0.252 OA
ATOM     14  C   UNL     1      -1.303  -1.660  -2.350  0.00  0.00    +0.061 C 
ATOM     15  H   UNL     1      -1.324  -4.536   2.087  0.00  0.00    +0.151 HD
BRANCH   9  16
ATOM     16  C   UNL     1      -1.430  -4.472  -2.578  0.00  0.00    +0.339 C 
ATOM     17  O   UNL     1      -1.423  -3.764  -3.567  0.00  0.00    -0.245 OA
BRANCH  16  18
ATOM     18  O   UNL     1      -1.491  -5.814  -2.708  0.00  0.00    -0.459 OA
BRANCH  18  19
ATOM     19  C   UNL     1      -1.545  -6.335  -4.038  0.00  0.00    +0.171 C 
ATOM     20  C   UNL     1      -0.883  -7.714  -4.072  0.00  0.00    +0.052 C 
ATOM     21  C   UNL     1      -3.005  -6.458  -4.478  0.00  0.00    +0.052 C 
ENDBRANCH  18  19
ENDBRANCH  16  18
ENDBRANCH   9  16
BRANCH   7  22
ATOM     22  C   UNL     1      -1.195  -0.526   0.207  0.00  0.00    +0.114 C 
BRANCH  22  24
ATOM     23  C   UNL     1      -2.541   1.579   0.234  0.00  0.00    +0.005 C 
ATOM     24  C   UNL     1      -2.609   0.053   0.133  0.00  0.00    +0.016 C 
ENDBRANCH  22  24
ENDBRANCH   7  22
ENDBRANCH   1  10
BRANCH   4  25
ATOM     25  N   UNL     1      -6.109  -7.883  -0.100  0.00  0.00    -0.269 N 
ATOM     26  C   UNL     1      -7.289  -7.318  -0.427  0.00  0.00    +0.308 C 
ATOM     27  O   UNL     1      -7.354  -6.121  -0.630  0.00  0.00    -0.252 OA
ATOM     28  N   UNL     1      -8.396  -8.081  -0.527  0.00  0.00    -0.269 N 
ATOM     29  H   UNL     1      -6.069  -8.825   0.125  0.00  0.00    +0.156 HD
ATOM     30  H   UNL     1      -8.361  -9.020  -0.287  0.00  0.00    +0.156 HD
BRANCH  28  31
ATOM     31  C   UNL     1      -9.595  -7.517  -0.979  0.00  0.00    +0.038 A 
ATOM     32  C   UNL     1      -9.575  -6.523  -1.949  0.00  0.00    +0.026 A 
ATOM     33  C   UNL     1     -10.759  -5.968  -2.394  0.00  0.00    +0.043 A 
ATOM     34  C   UNL     1     -11.966  -6.401  -1.874  0.00  0.00    +0.159 A 
ATOM     35  C   UNL     1     -11.990  -7.393  -0.906  0.00  0.00    +0.160 A 
ATOM     36  C   UNL     1     -10.807  -7.955  -0.462  0.00  0.00    +0.064 A 
ATOM     37  F   UNL     1     -13.170  -7.814  -0.399  0.00  0.00    -0.202 F 
ATOM     38  F   UNL     1     -13.123  -5.856  -2.311  0.00  0.00    -0.202 F 
ENDBRANCH  28  31
ENDBRANCH   4  25
TORSDOF 8
