REMARK  Name = ZINC02126109
REMARK  6 active torsions:
REMARK  status: ('A' for Active; 'I' for Inactive)
REMARK    1  A    between atoms: C_4  and  C_7
REMARK    2  A    between atoms: C_7  and  C_8
REMARK    3  A    between atoms: C_8  and  C_9
REMARK    4  A    between atoms: N_28  and  C_31
REMARK    5  A    between atoms: C_31  and  C_32
REMARK    6  A    between atoms: C_32  and  N_67
REMARK                            x       y       z     vdW  Elec       q    Type
REMARK                         _______ _______ _______ _____ _____    ______ ____
ROOT
ATOM      1  C   UNL     1      -1.328   4.878   0.036  0.00  0.00    +0.124 C 
ATOM      2  C   UNL     1      -0.597   3.555   0.077  0.00  0.00    +0.041 A 
ATOM      3  C   UNL     1      -1.222   2.358   0.088  0.00  0.00    -0.015 A 
ATOM      4  C   UNL     1      -0.189   1.342   0.121  0.00  0.00    +0.003 A 
ATOM      5  C   UNL     1      -0.235  -0.055   0.141  0.00  0.00    +0.010 A 
ATOM      6  C   UNL     1       0.968  -0.715   0.180  0.00  0.00    +0.001 A 
ATOM      7  C   UNL     1       2.178  -0.040   0.198  0.00  0.00    +0.002 A 
ATOM      8  C   UNL     1       2.252   1.342   0.178  0.00  0.00    +0.026 A 
ATOM      9  C   UNL     1       1.046   2.039   0.138  0.00  0.00    +0.047 A 
ATOM     10  N   UNL     1       0.760   3.373   0.110  0.00  0.00    -0.356 N 
ATOM     11  H   UNL     1       1.419   4.085   0.112  0.00  0.00    +0.166 HD
ATOM     12  C   UNL     1      -2.717   2.170   0.065  0.00  0.00    +0.069 C 
ATOM     13  C   UNL     1      -3.375   3.477  -0.399  0.00  0.00    +0.167 C 
ATOM     14  N   UNL     1      -2.756   4.602   0.301  0.00  0.00    -0.280 N 
ATOM     15  C   UNL     1      -3.417   5.379   1.161  0.00  0.00    +0.234 C 
ATOM     16  O   UNL     1      -2.791   6.242   1.739  0.00  0.00    -0.274 OA
ATOM     17  C   UNL     1      -4.876   5.258   1.460  0.00  0.00    +0.203 C 
ATOM     18  N   UNL     1      -5.508   4.209   0.677  0.00  0.00    -0.293 N 
ATOM     19  C   UNL     1      -4.849   3.409  -0.159  0.00  0.00    +0.237 C 
ATOM     20  O   UNL     1      -5.485   2.572  -0.763  0.00  0.00    -0.274 OA
ENDROOT
BRANCH   1  21
ATOM     21  C   UNL     1      -0.771   5.814   1.110  0.00  0.00    +0.033 C 
BRANCH  21  22
ATOM     22  C   UNL     1      -0.883   5.142   2.480  0.00  0.00    +0.037 C 
BRANCH  22  26
ATOM     23  C   UNL     1       0.321   7.893   5.519  0.00  0.00    +0.000 A 
ATOM     24  C   UNL     1      -1.003   7.835   5.124  0.00  0.00    +0.000 A 
ATOM     25  C   UNL     1      -1.393   6.945   4.141  0.00  0.00    +0.003 A 
ATOM     26  C   UNL     1      -0.459   6.113   3.552  0.00  0.00    -0.047 A 
ATOM     27  C   UNL     1       0.864   6.167   3.950  0.00  0.00    +0.003 A 
ATOM     28  C   UNL     1       1.254   7.061   4.930  0.00  0.00    +0.000 A 
ENDBRANCH  22  26
ENDBRANCH  21  22
ENDBRANCH   1  21
BRANCH  18  29
ATOM     29  C   UNL     1      -6.954   4.021   0.816  0.00  0.00    +0.090 C 
BRANCH  29  30
ATOM     30  C   UNL     1      -7.233   3.019   1.938  0.00  0.00    -0.059 C 
BRANCH  30  36
ATOM     31  C   UNL     1      -9.332   4.063   2.550  0.00  0.00    -0.050 C 
ATOM     32  C   UNL     1     -10.844   3.841   2.623  0.00  0.00    +0.141 C 
ATOM     33  O   UNL     1     -11.116   2.725   3.476  0.00  0.00    -0.383 OA
ATOM     34  C   UNL     1     -10.501   1.508   3.046  0.00  0.00    +0.141 C 
ATOM     35  C   UNL     1      -8.984   1.707   2.977  0.00  0.00    -0.050 C 
ATOM     36  N   UNL     1      -8.694   2.824   2.054  0.00  0.00    +0.384 N 
ATOM     37  H   UNL     1      -9.075   2.600   1.127  0.00  0.00    -0.082 HD
ENDBRANCH  30  36
ENDBRANCH  29  30
ENDBRANCH  18  29
TORSDOF 6
