REMARK  Name = ZINC04690410
REMARK  2 active torsions:
REMARK  status: ('A' for Active; 'I' for Inactive)
REMARK    1  A    between atoms: C_4  and  C_7
REMARK    2  A    between atoms: C_10  and  C_19
REMARK                            x       y       z     vdW  Elec       q    Type
REMARK                         _______ _______ _______ _____ _____    ______ ____
ROOT
ATOM      1  C   UNL     1       3.711  -0.707  -0.038  0.00  0.00    +0.106 C 
ATOM      2  C   UNL     1       4.048  -1.192   1.377  0.00  0.00    +0.059 C 
ATOM      3  C   UNL     1       5.412  -1.893   1.373  0.00  0.00    +0.144 C 
ATOM      4  N   UNL     1       5.439  -2.867   0.281  0.00  0.00    -0.224 N 
ATOM      5  C   UNL     1       4.594  -2.850  -0.777  0.00  0.00    +0.216 A 
ATOM      6  N   UNL     1       4.893  -3.858  -1.553  0.00  0.00    -0.180 NA
ATOM      7  C   UNL     1       5.921  -4.538  -1.025  0.00  0.00    +0.233 A 
ATOM      8  N   UNL     1       6.284  -3.962   0.099  0.00  0.00    -0.132 NA
ATOM      9  N   UNL     1       6.510  -5.675  -1.580  0.00  0.00    -0.326 N 
ATOM     10  N   UNL     1       3.612  -1.879  -0.929  0.00  0.00    -0.307 N 
ATOM     11  H   UNL     1       6.177  -6.034  -2.418  0.00  0.00    +0.145 HD
ATOM     12  H   UNL     1       7.253  -6.106  -1.129  0.00  0.00    +0.145 HD
ATOM     13  H   UNL     1       2.899  -1.967  -1.582  0.00  0.00    +0.149 HD
ENDROOT
BRANCH   3  14
ATOM     14  C   UNL     1       5.622  -2.599   2.688  0.00  0.00    -0.004 A 
ATOM     15  C   UNL     1       4.745  -3.590   3.088  0.00  0.00    +0.008 A 
ATOM     16  C   UNL     1       4.937  -4.237   4.294  0.00  0.00    +0.020 A 
ATOM     17  C   UNL     1       6.007  -3.893   5.101  0.00  0.00    +0.042 A 
ATOM     18  C   UNL     1       6.885  -2.902   4.701  0.00  0.00    +0.040 A 
ATOM     19  C   UNL     1       6.695  -2.258   3.492  0.00  0.00    +0.048 A 
ATOM     20 CL   UNL     1       7.800  -1.018   2.986  0.00  0.00    -0.083 Cl
ATOM     21 CL   UNL     1       6.247  -4.706   6.616  0.00  0.00    -0.083 Cl
ENDBRANCH   3  14
BRANCH   1  25
ATOM     22  C   UNL     1      -0.017   1.378   0.010  0.00  0.00    +0.000 A 
ATOM     23  C   UNL     1       1.171   2.086   0.002  0.00  0.00    +0.000 A 
ATOM     24  C   UNL     1       2.377   1.411  -0.013  0.00  0.00    +0.005 A 
ATOM     25  C   UNL     1       2.396   0.029  -0.020  0.00  0.00    -0.027 A 
ATOM     26  C   UNL     1       1.208  -0.679  -0.012  0.00  0.00    +0.005 A 
ATOM     27  C   UNL     1       0.002  -0.004   0.002  0.00  0.00    +0.000 A 
ENDBRANCH   1  25
TORSDOF 2
