REMARK  Name = ZINC18009761
REMARK  5 active torsions:
REMARK  status: ('A' for Active; 'I' for Inactive)
REMARK    1  A    between atoms: C_1  and  C_2
REMARK    2  A    between atoms: N_4  and  C_5
REMARK    3  A    between atoms: C_8  and  C_11
REMARK    4  A    between atoms: N_19  and  C_22
REMARK    5  A    between atoms: N_33  and  C_34
REMARK                            x       y       z     vdW  Elec       q    Type
REMARK                         _______ _______ _______ _____ _____    ______ ____
ROOT
ATOM      1  C   UNL     1      -0.876  -6.349   0.355  0.00  0.00    +0.157 C 
ATOM      2  C   UNL     1      -0.970  -6.977  -1.030  0.00  0.00    +0.145 C 
ATOM      3  C   UNL     1      -2.541  -7.080  -1.097  0.00  0.00    +0.249 C 
ATOM      4  C   UNL     1      -2.760  -7.246  -2.520  0.00  0.00    +0.259 C 
ATOM      5  O   UNL     1      -3.635  -7.889  -3.059  0.00  0.00    -0.272 OA
ATOM      6  N   UNL     1      -1.767  -6.522  -3.126  0.00  0.00    -0.207 N 
ATOM      7  C   UNL     1      -0.765  -6.146  -2.258  0.00  0.00    +0.235 C 
ATOM      8  O   UNL     1       0.099  -5.315  -2.440  0.00  0.00    -0.274 OA
ATOM      9  O   UNL     1      -2.859  -7.655   0.102  0.00  0.00    -0.257 OA
ATOM     10  N   UNL     1      -2.069  -6.891   1.069  0.00  0.00    -0.244 N 
ENDROOT
BRANCH   6  11
ATOM     11  C   UNL     1      -1.762  -6.206  -4.489  0.00  0.00    +0.052 A 
ATOM     12  C   UNL     1      -2.346  -5.040  -4.935  0.00  0.00    +0.024 A 
ATOM     13  C   UNL     1      -2.345  -4.716  -6.288  0.00  0.00    +0.002 A 
ATOM     14  C   UNL     1      -1.769  -5.538  -7.208  0.00  0.00    +0.008 A 
ATOM     15  C   UNL     1      -1.162  -6.736  -6.795  0.00  0.00    -0.016 A 
ATOM     16  C   UNL     1      -1.152  -7.074  -5.419  0.00  0.00    +0.004 A 
ATOM     17  C   UNL     1      -0.541  -8.269  -5.007  0.00  0.00    +0.010 A 
ATOM     18  C   UNL     1       0.038  -9.084  -5.932  0.00  0.00    +0.001 A 
ATOM     19  C   UNL     1       0.033  -8.749  -7.285  0.00  0.00    +0.001 A 
ATOM     20  C   UNL     1      -0.560  -7.605  -7.721  0.00  0.00    +0.008 A 
ENDBRANCH   6  11
BRANCH   1  24
ATOM     21  C   UNL     1      -1.087  -2.089   0.095  0.00  0.00    +0.033 A 
ATOM     22  C   UNL     1       0.147  -2.721   0.166  0.00  0.00    +0.023 A 
ATOM     23  C   UNL     1       0.212  -4.098   0.250  0.00  0.00    +0.007 A 
ATOM     24  C   UNL     1      -0.951  -4.847   0.264  0.00  0.00    -0.022 A 
ATOM     25  C   UNL     1      -2.181  -4.220   0.192  0.00  0.00    +0.007 A 
ATOM     26  C   UNL     1      -2.253  -2.843   0.114  0.00  0.00    +0.023 A 
BRANCH  21  30
ATOM     27  C   UNL     1      -2.172   1.477   0.620  0.00  0.00    +0.109 C 
ATOM     28  C   UNL     1      -2.155  -0.030   0.623  0.00  0.00    +0.214 C 
ATOM     29  O   UNL     1      -3.042  -0.645   1.177  0.00  0.00    -0.276 OA
ATOM     30  N   UNL     1      -1.156  -0.694   0.009  0.00  0.00    -0.286 N 
ATOM     31  H   UNL     1      -0.484  -0.205  -0.491  0.00  0.00    +0.155 HD
ENDBRANCH  21  30
ENDBRANCH   1  24
BRANCH  10  32
ATOM     32  C   UNL     1      -2.371  -6.709   2.420  0.00  0.00    +0.065 A 
ATOM     33  C   UNL     1      -1.524  -5.959   3.227  0.00  0.00    +0.028 A 
ATOM     34  C   UNL     1      -1.825  -5.780   4.563  0.00  0.00    +0.002 A 
ATOM     35  C   UNL     1      -2.968  -6.346   5.098  0.00  0.00    +0.000 A 
ATOM     36  C   UNL     1      -3.812  -7.093   4.298  0.00  0.00    +0.002 A 
ATOM     37  C   UNL     1      -3.520  -7.272   2.960  0.00  0.00    +0.028 A 
ENDBRANCH  10  32
TORSDOF 4
