REMARK  Name = ZINC63478895
REMARK  12 active torsions:
REMARK  status: ('A' for Active; 'I' for Inactive)
REMARK    1  A    between atoms: C_1  and  C_2
REMARK    2  A    between atoms: C_2  and  O_3
REMARK    3  A    between atoms: O_3  and  C_4
REMARK    4  A    between atoms: C_9  and  N_10
REMARK    5  A    between atoms: C_11  and  C_13
REMARK    6  A    between atoms: C_13  and  N_14
REMARK    7  A    between atoms: N_14  and  C_15
REMARK    8  A    between atoms: N_14  and  S_22
REMARK    9  A    between atoms: C_18  and  C_21
REMARK   10  A    between atoms: S_22  and  C_25
REMARK   11  A    between atoms: C_26  and  C_32
REMARK   12  A    between atoms: C_29  and  C_31
REMARK                            x       y       z     vdW  Elec       q    Type
REMARK                         _______ _______ _______ _____ _____    ______ ____
ROOT
ATOM      1  N   UNL     1      -7.637  -2.149  -0.256  0.00  0.00    -0.194 N 
ENDROOT
BRANCH   1   2
ATOM      2  C   UNL     1      -8.322  -2.729   0.815  0.00  0.00    +0.052 A 
ATOM      3  C   UNL     1      -9.022  -3.914   0.632  0.00  0.00    +0.025 A 
ATOM      4  C   UNL     1      -9.699  -4.485   1.692  0.00  0.00    +0.005 A 
ATOM      5  C   UNL     1      -9.680  -3.877   2.934  0.00  0.00    -0.050 A 
ATOM      6  C   UNL     1      -8.984  -2.697   3.119  0.00  0.00    +0.005 A 
ATOM      7  C   UNL     1      -8.301  -2.124   2.065  0.00  0.00    +0.025 A 
ATOM      8  C   UNL     1     -10.420  -4.503   4.088  0.00  0.00    +0.044 C 
ENDBRANCH   1   2
BRANCH   1   9
ATOM      9  S   UNL     1      -8.154  -2.406  -1.807  0.00  0.00    +0.075 S 
ATOM     10  O   UNL     1      -9.496  -2.866  -1.717  0.00  0.00    -0.150 OA
ATOM     11  O   UNL     1      -7.794  -1.250  -2.552  0.00  0.00    -0.150 OA
BRANCH   9  12
ATOM     12  C   UNL     1      -7.206  -3.740  -2.459  0.00  0.00    +0.134 C 
ATOM     13  C   UNL     1      -7.619  -4.976  -2.753  0.00  0.00    +0.085 C 
ATOM     14  N   UNL     1      -6.599  -5.720  -3.234  0.00  0.00    -0.157 NA
ATOM     15  N   UNL     1      -5.520  -5.127  -3.303  0.00  0.00    -0.178 NA
ATOM     16  C   UNL     1      -5.732  -3.751  -2.822  0.00  0.00    +0.176 C 
ATOM     17  C   UNL     1      -5.441  -2.736  -3.930  0.00  0.00    +0.041 C 
ATOM     18  C   UNL     1      -9.030  -5.472  -2.572  0.00  0.00    +0.069 C 
ENDBRANCH   9  12
ENDBRANCH   1   9
BRANCH   1  19
ATOM     19  C   UNL     1      -6.459  -1.314  -0.005  0.00  0.00    +0.227 C 
BRANCH  19  21
ATOM     20  N   UNL     1      -4.032  -1.635   0.348  0.00  0.00    -0.281 N 
ATOM     21  C   UNL     1      -5.239  -2.189   0.115  0.00  0.00    +0.236 C 
ATOM     22  O   UNL     1      -5.342  -3.392   0.002  0.00  0.00    -0.274 OA
ATOM     23  H   UNL     1      -3.959  -0.681   0.507  0.00  0.00    +0.155 HD
BRANCH  20  29
ATOM     24  C   UNL     1      -1.672  -1.929  -0.103  0.00  0.00    +0.142 A 
ATOM     25  C   UNL     1      -0.538  -2.725  -0.083  0.00  0.00    +0.047 A 
ATOM     26  C   UNL     1      -0.612  -4.022   0.390  0.00  0.00    +0.004 A 
ATOM     27  C   UNL     1      -1.815  -4.529   0.845  0.00  0.00    +0.002 A 
ATOM     28  C   UNL     1      -2.951  -3.741   0.829  0.00  0.00    +0.027 A 
ATOM     29  C   UNL     1      -2.884  -2.437   0.360  0.00  0.00    +0.076 A 
BRANCH  24  30
ATOM     30  O   UNL     1      -1.601  -0.653  -0.568  0.00  0.00    -0.490 OA
BRANCH  30  32
ATOM     31  C   UNL     1      -0.442   1.247  -1.508  0.00  0.00    +0.048 C 
ATOM     32  C   UNL     1      -0.326  -0.200  -1.027  0.00  0.00    +0.226 C 
ENDBRANCH  30  32
ENDBRANCH  24  30
ENDBRANCH  20  29
ENDBRANCH  19  21
ENDBRANCH   1  19
TORSDOF 8
