REMARK  Name = ZINC14625178
REMARK  10 active torsions:
REMARK  status: ('A' for Active; 'I' for Inactive)
REMARK    1  A    between atoms: C_1  and  C_2
REMARK    2  A    between atoms: C_2  and  C_3
REMARK    3  A    between atoms: C_3  and  C_4
REMARK    4  A    between atoms: C_4  and  N_5
REMARK    5  A    between atoms: C_6  and  N_37
REMARK    6  A    between atoms: C_7  and  N_14
REMARK    7  A    between atoms: N_14  and  C_15
REMARK    8  A    between atoms: C_15  and  C_16
REMARK    9  A    between atoms: C_22  and  C_24
REMARK   10  A    between atoms: C_24  and  C_25
REMARK                            x       y       z     vdW  Elec       q    Type
REMARK                         _______ _______ _______ _____ _____    ______ ____
ROOT
ATOM      1  N   UNL     1      -0.367   1.397   0.051  0.00  0.00    -0.260 N 
ATOM      2  C   UNL     1       0.697   2.213  -0.096  0.00  0.00    +0.225 C 
ATOM      3  O   UNL     1       0.567   3.411   0.043  0.00  0.00    -0.275 OA
ENDROOT
BRANCH   1   6
ATOM      4  N   UNL     1      -3.557   2.290   1.641  0.00  0.00    -0.280 N 
ATOM      5  C   UNL     1      -2.307   1.746   1.462  0.00  0.00    +0.127 A 
ATOM      6  C   UNL     1      -1.651   1.943   0.265  0.00  0.00    +0.140 A 
ATOM      7  C   UNL     1      -2.281   2.703  -0.738  0.00  0.00    +0.277 A 
ATOM      8  O   UNL     1      -1.722   2.897  -1.804  0.00  0.00    -0.266 OA
ATOM      9  N   UNL     1      -3.509   3.210  -0.515  0.00  0.00    -0.273 N 
ATOM     10  H   UNL     1      -3.961   3.744  -1.230  0.00  0.00    +0.173 HD
ATOM     11  C   UNL     1      -4.134   3.008   0.659  0.00  0.00    +0.331 A 
ATOM     12  O   UNL     1      -5.239   3.481   0.836  0.00  0.00    -0.246 OA
BRANCH   5  13
ATOM     13  N   UNL     1      -1.718   1.013   2.465  0.00  0.00    -0.343 N 
ATOM     14  H   UNL     1      -0.805   0.701   2.366  0.00  0.00    +0.144 HD
ATOM     15  H   UNL     1      -2.216   0.808   3.272  0.00  0.00    +0.144 HD
ENDBRANCH   5  13
BRANCH   4  16
ATOM     16  C   UNL     1      -4.266   2.089   2.907  0.00  0.00    +0.128 C 
BRANCH  16  17
ATOM     17  C   UNL     1      -3.913   3.221   3.874  0.00  0.00    +0.021 C 
BRANCH  17  19
ATOM     18  C   UNL     1      -4.300   4.143   6.164  0.00  0.00    +0.004 C 
ATOM     19  C   UNL     1      -4.653   3.010   5.197  0.00  0.00    -0.002 C 
ENDBRANCH  17  19
ENDBRANCH  16  17
ENDBRANCH   4  16
ENDBRANCH   1   6
BRANCH   1  20
ATOM     20  C   UNL     1      -0.192  -0.056  -0.017  0.00  0.00    +0.149 C 
BRANCH  20  21
ATOM     21  C   UNL     1      -0.454  -0.529  -1.423  0.00  0.00    -0.030 A 
ATOM     22  C   UNL     1      -1.749  -0.782  -1.837  0.00  0.00    +0.005 A 
ATOM     23  C   UNL     1      -1.990  -1.211  -3.129  0.00  0.00    +0.000 A 
ATOM     24  C   UNL     1      -0.936  -1.396  -4.004  0.00  0.00    +0.000 A 
ATOM     25  C   UNL     1       0.359  -1.148  -3.589  0.00  0.00    +0.000 A 
ATOM     26  C   UNL     1       0.600  -0.714  -2.298  0.00  0.00    +0.005 A 
ENDBRANCH  20  21
ENDBRANCH   1  20
BRANCH   2  27
ATOM     27  C   UNL     1       2.048   1.636  -0.434  0.00  0.00    +0.135 C 
BRANCH  27  28
ATOM     28  C   UNL     1       3.082   2.732  -0.410  0.00  0.00    +0.007 A 
ATOM     29  C   UNL     1       3.527   3.440  -1.457  0.00  0.00    +0.200 A 
ATOM     30  O   UNL     1       4.447   4.334  -1.054  0.00  0.00    -0.463 OA
ATOM     31  C   UNL     1       4.654   4.245   0.276  0.00  0.00    +0.135 A 
ATOM     32  C   UNL     1       3.809   3.233   0.762  0.00  0.00    +0.024 A 
ATOM     33  C   UNL     1       3.809   2.916   2.118  0.00  0.00    +0.015 A 
ATOM     34  C   UNL     1       4.640   3.598   2.983  0.00  0.00    -0.043 A 
ATOM     35  C   UNL     1       5.474   4.599   2.505  0.00  0.00    -0.041 A 
ATOM     36  C   UNL     1       5.482   4.920   1.161  0.00  0.00    +0.050 A 
ATOM     37  C   UNL     1       6.275   5.184   3.650  0.00  0.00    +0.036 C 
ATOM     38  C   UNL     1       6.167   4.149   4.790  0.00  0.00    +0.009 C 
ATOM     39  C   UNL     1       4.828   3.449   4.478  0.00  0.00    +0.036 C 
ENDBRANCH  27  28
ENDBRANCH   2  27
TORSDOF 9
