REMARK  Name = ZINC39675243
REMARK  9 active torsions:
REMARK  status: ('A' for Active; 'I' for Inactive)
REMARK    1  A    between atoms: C_1  and  C_2
REMARK    2  A    between atoms: C_2  and  C_4
REMARK    3  A    between atoms: C_2  and  N_14
REMARK    4  A    between atoms: C_4  and  C_5
REMARK    5  A    between atoms: C_5  and  C_6
REMARK    6  A    between atoms: C_9  and  O_12
REMARK    7  A    between atoms: O_12  and  C_13
REMARK    8  A    between atoms: C_15  and  C_17
REMARK    9  A    between atoms: C_28  and  C_30
REMARK                            x       y       z     vdW  Elec       q    Type
REMARK                         _______ _______ _______ _____ _____    ______ ____
ROOT
ATOM      1  C   UNL     1       2.799  -0.467   2.244  0.00  0.00    +0.100 C 
ATOM      2  C   UNL     1       2.652   0.276   3.591  0.00  0.00    +0.121 C 
ATOM      3  N   UNL     1       3.983   0.158   4.231  0.00  0.00    -0.296 N 
ATOM      4  C   UNL     1       4.945   0.327   3.115  0.00  0.00    +0.115 C 
ATOM      5  C   UNL     1       4.305  -0.431   1.935  0.00  0.00    -0.004 C 
ATOM      6  C   UNL     1       4.862  -1.849   1.855  0.00  0.00    -0.010 C 
ATOM      7  C   UNL     1       6.348  -1.789   1.490  0.00  0.00    -0.082 C 
ATOM      8  N   UNL     1       6.510  -1.104   0.203  0.00  0.00    +0.379 N 
ATOM      9  C   UNL     1       6.058   0.288   0.315  0.00  0.00    -0.082 C 
ATOM     10  C   UNL     1       4.559   0.315   0.629  0.00  0.00    -0.010 C 
ATOM     11  C   UNL     1       4.258  -0.056   5.533  0.00  0.00    +0.247 C 
ATOM     12  O   UNL     1       3.356  -0.284   6.315  0.00  0.00    -0.270 OA
ATOM     13  H   UNL     1       7.483  -1.119  -0.065  0.00  0.00    -0.086 HD
ATOM     14  H   UNL     1       5.964  -1.579  -0.501  0.00  0.00    -0.086 HD
ENDROOT
BRANCH  11  15
ATOM     15  C   UNL     1       5.657  -0.011   6.010  0.00  0.00    +0.042 A 
ATOM     16  C   UNL     1       6.627   0.669   5.273  0.00  0.00    +0.051 A 
ATOM     17  C   UNL     1       7.933   0.708   5.724  0.00  0.00    +0.127 A 
ATOM     18  C   UNL     1       8.279   0.072   6.906  0.00  0.00    +0.076 A 
ATOM     19  C   UNL     1       7.320  -0.604   7.641  0.00  0.00    +0.127 A 
ATOM     20  C   UNL     1       6.010  -0.644   7.203  0.00  0.00    +0.051 A 
ATOM     21  F   UNL     1       7.665  -1.222   8.793  0.00  0.00    -0.205 F 
ATOM     22  F   UNL     1       8.873   1.365   5.012  0.00  0.00    -0.205 F 
ENDBRANCH  11  15
BRANCH   1  24
ATOM     23  N   UNL     1       1.519  -0.451   0.127  0.00  0.00    -0.312 N 
ATOM     24  C   UNL     1       2.025   0.245   1.165  0.00  0.00    +0.218 C 
ATOM     25  O   UNL     1       1.857   1.445   1.230  0.00  0.00    -0.275 OA
ATOM     26  H   UNL     1       1.653  -1.410   0.075  0.00  0.00    +0.149 HD
BRANCH  23  28
ATOM     27  C   UNL     1      -0.696   0.382  -0.493  0.00  0.00    +0.028 C 
ATOM     28  C   UNL     1       0.766   0.242  -0.922  0.00  0.00    +0.070 C 
BRANCH  28  29
ATOM     29  C   UNL     1       0.842  -0.565  -2.220  0.00  0.00    +0.026 C 
BRANCH  29  30
ATOM     30  C   UNL     1       2.289  -0.599  -2.715  0.00  0.00    +0.037 C 
BRANCH  30  31
ATOM     31  C   UNL     1       2.364  -1.393  -3.994  0.00  0.00    -0.047 A 
ATOM     32  C   UNL     1       2.585  -2.757  -3.948  0.00  0.00    +0.007 A 
ATOM     33  C   UNL     1       2.654  -3.487  -5.119  0.00  0.00    +0.046 A 
ATOM     34  C   UNL     1       2.501  -2.850  -6.341  0.00  0.00    +0.120 A 
ATOM     35  C   UNL     1       2.279  -1.481  -6.385  0.00  0.00    +0.046 A 
ATOM     36  C   UNL     1       2.205  -0.757  -5.212  0.00  0.00    +0.007 A 
BRANCH  34  37
ATOM     37  O   UNL     1       2.569  -3.566  -7.495  0.00  0.00    -0.495 OA
ATOM     38  C   UNL     1       2.402  -2.845  -8.717  0.00  0.00    +0.277 C 
ENDBRANCH  34  37
ENDBRANCH  30  31
ENDBRANCH  29  30
ENDBRANCH  28  29
ENDBRANCH  23  28
ENDBRANCH   1  24
TORSDOF 7
