REMARK  Name = ZINC66647813
REMARK  4 active torsions:
REMARK  status: ('A' for Active; 'I' for Inactive)
REMARK    1  A    between atoms: C_1  and  N_2
REMARK    2  A    between atoms: C_4  and  N_9
REMARK    3  A    between atoms: C_10  and  C_12
REMARK    4  A    between atoms: C_24  and  C_26
REMARK                            x       y       z     vdW  Elec       q    Type
REMARK                         _______ _______ _______ _____ _____    ______ ____
ROOT
ATOM      1  C   UNL     1      -0.978  -3.977  -3.622  0.00  0.00    +0.163 C 
ATOM      2  C   UNL     1       0.460  -3.956  -4.185  0.00  0.00    +0.037 C 
ATOM      3  C   UNL     1       0.359  -4.908  -5.416  0.00  0.00    +0.012 C 
ATOM      4  C   UNL     1      -0.276  -4.095  -6.546  0.00  0.00    +0.005 C 
ATOM      5  C   UNL     1      -0.798  -5.016  -7.645  0.00  0.00    +0.000 C 
ATOM      6  C   UNL     1      -1.887  -5.918  -7.053  0.00  0.00    +0.002 C 
ATOM      7  C   UNL     1      -1.253  -6.795  -5.974  0.00  0.00    +0.023 C 
ATOM      8  C   UNL     1      -0.619  -5.966  -4.873  0.00  0.00    +0.080 C 
ATOM      9  N   UNL     1      -1.614  -5.221  -4.090  0.00  0.00    -0.283 N 
ATOM     10  C   UNL     1      -2.882  -5.605  -3.843  0.00  0.00    +0.247 C 
ATOM     11  O   UNL     1      -3.320  -6.620  -4.348  0.00  0.00    -0.270 OA
ENDROOT
BRANCH  10  12
ATOM     12  C   UNL     1      -3.741  -4.790  -2.957  0.00  0.00    +0.037 A 
ATOM     13  C   UNL     1      -3.748  -3.400  -3.071  0.00  0.00    +0.013 A 
ATOM     14  C   UNL     1      -4.552  -2.646  -2.242  0.00  0.00    +0.001 A 
ATOM     15  C   UNL     1      -5.351  -3.266  -1.298  0.00  0.00    +0.000 A 
ATOM     16  C   UNL     1      -5.349  -4.644  -1.179  0.00  0.00    +0.001 A 
ATOM     17  C   UNL     1      -4.554  -5.410  -2.006  0.00  0.00    +0.013 A 
ENDBRANCH  10  12
BRANCH   1  19
ATOM     18  N   UNL     1      -0.750  -2.793  -1.462  0.00  0.00    -0.309 N 
ATOM     19  C   UNL     1      -0.939  -3.956  -2.115  0.00  0.00    +0.234 C 
ATOM     20  O   UNL     1      -1.079  -4.987  -1.491  0.00  0.00    -0.274 OA
ATOM     21  H   UNL     1      -0.638  -1.969  -1.961  0.00  0.00    +0.149 HD
BRANCH  18  25
ATOM     22  C   UNL     1       0.256   0.802   0.856  0.00  0.00    +0.132 C 
ATOM     23  N   UNL     1       0.155  -0.652   0.708  0.00  0.00    -0.303 N 
ATOM     24  C   UNL     1      -1.107  -1.383   0.547  0.00  0.00    +0.130 C 
ATOM     25  C   UNL     1      -0.712  -2.773   0.003  0.00  0.00    +0.099 C 
ATOM     26  C   UNL     1       0.738  -2.915   0.522  0.00  0.00    +0.119 C 
ATOM     27  C   UNL     1       1.208  -1.488   0.698  0.00  0.00    +0.217 C 
ATOM     28  O   UNL     1       2.366  -1.148   0.815  0.00  0.00    -0.276 OA
ENDBRANCH  18  25
ENDBRANCH   1  19
TORSDOF 3
