REMARK  Name = ZINC63473191
REMARK  6 active torsions:
REMARK  status: ('A' for Active; 'I' for Inactive)
REMARK    1  A    between atoms: C_1  and  C_2
REMARK    2  A    between atoms: C_5  and  C_8
REMARK    3  A    between atoms: C_14  and  C_19
REMARK    4  A    between atoms: C_22  and  C_25
REMARK    5  A    between atoms: C_25  and  C_26
REMARK    6  A    between atoms: C_25  and  C_27
REMARK                            x       y       z     vdW  Elec       q    Type
REMARK                         _______ _______ _______ _____ _____    ______ ____
ROOT
ATOM      1  C   UNL     1      -0.277  -4.587   0.161  0.00  0.00    +0.082 C 
ATOM      2  N   UNL     1      -0.337  -5.437  -0.846  0.00  0.00    -0.153 NA
ATOM      3  N   UNL     1       0.001  -6.632  -0.527  0.00  0.00    -0.148 NA
ATOM      4  C   UNL     1       0.630  -6.702   0.598  0.00  0.00    +0.136 C 
ATOM      5  C   UNL     1       0.149  -5.432   1.335  0.00  0.00    +0.120 C 
ATOM      6  C   UNL     1       1.496  -4.989   1.941  0.00  0.00    +0.118 C 
ATOM      7  N   UNL     1       2.120  -6.283   2.303  0.00  0.00    -0.302 N 
ATOM      8  C   UNL     1       1.568  -7.274   1.561  0.00  0.00    +0.261 C 
ATOM      9  O   UNL     1       1.823  -8.459   1.672  0.00  0.00    -0.269 OA
ATOM     10  H   UNL     1       2.813  -6.404   2.971  0.00  0.00    +0.150 HD
ENDROOT
BRANCH   1  15
ATOM     11  C   UNL     1      -1.369   1.054   0.084  0.00  0.00    +0.044 C 
ATOM     12  C   UNL     1      -1.082  -0.426   0.104  0.00  0.00    -0.050 A 
ATOM     13  C   UNL     1      -0.738  -1.076  -1.069  0.00  0.00    +0.004 A 
ATOM     14  C   UNL     1      -0.475  -2.429  -1.060  0.00  0.00    +0.010 A 
ATOM     15  C   UNL     1      -0.555  -3.146   0.141  0.00  0.00    -0.001 A 
ATOM     16  C   UNL     1      -0.904  -2.480   1.323  0.00  0.00    +0.010 A 
ATOM     17  C   UNL     1      -1.159  -1.126   1.296  0.00  0.00    +0.004 A 
ENDBRANCH   1  15
BRANCH   6  18
ATOM     18  C   UNL     1       1.278  -4.134   3.162  0.00  0.00    -0.026 A 
ATOM     19  C   UNL     1       0.840  -4.709   4.340  0.00  0.00    +0.006 A 
ATOM     20  C   UNL     1       0.640  -3.925   5.460  0.00  0.00    +0.004 A 
ATOM     21  C   UNL     1       0.880  -2.564   5.403  0.00  0.00    -0.045 A 
ATOM     22  C   UNL     1       1.320  -1.989   4.226  0.00  0.00    +0.004 A 
ATOM     23  C   UNL     1       1.523  -2.775   3.106  0.00  0.00    +0.006 A 
BRANCH  21  24
ATOM     24  C   UNL     1       0.662  -1.709   6.624  0.00  0.00    +0.013 C 
ATOM     25  C   UNL     1       1.977  -1.030   7.013  0.00  0.00    +0.012 C 
ATOM     26  C   UNL     1      -0.391  -0.642   6.318  0.00  0.00    +0.012 C 
ENDBRANCH  21  24
ENDBRANCH   6  18
TORSDOF 3
