REMARK  Name = ZINC13330095
REMARK  7 active torsions:
REMARK  status: ('A' for Active; 'I' for Inactive)
REMARK    1  A    between atoms: C_1  and  C_2
REMARK    2  A    between atoms: C_2  and  O_3
REMARK    3  A    between atoms: O_3  and  C_4
REMARK    4  A    between atoms: C_9  and  N_10
REMARK    5  A    between atoms: N_13  and  C_14
REMARK    6  A    between atoms: C_14  and  C_16
REMARK    7  A    between atoms: C_14  and  C_17
REMARK                            x       y       z     vdW  Elec       q    Type
REMARK                         _______ _______ _______ _____ _____    ______ ____
ROOT
ATOM      1  N   UNL     1      -1.191  -0.725  -0.003  0.00  0.00    -0.266 N 
ATOM      2  C   UNL     1      -1.178  -2.069  -0.106  0.00  0.00    +0.304 C 
ATOM      3  O   UNL     1      -0.119  -2.668  -0.113  0.00  0.00    -0.252 OA
ATOM      4  N   UNL     1      -2.337  -2.749  -0.201  0.00  0.00    -0.293 N 
ATOM      5  H   UNL     1      -2.034  -0.254   0.086  0.00  0.00    +0.156 HD
ATOM      6  H   UNL     1      -3.182  -2.271  -0.196  0.00  0.00    +0.151 HD
ENDROOT
BRANCH   1  12
ATOM      7  C   UNL     1       0.090   1.247   0.572  0.00  0.00    +0.142 A 
ATOM      8  C   UNL     1       1.283   1.951   0.546  0.00  0.00    +0.047 A 
ATOM      9  C   UNL     1       2.394   1.407  -0.070  0.00  0.00    +0.004 A 
ATOM     10  C   UNL     1       2.319   0.160  -0.662  0.00  0.00    +0.002 A 
ATOM     11  C   UNL     1       1.133  -0.549  -0.642  0.00  0.00    +0.027 A 
ATOM     12  C   UNL     1       0.014  -0.009  -0.025  0.00  0.00    +0.077 A 
BRANCH   7  13
ATOM     13  O   UNL     1      -1.005   1.784   1.173  0.00  0.00    -0.490 OA
BRANCH  13  15
ATOM     14  C   UNL     1      -2.181   3.512   2.386  0.00  0.00    +0.048 C 
ATOM     15  C   UNL     1      -0.853   3.076   1.764  0.00  0.00    +0.226 C 
ENDBRANCH  13  15
ENDBRANCH   7  13
ENDBRANCH   1  12
BRANCH   4  16
ATOM     16  C   UNL     1      -2.323  -4.210  -0.313  0.00  0.00    +0.103 C 
ATOM     17  C   UNL     1      -2.369  -4.829   1.085  0.00  0.00    +0.033 C 
BRANCH  16  18
ATOM     18  C   UNL     1      -3.523  -4.665  -1.104  0.00  0.00    -0.009 A 
ATOM     19  C   UNL     1      -4.660  -3.881  -1.146  0.00  0.00    +0.008 A 
ATOM     20  C   UNL     1      -5.759  -4.295  -1.876  0.00  0.00    +0.020 A 
ATOM     21  C   UNL     1      -5.725  -5.500  -2.555  0.00  0.00    +0.042 A 
ATOM     22  C   UNL     1      -4.589  -6.288  -2.507  0.00  0.00    +0.040 A 
ATOM     23  C   UNL     1      -3.487  -5.870  -1.782  0.00  0.00    +0.047 A 
ATOM     24 CL   UNL     1      -2.062  -6.859  -1.722  0.00  0.00    -0.083 Cl
ATOM     25 CL   UNL     1      -7.107  -6.023  -3.465  0.00  0.00    -0.083 Cl
ENDBRANCH  16  18
ENDBRANCH   4  16
TORSDOF 5
