REMARK  Name = ZINC36725285
REMARK  7 active torsions:
REMARK  status: ('A' for Active; 'I' for Inactive)
REMARK    1  A    between atoms: C_1  and  C_2
REMARK    2  A    between atoms: C_5  and  N_9
REMARK    3  A    between atoms: C_10  and  C_12
REMARK    4  A    between atoms: C_12  and  N_13
REMARK    5  A    between atoms: C_18  and  C_25
REMARK    6  A    between atoms: C_21  and  C_23
REMARK    7  A    between atoms: C_21  and  C_24
REMARK                            x       y       z     vdW  Elec       q    Type
REMARK                         _______ _______ _______ _____ _____    ______ ____
ROOT
ATOM      1  N   UNL     1      -0.275  -7.438  -2.576  0.00  0.00    -0.215 N 
ATOM      2  C   UNL     1      -1.432  -7.516  -3.265  0.00  0.00    +0.247 C 
ATOM      3  O   UNL     1      -2.555  -7.364  -2.833  0.00  0.00    -0.273 OA
ATOM      4  C   UNL     1      -1.034  -7.831  -4.689  0.00  0.00    +0.113 C 
ATOM      5  C   UNL     1      -1.621  -9.170  -5.121  0.00  0.00    +0.038 C 
ATOM      6  C   UNL     1      -1.181  -9.484  -6.553  0.00  0.00    -0.011 C 
ATOM      7  C   UNL     1      -1.661  -8.371  -7.488  0.00  0.00    +0.009 C 
ATOM      8  C   UNL     1      -1.046  -7.039  -7.056  0.00  0.00    -0.032 C 
ATOM      9  C   UNL     1      -1.485  -6.716  -5.626  0.00  0.00    +0.041 C 
ATOM     10  C   UNL     1      -1.517  -5.930  -7.998  0.00  0.00    +0.011 C 
ATOM     11  C   UNL     1       0.480  -7.141  -7.111  0.00  0.00    +0.011 C 
ATOM     12  C   UNL     1      -1.789 -10.817  -6.993  0.00  0.00    +0.007 C 
ATOM     13  N   UNL     1       0.432  -7.902  -4.642  0.00  0.00    -0.285 N 
ATOM     14  C   UNL     1       0.784  -7.654  -3.366  0.00  0.00    +0.310 C 
ATOM     15  O   UNL     1       1.935  -7.632  -2.974  0.00  0.00    -0.252 OA
ATOM     16  H   UNL     1       1.028  -8.089  -5.383  0.00  0.00    +0.151 HD
ENDROOT
BRANCH   1  17
ATOM     17  C   UNL     1      -0.188  -7.148  -1.143  0.00  0.00    +0.214 C 
BRANCH  17  19
ATOM     18  N   UNL     1       0.004  -5.154   0.309  0.00  0.00    -0.283 N 
ATOM     19  C   UNL     1      -0.087  -5.658  -0.937  0.00  0.00    +0.235 C 
ATOM     20  O   UNL     1      -0.088  -4.913  -1.894  0.00  0.00    -0.274 OA
ATOM     21  H   UNL     1       0.085  -5.752   1.069  0.00  0.00    +0.155 HD
BRANCH  18  26
ATOM     22  C   UNL     1      -0.093   0.462   1.114  0.00  0.00    +0.044 C 
ATOM     23  C   UNL     1      -0.067  -1.030   0.901  0.00  0.00    -0.049 A 
ATOM     24  C   UNL     1      -0.554  -1.567  -0.277  0.00  0.00    +0.005 A 
ATOM     25  C   UNL     1      -0.532  -2.934  -0.476  0.00  0.00    +0.025 A 
ATOM     26  C   UNL     1      -0.019  -3.769   0.508  0.00  0.00    +0.052 A 
ATOM     27  C   UNL     1       0.470  -3.227   1.690  0.00  0.00    +0.062 A 
ATOM     28  C   UNL     1       0.449  -1.858   1.881  0.00  0.00    +0.025 A 
ATOM     29 CL   UNL     1       1.111  -4.267   2.923  0.00  0.00    -0.082 Cl
ENDBRANCH  18  26
ENDBRANCH  17  19
ENDBRANCH   1  17
TORSDOF 3
