REMARK  Name = ZINC08820111
REMARK  13 active torsions:
REMARK  status: ('A' for Active; 'I' for Inactive)
REMARK    1  A    between atoms: C_1  and  C_2
REMARK    2  A    between atoms: C_5  and  C_8
REMARK    3  A    between atoms: N_10  and  N_11
REMARK    4  A    between atoms: C_12  and  C_14
REMARK    5  A    between atoms: C_14  and  C_15
REMARK    6  A    between atoms: C_15  and  C_16
REMARK    7  A    between atoms: C_16  and  C_17
REMARK    8  A    between atoms: C_17  and  C_18
REMARK    9  A    between atoms: C_18  and  N_19
REMARK   10  A    between atoms: C_23  and  C_24
REMARK   11  A    between atoms: C_27  and  C_30
REMARK   12  A    between atoms: C_30  and  O_32
REMARK   13  A    between atoms: O_32  and  C_33
REMARK                            x       y       z     vdW  Elec       q    Type
REMARK                         _______ _______ _______ _____ _____    ______ ____
ROOT
ATOM      1  C   UNL     1       6.133  -9.784  -0.200  0.00  0.00    +0.019 C 
ENDROOT
BRANCH   1   2
ATOM      2  C   UNL     1       4.646  -9.434  -0.124  0.00  0.00    +0.002 C 
BRANCH   2   3
ATOM      3  C   UNL     1       4.453  -7.951  -0.447  0.00  0.00    +0.009 C 
BRANCH   3   4
ATOM      4  C   UNL     1       2.966  -7.601  -0.371  0.00  0.00    +0.097 C 
BRANCH   4   6
ATOM      5  N   UNL     1       1.540  -5.604  -0.682  0.00  0.00    -0.234 N 
ATOM      6  C   UNL     1       2.776  -6.140  -0.689  0.00  0.00    +0.229 C 
ATOM      7  O   UNL     1       3.736  -5.447  -0.950  0.00  0.00    -0.274 OA
ATOM      8  H   UNL     1       0.772  -6.158  -0.474  0.00  0.00    +0.173 HD
BRANCH   5  11
ATOM      9  C   UNL     1       0.127  -3.710  -0.971  0.00  0.00    +0.260 C 
ATOM     10  O   UNL     1      -0.835  -4.404  -0.710  0.00  0.00    -0.269 OA
ATOM     11  N   UNL     1       1.364  -4.246  -0.978  0.00  0.00    -0.230 N 
ATOM     12  H   UNL     1       2.132  -3.691  -1.186  0.00  0.00    +0.173 HD
BRANCH   9  17
ATOM     13  C   UNL     1      -0.596   1.869  -2.183  0.00  0.00    +0.044 C 
ATOM     14  C   UNL     1      -0.407   0.409  -1.865  0.00  0.00    -0.050 A 
ATOM     15  C   UNL     1      -1.504  -0.380  -1.568  0.00  0.00    +0.004 A 
ATOM     16  C   UNL     1      -1.338  -1.718  -1.277  0.00  0.00    +0.013 A 
ATOM     17  C   UNL     1      -0.059  -2.276  -1.283  0.00  0.00    +0.038 A 
ATOM     18  C   UNL     1       1.044  -1.476  -1.583  0.00  0.00    +0.013 A 
ATOM     19  C   UNL     1       0.864  -0.139  -1.872  0.00  0.00    +0.004 A 
ENDBRANCH   9  17
ENDBRANCH   5  11
ENDBRANCH   4   6
ENDBRANCH   3   4
ENDBRANCH   2   3
ENDBRANCH   1   2
BRANCH   1  20
ATOM     20  C   UNL     1       6.325 -11.267   0.122  0.00  0.00    +0.115 C 
BRANCH  20  21
ATOM     21  N   UNL     1       7.750 -11.602   0.050  0.00  0.00    -0.255 N 
ATOM     22  C   UNL     1       8.495 -11.491   1.137  0.00  0.00    +0.258 C 
ATOM     23  O   UNL     1       8.030 -11.118   2.197  0.00  0.00    -0.269 OA
ATOM     24  C   UNL     1       9.927 -11.845   0.995  0.00  0.00    +0.077 C 
ATOM     25  C   UNL     1      10.917 -11.829   1.922  0.00  0.00    +0.028 C 
ATOM     26  S   UNL     1       9.989 -12.298  -0.733  0.00  0.00    -0.061 S 
ATOM     27  C   UNL     1       8.269 -12.021  -1.122  0.00  0.00    +0.121 C 
ATOM     28  S   UNL     1       7.471 -12.233  -2.622  0.00  0.00    -0.027 S 
BRANCH  25  29
ATOM     29  C   UNL     1      12.237 -12.385   1.595  0.00  0.00    -0.024 A 
ATOM     30  C   UNL     1      12.424 -13.094   0.402  0.00  0.00    +0.009 A 
ATOM     31  C   UNL     1      13.653 -13.605   0.097  0.00  0.00    +0.015 A 
ATOM     32  C   UNL     1      14.722 -13.430   0.981  0.00  0.00    +0.059 A 
ATOM     33  C   UNL     1      14.536 -12.727   2.175  0.00  0.00    +0.015 A 
ATOM     34  C   UNL     1      13.309 -12.210   2.479  0.00  0.00    +0.009 A 
BRANCH  32  35
ATOM     35  C   UNL     1      16.049 -13.988   0.652  0.00  0.00    +0.339 C 
ATOM     36  O   UNL     1      16.979 -13.836   1.419  0.00  0.00    -0.245 OA
BRANCH  35  37
ATOM     37  O   UNL     1      16.229 -14.666  -0.498  0.00  0.00    -0.464 OA
ATOM     38  C   UNL     1      17.560 -15.186  -0.756  0.00  0.00    +0.280 C 
ENDBRANCH  35  37
ENDBRANCH  32  35
ENDBRANCH  25  29
ENDBRANCH  20  21
ENDBRANCH   1  20
TORSDOF 11
