REMARK  Name = ZINC63383738
REMARK  6 active torsions:
REMARK  status: ('A' for Active; 'I' for Inactive)
REMARK    1  A    between atoms: C_1  and  O_2
REMARK    2  A    between atoms: O_2  and  C_3
REMARK    3  A    between atoms: C_3  and  C_4
REMARK    4  A    between atoms: C_4  and  N_5
REMARK    5  A    between atoms: C_10  and  C_28
REMARK    6  A    between atoms: C_28  and  C_29
REMARK                            x       y       z     vdW  Elec       q    Type
REMARK                         _______ _______ _______ _____ _____    ______ ____
ROOT
ATOM      1  N   UNL     1       1.401  -2.532  -0.162  0.00  0.00    -0.239 N 
ATOM      2  C   UNL     1       0.862  -2.673  -1.410  0.00  0.00    +0.227 C 
ATOM      3  O   UNL     1      -0.194  -2.228  -1.805  0.00  0.00    -0.275 OA
ATOM      4  C   UNL     1       1.851  -3.494  -2.191  0.00  0.00    +0.107 C 
ATOM      5  C   UNL     1       2.178  -3.097  -3.636  0.00  0.00    +0.072 C 
ATOM      6  N   UNL     1       3.631  -3.453  -3.755  0.00  0.00    -0.295 NA
ATOM      7  C   UNL     1       4.224  -3.366  -2.384  0.00  0.00    +0.136 C 
ATOM      8  C   UNL     1       3.141  -2.879  -1.514  0.00  0.00    +0.122 C 
ATOM      9  C   UNL     1       2.742  -2.824  -0.127  0.00  0.00    +0.228 C 
ATOM     10  O   UNL     1       3.437  -3.000   0.850  0.00  0.00    -0.275 OA
ATOM     11  C   UNL     1       4.752  -4.718  -1.980  0.00  0.00    +0.005 A 
ATOM     12  C   UNL     1       4.151  -5.939  -1.766  0.00  0.00    +0.008 A 
ATOM     13  C   UNL     1       4.914  -7.030  -1.390  0.00  0.00    +0.002 A 
ATOM     14  C   UNL     1       6.280  -6.891  -1.229  0.00  0.00    +0.022 A 
ATOM     15  C   UNL     1       6.887  -5.670  -1.442  0.00  0.00    +0.062 A 
ATOM     16  C   UNL     1       6.124  -4.566  -1.822  0.00  0.00    +0.057 A 
ATOM     17  N   UNL     1       6.499  -3.248  -2.093  0.00  0.00    -0.282 N 
ATOM     18  C   UNL     1       5.447  -2.481  -2.430  0.00  0.00    +0.243 C 
ATOM     19  O   UNL     1       5.475  -1.302  -2.717  0.00  0.00    -0.273 OA
ATOM     20 CL   UNL     1       8.603  -5.508  -1.238  0.00  0.00    -0.082 Cl
ATOM     21  H   UNL     1       3.746  -4.378  -4.140  0.00  0.00    +0.124 HD
ATOM     22  H   UNL     1       7.411  -2.924  -2.044  0.00  0.00    +0.155 HD
ENDROOT
BRANCH   1  23
ATOM     23  C   UNL     1       0.633  -2.108   1.011  0.00  0.00    +0.144 C 
BRANCH  23  24
ATOM     24  C   UNL     1       0.673  -0.582   1.123  0.00  0.00    +0.179 C 
BRANCH  24  26
ATOM     25  C   UNL     1      -0.017   1.425   0.010  0.00  0.00    +0.194 C 
ATOM     26  O   UNL     1       0.002  -0.004   0.002  0.00  0.00    -0.381 OA
ENDBRANCH  24  26
ENDBRANCH  23  24
ENDBRANCH   1  23
BRANCH   5  27
ATOM     27  C   UNL     1       1.335  -3.904  -4.625  0.00  0.00    +0.052 C 
BRANCH  27  28
ATOM     28  C   UNL     1       1.589  -3.406  -6.025  0.00  0.00    -0.040 C 
ATOM     29  C   UNL     1       2.465  -3.914  -6.921  0.00  0.00    -0.001 A 
ATOM     30  C   UNL     1       3.408  -5.038  -6.864  0.00  0.00    +0.010 A 
ATOM     31  C   UNL     1       4.171  -5.309  -7.947  0.00  0.00    +0.001 A 
ATOM     32  C   UNL     1       4.085  -4.546  -9.120  0.00  0.00    +0.002 A 
ATOM     33  C   UNL     1       3.243  -3.499  -9.248  0.00  0.00    +0.026 A 
ATOM     34  C   UNL     1       2.393  -3.124  -8.171  0.00  0.00    +0.043 A 
ATOM     35  N   UNL     1       1.507  -2.165  -8.052  0.00  0.00    -0.380 N 
ATOM     36  C   UNL     1       0.912  -2.242  -6.713  0.00  0.00    +0.144 C 
ATOM     37  H   UNL     1       1.280  -1.515  -8.736  0.00  0.00    +0.160 HD
ENDBRANCH  27  28
ENDBRANCH   5  27
TORSDOF 5
