REMARK  Name = ZINC44270391
REMARK  3 active torsions:
REMARK  status: ('A' for Active; 'I' for Inactive)
REMARK    1  A    between atoms: C_1  and  C_2
REMARK    2  A    between atoms: C_5  and  N_12
REMARK    3  A    between atoms: C_7  and  C_8
REMARK                            x       y       z     vdW  Elec       q    Type
REMARK                         _______ _______ _______ _____ _____    ______ ____
ROOT
ATOM      1  C   UNL     1      -0.018   1.503   0.010  0.00  0.00    +0.044 C 
ATOM      2  C   UNL     1       0.002  -0.004   0.002  0.00  0.00    -0.039 A 
ATOM      3  C   UNL     1       0.006  -0.688  -1.200  0.00  0.00    +0.006 A 
ATOM      4  C   UNL     1       0.024  -2.068  -1.211  0.00  0.00    +0.028 A 
ATOM      5  C   UNL     1       0.039  -2.771  -0.013  0.00  0.00    +0.070 A 
ATOM      6  C   UNL     1       0.036  -2.082   1.192  0.00  0.00    +0.040 A 
ATOM      7  C   UNL     1       0.023  -0.700   1.196  0.00  0.00    +0.060 A 
ENDROOT
BRANCH   5   8
ATOM      8  N   UNL     1       0.057  -4.173  -0.021  0.00  0.00    -0.187 N 
ATOM      9  C   UNL     1      -0.550  -5.000  -0.908  0.00  0.00    +0.225 A 
ATOM     10  N   UNL     1      -0.271  -6.232  -0.540  0.00  0.00    -0.100 NA
ATOM     11  N   UNL     1       0.466  -6.231   0.511  0.00  0.00    -0.022 NA
ATOM     12  N   UNL     1       0.714  -5.023   0.886  0.00  0.00    -0.038 NA
ATOM     13  S   UNL     1      -1.529  -4.516  -2.292  0.00  0.00    -0.007 SA
ENDBRANCH   5   8
BRANCH   7  14
ATOM     14  C   UNL     1       0.026   0.048   2.504  0.00  0.00    +0.418 C 
ATOM     15  F   UNL     1       0.048  -0.865   3.564  0.00  0.00    -0.166 F 
ATOM     16  F   UNL     1       1.158   0.868   2.570  0.00  0.00    -0.166 F 
ATOM     17  F   UNL     1      -1.127   0.837   2.592  0.00  0.00    -0.166 F 
ENDBRANCH   7  14
TORSDOF 2
