REMARK  Name = ZINC23970374
REMARK  11 active torsions:
REMARK  status: ('A' for Active; 'I' for Inactive)
REMARK    1  A    between atoms: C_1  and  C_2
REMARK    2  A    between atoms: C_8  and  N_10
REMARK    3  A    between atoms: C_14  and  C_16
REMARK    4  A    between atoms: C_16  and  S_17
REMARK    5  A    between atoms: S_17  and  C_18
REMARK    6  A    between atoms: C_21  and  C_30
REMARK    7  A    between atoms: N_22  and  C_23
REMARK    8  A    between atoms: C_30  and  C_32
REMARK    9  A    between atoms: C_30  and  N_33
REMARK   10  A    between atoms: N_33  and  C_34
REMARK   11  A    between atoms: N_33  and  C_35
REMARK                            x       y       z     vdW  Elec       q    Type
REMARK                         _______ _______ _______ _____ _____    ______ ____
ROOT
ATOM      1  C   UNL     1      -1.927   1.679   3.060  0.00  0.00    +0.197 A 
ATOM      2  N   UNL     1      -1.401   2.852   2.796  0.00  0.00    -0.122 NA
ATOM      3  N   UNL     1      -0.690   2.783   1.728  0.00  0.00    -0.135 NA
ATOM      4  C   UNL     1      -0.718   1.572   1.248  0.00  0.00    +0.125 A 
ATOM      5  N   UNL     1      -1.512   0.824   2.076  0.00  0.00    -0.275 N 
ENDROOT
BRANCH   5   6
ATOM      6  C   UNL     1      -1.831  -0.536   1.944  0.00  0.00    +0.050 A 
ATOM      7  C   UNL     1      -2.583  -0.972   0.862  0.00  0.00    +0.028 A 
ATOM      8  C   UNL     1      -2.892  -2.312   0.732  0.00  0.00    +0.022 A 
ATOM      9  C   UNL     1      -2.461  -3.218   1.685  0.00  0.00    +0.041 A 
ATOM     10  C   UNL     1      -1.715  -2.785   2.768  0.00  0.00    +0.022 A 
ATOM     11  C   UNL     1      -1.400  -1.447   2.899  0.00  0.00    +0.028 A 
ATOM     12 CL   UNL     1      -2.856  -4.901   1.523  0.00  0.00    -0.084 Cl
ENDBRANCH   5   6
BRANCH   4  13
ATOM     13  C   UNL     1      -0.013   1.086   0.008  0.00  0.00    -0.003 C 
ATOM     14  C   UNL     1      -0.753   1.593  -1.232  0.00  0.00    -0.005 C 
BRANCH  13  15
ATOM     15  N   UNL     1       1.365   1.594  -0.002  0.00  0.00    +0.382 N 
ATOM     16  C   UNL     1       2.121   1.045  -1.136  0.00  0.00    -0.096 C 
ATOM     17  C   UNL     1       1.385   3.063  -0.020  0.00  0.00    -0.096 C 
ATOM     18  H   UNL     1       1.856   1.261   0.924  0.00  0.00    -0.082 HD
ENDBRANCH  13  15
ENDBRANCH   4  13
BRANCH   1  19
ATOM     19  S   UNL     1      -2.976   1.282   4.419  0.00  0.00    -0.076 S 
BRANCH  19  20
ATOM     20  C   UNL     1      -3.059   2.896   5.234  0.00  0.00    +0.173 C 
BRANCH  20  25
ATOM     21  N   UNL     1      -5.122   4.880   9.096  0.00  0.00    -0.296 N 
ATOM     22  C   UNL     1      -4.915   3.793   8.327  0.00  0.00    +0.306 C 
ATOM     23  O   UNL     1      -5.429   2.732   8.622  0.00  0.00    -0.252 OA
ATOM     24  N   UNL     1      -4.137   3.882   7.230  0.00  0.00    -0.239 N 
ATOM     25  C   UNL     1      -3.929   2.796   6.460  0.00  0.00    +0.231 C 
ATOM     26  O   UNL     1      -4.442   1.738   6.754  0.00  0.00    -0.274 OA
ATOM     27  H   UNL     1      -4.657   5.840   8.829  0.00  0.00    +0.151 HD
ATOM     28  H   UNL     1      -3.671   4.843   6.963  0.00  0.00    +0.159 HD
BRANCH  21  35
ATOM     29  C   UNL     1      -7.386   6.654   9.436  0.00  0.00    +0.009 C 
ATOM     30  C   UNL     1      -6.548   6.159  10.617  0.00  0.00    +0.006 C 
ATOM     31  C   UNL     1      -5.407   7.144  10.880  0.00  0.00    +0.005 C 
ATOM     32  C   UNL     1      -4.569   6.649  12.061  0.00  0.00    +0.000 C 
ATOM     33  C   UNL     1      -3.989   5.271  11.733  0.00  0.00    +0.002 C 
ATOM     34  C   UNL     1      -5.130   4.287  11.469  0.00  0.00    +0.022 C 
ATOM     35  C   UNL     1      -5.968   4.782  10.289  0.00  0.00    +0.077 C 
ENDBRANCH  21  35
ENDBRANCH  20  25
ENDBRANCH  19  20
ENDBRANCH   1  19
TORSDOF 7
