REMARK  Name = ZINC01811015
REMARK  11 active torsions:
REMARK  status: ('A' for Active; 'I' for Inactive)
REMARK    1  A    between atoms: C_1  and  C_2
REMARK    2  A    between atoms: C_6  and  O_8
REMARK    3  A    between atoms: O_8  and  C_9
REMARK    4  A    between atoms: C_15  and  O_24
REMARK    5  A    between atoms: C_19  and  C_20
REMARK    6  A    between atoms: O_24  and  C_25
REMARK    7  A    between atoms: C_25  and  C_26
REMARK    8  A    between atoms: C_26  and  C_28
REMARK    9  A    between atoms: C_26  and  O_35
REMARK   10  A    between atoms: C_28  and  N_63
REMARK   11  A    between atoms: C_31  and  C_34
REMARK                            x       y       z     vdW  Elec       q    Type
REMARK                         _______ _______ _______ _____ _____    ______ ____
ROOT
ATOM      1  C   UNL     1      -2.812   1.690   0.176  0.00  0.00    +0.222 A 
ATOM      2  C   UNL     1      -3.531   1.522   1.394  0.00  0.00    +0.235 A 
ATOM      3  O   UNL     1      -3.072   1.897   2.459  0.00  0.00    -0.283 OA
ATOM      4  C   UNL     1      -4.853   0.877   1.312  0.00  0.00    +0.068 A 
ATOM      5  C   UNL     1      -5.633   0.670   2.451  0.00  0.00    +0.019 A 
ATOM      6  C   UNL     1      -6.853   0.069   2.336  0.00  0.00    +0.046 A 
ATOM      7  C   UNL     1      -7.323  -0.338   1.089  0.00  0.00    +0.124 A 
ATOM      8  C   UNL     1      -6.562  -0.140  -0.050  0.00  0.00    +0.092 A 
ATOM      9  C   UNL     1      -5.319   0.470   0.050  0.00  0.00    +0.143 A 
ATOM     10  O   UNL     1      -4.558   0.676  -1.044  0.00  0.00    -0.447 OA
ATOM     11  C   UNL     1      -3.357   1.266  -0.982  0.00  0.00    +0.254 A 
ENDROOT
BRANCH  11  12
ATOM     12  C   UNL     1      -2.580   1.458  -2.259  0.00  0.00    +0.454 C 
ATOM     13  F   UNL     1      -1.774   0.338  -2.488  0.00  0.00    -0.163 F 
ATOM     14  F   UNL     1      -3.470   1.619  -3.326  0.00  0.00    -0.163 F 
ATOM     15  F   UNL     1      -1.775   2.597  -2.147  0.00  0.00    -0.163 F 
ENDBRANCH  11  12
BRANCH   1  16
ATOM     16  O   UNL     1      -1.585   2.279   0.180  0.00  0.00    -0.448 OA
BRANCH  16  22
ATOM     17  C   UNL     1       3.263   1.828   0.523  0.00  0.00    +0.044 C 
ATOM     18  C   UNL     1       1.882   1.226   0.511  0.00  0.00    -0.047 A 
ATOM     19  C   UNL     1       1.722  -0.140   0.661  0.00  0.00    +0.003 A 
ATOM     20  C   UNL     1       0.457  -0.696   0.650  0.00  0.00    +0.004 A 
ATOM     21  C   UNL     1      -0.652   0.111   0.484  0.00  0.00    +0.046 A 
ATOM     22  C   UNL     1      -0.495   1.482   0.339  0.00  0.00    +0.129 A 
ATOM     23  C   UNL     1       0.776   2.038   0.350  0.00  0.00    +0.049 A 
ENDBRANCH  16  22
ENDBRANCH   1  16
BRANCH   7  24
ATOM     24  O   UNL     1      -8.539  -0.935   0.991  0.00  0.00    -0.489 OA
BRANCH  24  25
ATOM     25  C   UNL     1      -9.275  -1.111   2.202  0.00  0.00    +0.258 C 
BRANCH  25  26
ATOM     26  C   UNL     1     -10.608  -1.796   1.894  0.00  0.00    +0.135 C 
BRANCH  26  27
ATOM     27  O   UNL     1     -10.364  -3.116   1.405  0.00  0.00    -0.390 OA
ATOM     28  H   UNL     1      -9.889  -3.684   2.026  0.00  0.00    +0.210 HD
ENDBRANCH  26  27
BRANCH  26  29
ATOM     29  C   UNL     1     -11.450  -1.872   3.170  0.00  0.00    -0.044 C 
BRANCH  29  36
ATOM     30  C   UNL     1     -13.450  -2.854   4.115  0.00  0.00    -0.078 C 
ATOM     31  C   UNL     1     -14.696  -3.678   3.782  0.00  0.00    -0.016 C 
ATOM     32  C   UNL     1     -15.591  -2.880   2.829  0.00  0.00    -0.018 C 
ATOM     33  C   UNL     1     -14.794  -2.528   1.570  0.00  0.00    -0.016 C 
ATOM     34  C   UNL     1     -13.546  -1.737   1.966  0.00  0.00    -0.078 C 
ATOM     35  C   UNL     1     -16.808  -3.723   2.445  0.00  0.00    +0.007 C 
ATOM     36  N   UNL     1     -12.716  -2.569   2.864  0.00  0.00    +0.381 N 
ATOM     37  H   UNL     1     -12.503  -3.456   2.393  0.00  0.00    -0.082 HD
ENDBRANCH  29  36
ENDBRANCH  26  29
ENDBRANCH  25  26
ENDBRANCH  24  25
ENDBRANCH   7  24
TORSDOF 9
