REMARK  Name = ZINC00407529
REMARK  5 active torsions:
REMARK  status: ('A' for Active; 'I' for Inactive)
REMARK    1  A    between atoms: C_1  and  C_2
REMARK    2  A    between atoms: C_2  and  C_3
REMARK    3  A    between atoms: C_2  and  C_4
REMARK    4  A    between atoms: C_2  and  C_5
REMARK    5  A    between atoms: C_8  and  C_14
REMARK                            x       y       z     vdW  Elec       q    Type
REMARK                         _______ _______ _______ _____ _____    ______ ____
ROOT
ATOM      1  C   UNL     1      -0.676   1.731   2.729  0.00  0.00    +0.230 C 
ATOM      2  O   UNL     1       0.096   1.082   3.401  0.00  0.00    -0.274 OA
ATOM      3  N   UNL     1      -1.506   2.613   3.320  0.00  0.00    -0.196 N 
ATOM      4  C   UNL     1      -1.656   2.808   4.770  0.00  0.00    +0.155 C 
ATOM      5  C   UNL     1      -2.717   3.920   4.883  0.00  0.00    +0.261 C 
ATOM      6  O   UNL     1      -3.050   4.231   3.499  0.00  0.00    -0.448 OA
ATOM      7  C   UNL     1      -2.325   3.460   2.682  0.00  0.00    +0.410 C 
ATOM      8  O   UNL     1      -2.405   3.520   1.471  0.00  0.00    -0.226 OA
ENDROOT
BRANCH   4   9
ATOM      9  C   UNL     1      -0.353   3.255   5.381  0.00  0.00    -0.023 A 
ATOM     10  C   UNL     1       0.448   4.163   4.714  0.00  0.00    +0.005 A 
ATOM     11  C   UNL     1       1.641   4.577   5.277  0.00  0.00    +0.000 A 
ATOM     12  C   UNL     1       2.037   4.076   6.503  0.00  0.00    +0.000 A 
ATOM     13  C   UNL     1       1.239   3.164   7.167  0.00  0.00    +0.000 A 
ATOM     14  C   UNL     1       0.044   2.754   6.607  0.00  0.00    +0.005 A 
ENDBRANCH   4   9
BRANCH   1  16
ATOM     15  C   UNL     1       0.308   0.483   0.825  0.00  0.00    +0.020 C 
ATOM     16  C   UNL     1      -0.708   1.552   1.233  0.00  0.00    +0.039 C 
ATOM     17  C   UNL     1      -0.355   2.876   0.553  0.00  0.00    +0.020 C 
ATOM     18  C   UNL     1      -2.109   1.114   0.801  0.00  0.00    +0.020 C 
ENDBRANCH   1  16
TORSDOF 2
