REMARK  Name = ZINC20082644
REMARK  10 active torsions:
REMARK  status: ('A' for Active; 'I' for Inactive)
REMARK    1  A    between atoms: C_1  and  C_2
REMARK    2  A    between atoms: C_7  and  C_14
REMARK    3  A    between atoms: C_14  and  C_16
REMARK    4  A    between atoms: C_14  and  N_26
REMARK    5  A    between atoms: N_20  and  C_21
REMARK    6  A    between atoms: N_26  and  C_27
REMARK    7  A    between atoms: N_26  and  C_35
REMARK    8  A    between atoms: C_27  and  C_28
REMARK    9  A    between atoms: C_28  and  C_29
REMARK   10  A    between atoms: C_35  and  C_36
REMARK                            x       y       z     vdW  Elec       q    Type
REMARK                         _______ _______ _______ _____ _____    ______ ____
ROOT
ATOM      1  C   UNL     1       1.480  -2.020  -0.783  0.00  0.00    +0.163 C 
ENDROOT
BRANCH   1   8
ATOM      2  C   UNL     1       3.058   5.360  -3.364  0.00  0.00    +0.044 C 
ATOM      3  C   UNL     1       2.990   3.930  -2.894  0.00  0.00    -0.048 A 
ATOM      4  C   UNL     1       4.155   3.180  -2.805  0.00  0.00    +0.004 A 
ATOM      5  C   UNL     1       4.115   1.882  -2.382  0.00  0.00    +0.010 A 
ATOM      6  C   UNL     1       2.890   1.303  -2.034  0.00  0.00    -0.001 A 
ATOM      7  C   UNL     1       2.811  -0.086  -1.578  0.00  0.00    +0.021 A 
ATOM      8  C   UNL     1       1.596  -0.594  -1.256  0.00  0.00    +0.042 A 
ATOM      9  C   UNL     1       0.440   0.208  -1.362  0.00  0.00    +0.254 A 
ATOM     10  O   UNL     1      -0.643  -0.268  -1.067  0.00  0.00    -0.268 OA
ATOM     11  N   UNL     1       0.502   1.485  -1.781  0.00  0.00    -0.322 N 
ATOM     12  H   UNL     1      -0.416   2.086  -1.853  0.00  0.00    +0.169 HD
ATOM     13  C   UNL     1       1.707   2.060  -2.123  0.00  0.00    +0.049 A 
ATOM     14  C   UNL     1       1.772   3.380  -2.557  0.00  0.00    +0.029 A 
ENDBRANCH   1   8
BRANCH   1  15
ATOM     15  C   UNL     1       0.710  -2.825  -1.798  0.00  0.00    +0.173 A 
ATOM     16  N   UNL     1      -0.591  -2.979  -1.851  0.00  0.00    -0.111 NA
ATOM     17  N   UNL     1      -0.861  -3.733  -2.860  0.00  0.00    -0.023 NA
ATOM     18  N   UNL     1       0.234  -4.070  -3.448  0.00  0.00    -0.044 NA
ATOM     19  N   UNL     1       1.225  -3.530  -2.822  0.00  0.00    -0.224 N 
BRANCH  19  20
ATOM     20  C   UNL     1       2.643  -3.659  -3.163  0.00  0.00    +0.111 C 
ATOM     21  C   UNL     1       2.901  -3.098  -4.576  0.00  0.00    +0.027 C 
ATOM     22  C   UNL     1       3.966  -4.051  -5.175  0.00  0.00    +0.002 C 
ATOM     23  C   UNL     1       3.529  -5.435  -4.635  0.00  0.00    +0.002 C 
ATOM     24  C   UNL     1       3.043  -5.145  -3.200  0.00  0.00    +0.027 C 
ENDBRANCH  19  20
ENDBRANCH   1  15
BRANCH   1  25
ATOM     25  N   UNL     1       0.774  -2.052   0.505  0.00  0.00    -0.284 NA
BRANCH  25  26
ATOM     26  C   UNL     1       1.456  -1.214   1.501  0.00  0.00    +0.090 C 
BRANCH  26  27
ATOM     27  C   UNL     1       0.545  -1.020   2.714  0.00  0.00    +0.050 C 
BRANCH  27  28
ATOM     28  C   UNL     1       1.187  -0.052   3.674  0.00  0.00    -0.046 A 
ATOM     29  C   UNL     1       2.021  -0.519   4.673  0.00  0.00    +0.003 A 
ATOM     30  C   UNL     1       2.613   0.369   5.551  0.00  0.00    +0.000 A 
ATOM     31  C   UNL     1       2.364   1.724   5.436  0.00  0.00    +0.000 A 
ATOM     32  C   UNL     1       1.526   2.191   4.441  0.00  0.00    +0.000 A 
ATOM     33  C   UNL     1       0.937   1.303   3.560  0.00  0.00    +0.003 A 
ENDBRANCH  27  28
ENDBRANCH  26  27
ENDBRANCH  25  26
BRANCH  25  34
ATOM     34  C   UNL     1       0.626  -3.431   0.990  0.00  0.00    +0.127 C 
BRANCH  34  35
ATOM     35  C   UNL     1       1.986  -4.007   1.288  0.00  0.00    +0.004 A 
ATOM     36  C   UNL     1       2.687  -3.983   2.448  0.00  0.00    +0.012 A 
ATOM     37  C   UNL     1       3.931  -4.585   2.491  0.00  0.00    +0.008 A 
ATOM     38  C   UNL     1       4.413  -5.181   1.373  0.00  0.00    +0.045 A 
ATOM     39  S   UNL     1       3.088  -4.905   0.208  0.00  0.00    -0.100 S 
ENDBRANCH  34  35
ENDBRANCH  25  34
ENDBRANCH   1  25
TORSDOF 9
