REMARK  Name = ZINC39834313
REMARK  5 active torsions:
REMARK  status: ('A' for Active; 'I' for Inactive)
REMARK    1  A    between atoms: C_1  and  C_2
REMARK    2  A    between atoms: C_2  and  C_34
REMARK    3  A    between atoms: N_7  and  N_8
REMARK    4  A    between atoms: C_9  and  C_11
REMARK    5  A    between atoms: C_28  and  C_30
REMARK                            x       y       z     vdW  Elec       q    Type
REMARK                         _______ _______ _______ _____ _____    ______ ____
ROOT
ATOM      1  C   UNL     1       0.287   1.174  -0.122  0.00  0.00    +0.011 C 
ATOM      2  C   UNL     1       0.477  -0.339   0.005  0.00  0.00    -0.024 C 
ATOM      3  C   UNL     1      -0.879  -1.031  -0.098  0.00  0.00    +0.062 C 
ATOM      4  C   UNL     1      -1.772  -0.660   1.054  0.00  0.00    +0.051 C 
ATOM      5  C   UNL     1      -1.229  -0.233   2.267  0.00  0.00    +0.025 C 
ATOM      6  C   UNL     1       0.221  -0.079   2.435  0.00  0.00    +0.069 C 
ATOM      7  N   UNL     1       0.718   0.535   3.467  0.00  0.00    -0.184 NA
ATOM      8  C   UNL     1       1.119  -0.662   1.361  0.00  0.00    +0.064 C 
ATOM      9  C   UNL     1      -2.143   0.009   3.302  0.00  0.00    +0.000 C 
ATOM     10  C   UNL     1      -2.160   0.800   4.411  0.00  0.00    +0.004 A 
ATOM     11  C   UNL     1      -1.141   1.528   5.073  0.00  0.00    +0.010 A 
ATOM     12  C   UNL     1      -1.515   2.271   6.153  0.00  0.00    +0.001 A 
ATOM     13  C   UNL     1      -2.827   2.339   6.619  0.00  0.00    +0.002 A 
ATOM     14  C   UNL     1      -3.861   1.655   6.054  0.00  0.00    +0.026 A 
ATOM     15  C   UNL     1      -3.554   0.836   4.933  0.00  0.00    +0.044 A 
ATOM     16  N   UNL     1      -4.327   0.035   4.242  0.00  0.00    -0.372 N 
ATOM     17  C   UNL     1      -3.504  -0.683   3.285  0.00  0.00    +0.165 C 
ATOM     18  C   UNL     1      -3.975  -0.671   1.863  0.00  0.00    +0.148 C 
ATOM     19  N   UNL     1      -3.105  -0.686   0.896  0.00  0.00    -0.249 NA
ATOM     20  C   UNL     1       1.387  -0.835  -1.121  0.00  0.00    +0.011 C 
ATOM     21  H   UNL     1      -5.286  -0.062   4.350  0.00  0.00    +0.161 HD
ENDROOT
BRANCH   7  22
ATOM     22  N   UNL     1       0.473   0.046   4.757  0.00  0.00    -0.203 N 
ATOM     23  C   UNL     1       1.099   0.596   5.816  0.00  0.00    +0.263 C 
ATOM     24  O   UNL     1       1.806   1.573   5.663  0.00  0.00    -0.268 OA
ATOM     25  H   UNL     1      -0.147  -0.689   4.888  0.00  0.00    +0.178 HD
BRANCH  23  26
ATOM     26  C   UNL     1       0.925   0.011   7.165  0.00  0.00    +0.041 A 
ATOM     27  C   UNL     1       0.040  -1.050   7.379  0.00  0.00    +0.033 A 
ATOM     28  C   UNL     1      -0.091  -1.566   8.654  0.00  0.00    +0.111 A 
ATOM     29  N   UNL     1       0.604  -1.071   9.659  0.00  0.00    -0.263 NA
ATOM     30  C   UNL     1       1.448  -0.071   9.501  0.00  0.00    +0.111 A 
ATOM     31  C   UNL     1       1.646   0.501   8.259  0.00  0.00    +0.033 A 
ENDBRANCH  23  26
ENDBRANCH   7  22
BRANCH  18  32
ATOM     32  C   UNL     1      -5.450  -0.642   1.554  0.00  0.00    +0.433 C 
ATOM     33  F   UNL     1      -5.636  -0.635   0.168  0.00  0.00    -0.165 F 
ATOM     34  F   UNL     1      -6.064  -1.774   2.102  0.00  0.00    -0.165 F 
ATOM     35  F   UNL     1      -6.019   0.511   2.107  0.00  0.00    -0.165 F 
ENDBRANCH  18  32
TORSDOF 3
