REMARK  Name = ZINC36598214
REMARK  10 active torsions:
REMARK  status: ('A' for Active; 'I' for Inactive)
REMARK    1  A    between atoms: C_1  and  C_2
REMARK    2  A    between atoms: C_5  and  C_7
REMARK    3  A    between atoms: C_7  and  N_8
REMARK    4  A    between atoms: N_8  and  C_9
REMARK    5  A    between atoms: C_9  and  C_11
REMARK    6  A    between atoms: C_9  and  C_25
REMARK    7  A    between atoms: N_27  and  C_28
REMARK    8  A    between atoms: C_34  and  C_36
REMARK    9  A    between atoms: C_36  and  C_37
REMARK   10  A    between atoms: C_37  and  S_38
REMARK                            x       y       z     vdW  Elec       q    Type
REMARK                         _______ _______ _______ _____ _____    ______ ____
ROOT
ATOM      1  C   UNL     1       3.125  -2.914  -2.179  0.00  0.00    +0.193 C 
ENDROOT
BRANCH   1   2
ATOM      2  C   UNL     1       2.721  -1.594  -1.576  0.00  0.00    -0.010 A 
ATOM      3  C   UNL     1       1.904  -1.581  -0.503  0.00  0.00    +0.015 A 
ATOM      4  C   UNL     1       1.496  -0.368   0.099  0.00  0.00    -0.017 A 
ATOM      5  C   UNL     1       0.646  -0.365   1.214  0.00  0.00    +0.008 A 
ATOM      6  C   UNL     1       0.270   0.820   1.775  0.00  0.00    +0.001 A 
ATOM      7  C   UNL     1       0.717   2.030   1.257  0.00  0.00    +0.001 A 
ATOM      8  C   UNL     1       1.546   2.060   0.172  0.00  0.00    +0.009 A 
ATOM      9  C   UNL     1       1.949   0.864  -0.425  0.00  0.00    -0.010 A 
ATOM     10  C   UNL     1       2.837   0.850  -1.590  0.00  0.00    -0.010 A 
ATOM     11  C   UNL     1       3.213  -0.395  -2.143  0.00  0.00    -0.012 A 
ATOM     12  C   UNL     1       4.067  -0.420  -3.254  0.00  0.00    +0.009 A 
ATOM     13  C   UNL     1       4.526   0.752  -3.781  0.00  0.00    +0.001 A 
ATOM     14  C   UNL     1       4.159   1.974  -3.231  0.00  0.00    +0.001 A 
ATOM     15  C   UNL     1       3.319   2.032  -2.156  0.00  0.00    +0.009 A 
ENDBRANCH   1   2
BRANCH   1  16
ATOM     16  C   UNL     1       4.444  -3.351  -1.596  0.00  0.00    +0.238 C 
ATOM     17  O   UNL     1       4.494  -3.780  -0.462  0.00  0.00    -0.273 OA
ATOM     18  N   UNL     1       5.569  -3.266  -2.333  0.00  0.00    -0.311 N 
ATOM     19  H   UNL     1       5.529  -2.923  -3.240  0.00  0.00    +0.149 HD
BRANCH  18  20
ATOM     20  C   UNL     1       6.851  -3.690  -1.766  0.00  0.00    +0.073 C 
ATOM     21  C   UNL     1       7.462  -2.537  -0.968  0.00  0.00    +0.022 C 
ATOM     22  C   UNL     1       8.801  -2.981  -0.376  0.00  0.00    +0.002 C 
ATOM     23  C   UNL     1       9.752  -3.379  -1.506  0.00  0.00    +0.000 C 
ATOM     24  C   UNL     1       9.141  -4.532  -2.305  0.00  0.00    +0.002 C 
ATOM     25  C   UNL     1       7.802  -4.088  -2.897  0.00  0.00    +0.022 C 
ENDBRANCH  18  20
ENDBRANCH   1  16
BRANCH   1  26
ATOM     26  N   UNL     1       2.102  -3.920  -1.881  0.00  0.00    -0.279 N 
ATOM     27  C   UNL     1       0.871  -3.809  -2.419  0.00  0.00    +0.218 C 
ATOM     28  O   UNL     1       0.025  -4.642  -2.172  0.00  0.00    -0.276 OA
BRANCH  26  29
ATOM     29  C   UNL     1       2.417  -5.046  -0.999  0.00  0.00    +0.183 C 
BRANCH  29  34
ATOM     30  C   UNL     1       2.379  -3.286   3.728  0.00  0.00    +0.086 C 
ATOM     31  C   UNL     1       1.940  -3.967   2.457  0.00  0.00    +0.102 A 
ATOM     32  C   UNL     1       0.762  -4.585   2.261  0.00  0.00    +0.045 A 
ATOM     33  C   UNL     1       0.773  -5.078   0.936  0.00  0.00    +0.046 A 
ATOM     34  C   UNL     1       1.957  -4.732   0.401  0.00  0.00    +0.122 A 
ATOM     35  O   UNL     1       2.658  -4.054   1.325  0.00  0.00    -0.463 OA
ENDBRANCH  29  34
ENDBRANCH  26  29
BRANCH  27  36
ATOM     36  C   UNL     1       0.547  -2.651  -3.326  0.00  0.00    +0.106 C 
BRANCH  36  37
ATOM     37  C   UNL     1      -0.905  -2.762  -3.796  0.00  0.00    +0.075 C 
BRANCH  37  38
ATOM     38  S   UNL     1      -1.295  -1.368  -4.889  0.00  0.00    -0.178 S 
ATOM     39  H   UNL     1      -2.579  -1.573  -5.232  0.00  0.00    +0.102 HD
ENDBRANCH  37  38
ENDBRANCH  36  37
ENDBRANCH  27  36
ENDBRANCH   1  26
TORSDOF 9
