REMARK  Name = ZINC60383190
REMARK  9 active torsions:
REMARK  status: ('A' for Active; 'I' for Inactive)
REMARK    1  A    between atoms: C_1  and  C_2
REMARK    2  A    between atoms: C_7  and  C_8
REMARK    3  A    between atoms: C_7  and  C_9
REMARK    4  A    between atoms: N_12  and  N_13
REMARK    5  A    between atoms: C_14  and  C_16
REMARK    6  A    between atoms: C_16  and  O_17
REMARK    7  A    between atoms: O_17  and  C_18
REMARK    8  A    between atoms: C_18  and  C_20
REMARK    9  A    between atoms: C_24  and  N_26
REMARK                            x       y       z     vdW  Elec       q    Type
REMARK                         _______ _______ _______ _____ _____    ______ ____
ROOT
ATOM      1  N   UNL     1      -2.635   1.113  -0.532  0.00  0.00    -0.204 N 
ATOM      2  C   UNL     1      -3.849   1.688  -0.640  0.00  0.00    +0.270 C 
ATOM      3  O   UNL     1      -4.840   1.083  -0.288  0.00  0.00    -0.270 OA
ATOM      4  H   UNL     1      -1.843   1.597  -0.813  0.00  0.00    +0.177 HD
ENDROOT
BRANCH   1  15
ATOM      5  C   UNL     1      -0.037   1.546   0.137  0.00  0.00    +0.018 C 
ATOM      6  C   UNL     1      -0.001   0.018   0.071  0.00  0.00    +0.013 C 
ATOM      7  C   UNL     1       0.673  -0.592  -1.195  0.00  0.00    +0.013 C 
ATOM      8  C   UNL     1       1.037  -2.037  -0.785  0.00  0.00    +0.005 C 
ATOM      9  C   UNL     1       0.538  -2.161   0.688  0.00  0.00    +0.001 C 
ATOM     10  C   UNL     1       0.806  -0.704   1.207  0.00  0.00    -0.021 C 
ATOM     11  C   UNL     1       2.293  -0.345   1.174  0.00  0.00    +0.012 C 
ATOM     12  C   UNL     1       0.194  -0.464   2.589  0.00  0.00    +0.012 C 
ATOM     13  C   UNL     1      -1.017  -2.155   0.570  0.00  0.00    +0.057 C 
ATOM     14  C   UNL     1      -1.359  -0.689   0.187  0.00  0.00    +0.044 C 
ATOM     15  N   UNL     1      -2.517  -0.183  -0.014  0.00  0.00    -0.189 NA
ENDBRANCH   1  15
BRANCH   2  16
ATOM     16  C   UNL     1      -3.976   3.082  -1.197  0.00  0.00    +0.329 C 
BRANCH  16  17
ATOM     17  O   UNL     1      -5.353   3.467  -1.210  0.00  0.00    -0.452 OA
BRANCH  17  18
ATOM     18  C   UNL     1      -5.640   4.695  -1.682  0.00  0.00    +0.340 C 
ATOM     19  O   UNL     1      -4.747   5.420  -2.073  0.00  0.00    -0.245 OA
BRANCH  18  20
ATOM     20  C   UNL     1      -7.041   5.160  -1.726  0.00  0.00    +0.061 A 
ATOM     21  C   UNL     1      -8.070   4.331  -1.272  0.00  0.00    +0.016 A 
ATOM     22  C   UNL     1      -9.375   4.771  -1.315  0.00  0.00    +0.023 A 
ATOM     23  C   UNL     1      -9.668   6.033  -1.807  0.00  0.00    +0.071 A 
ATOM     24  C   UNL     1      -8.653   6.859  -2.259  0.00  0.00    +0.145 A 
ATOM     25  C   UNL     1      -7.342   6.433  -2.215  0.00  0.00    +0.049 A 
ATOM     26 CL   UNL     1     -11.315   6.579  -1.859  0.00  0.00    -0.081 Cl
BRANCH  24  27
ATOM     27  N   UNL     1      -8.975   8.205  -2.784  0.00  0.00    +0.058 N 
ATOM     28  O   UNL     1      -8.089   8.928  -3.178  0.00  0.00    -0.126 OA
ATOM     29  O   UNL     1     -10.123   8.582  -2.818  0.00  0.00    -0.126 OA
ENDBRANCH  24  27
ENDBRANCH  18  20
ENDBRANCH  17  18
ENDBRANCH  16  17
ENDBRANCH   2  16
TORSDOF 6
