REMARK  Name = ZINC61888142
REMARK  5 active torsions:
REMARK  status: ('A' for Active; 'I' for Inactive)
REMARK    1  A    between atoms: C_6  and  S_7
REMARK    2  A    between atoms: S_7  and  N_10
REMARK    3  A    between atoms: N_10  and  C_11
REMARK    4  A    between atoms: C_16  and  C_18
REMARK    5  A    between atoms: N_19  and  O_20
REMARK                            x       y       z     vdW  Elec       q    Type
REMARK                         _______ _______ _______ _____ _____    ______ ____
ROOT
ATOM      1  N   UNL     1      -1.790  -1.109  -1.516  0.00  0.00    -0.186 NA
ATOM      2  H   UNL     1      -2.632  -0.724  -1.808  0.00  0.00    +0.148 HD
ENDROOT
BRANCH   1   3
ATOM      3  C   UNL     1      -0.962  -1.862  -2.461  0.00  0.00    +0.087 C 
ATOM      4  C   UNL     1      -1.485  -3.303  -2.588  0.00  0.00    +0.021 C 
ATOM      5  C   UNL     1      -1.882  -3.500  -4.065  0.00  0.00    +0.002 C 
ATOM      6  C   UNL     1      -2.154  -2.065  -4.580  0.00  0.00    +0.013 C 
ATOM      7  C   UNL     1      -1.058  -1.232  -3.866  0.00  0.00    +0.074 C 
BRANCH   7   8
ATOM      8  C   UNL     1      -1.473   0.213  -3.769  0.00  0.00    +0.136 C 
ATOM      9  N   UNL     1      -0.578   1.145  -3.781  0.00  0.00    -0.076 NA
ATOM     10  N   UNL     1      -2.807   0.542  -3.667  0.00  0.00    -0.344 N 
ATOM     11  H   UNL     1      -3.479  -0.157  -3.658  0.00  0.00    +0.144 HD
ATOM     12  H   UNL     1      -3.074   1.472  -3.605  0.00  0.00    +0.144 HD
BRANCH   9  13
ATOM     13  O   UNL     1       0.797   0.805  -3.777  0.00  0.00    -0.408 OA
ATOM     14  H   UNL     1       1.390   1.566  -3.710  0.00  0.00    +0.328 HD
ENDBRANCH   9  13
ENDBRANCH   7   8
ENDBRANCH   1   3
BRANCH   1  15
ATOM     15  S   UNL     1      -1.289  -0.914   0.051  0.00  0.00    +0.059 S 
ATOM     16  O   UNL     1      -0.936  -2.205   0.528  0.00  0.00    -0.153 OA
ATOM     17  O   UNL     1      -2.267  -0.106   0.692  0.00  0.00    -0.153 OA
BRANCH  15  23
ATOM     18  C   UNL     1       0.140   1.412   0.071  0.00  0.00    +0.030 A 
ATOM     19  C   UNL     1       1.305   2.155   0.038  0.00  0.00    +0.023 A 
ATOM     20  C   UNL     1       2.529   1.518  -0.057  0.00  0.00    +0.059 A 
ATOM     21  C   UNL     1       2.586   0.135  -0.119  0.00  0.00    +0.061 A 
ATOM     22  C   UNL     1       1.419  -0.606  -0.086  0.00  0.00    +0.050 A 
ATOM     23  C   UNL     1       0.197   0.032   0.008  0.00  0.00    +0.107 A 
ATOM     24 CL   UNL     1       4.122  -0.666  -0.239  0.00  0.00    -0.082 Cl
ATOM     25 CL   UNL     1       3.993   2.450  -0.098  0.00  0.00    -0.082 Cl
ENDBRANCH  15  23
ENDBRANCH   1  15
TORSDOF 5
