REMARK  Name = ZINC64164716
REMARK  5 active torsions:
REMARK  status: ('A' for Active; 'I' for Inactive)
REMARK    1  A    between atoms: C_1  and  N_2
REMARK    2  A    between atoms: C_9  and  O_30
REMARK    3  A    between atoms: C_11  and  C_14
REMARK    4  A    between atoms: C_14  and  N_16
REMARK    5  A    between atoms: C_20  and  C_23
REMARK                            x       y       z     vdW  Elec       q    Type
REMARK                         _______ _______ _______ _____ _____    ______ ____
ROOT
ATOM      1  C   UNL     1       2.380  -2.756  -0.170  0.00  0.00    +0.273 C 
ATOM      2  O   UNL     1       3.360  -2.215   0.319  0.00  0.00    -0.268 OA
ENDROOT
BRANCH   1  12
ATOM      3  C   UNL     1       0.067   1.477  -0.145  0.00  0.00    +0.138 C 
ATOM      4  N   UNL     1       0.001   0.014  -0.099  0.00  0.00    -0.270 N 
ATOM      5  C   UNL     1      -1.237  -0.633  -0.160  0.00  0.00    +0.042 A 
ATOM      6  C   UNL     1      -2.401   0.077   0.105  0.00  0.00    +0.024 A 
ATOM      7  C   UNL     1      -3.625  -0.561   0.050  0.00  0.00    +0.002 A 
ATOM      8  C   UNL     1      -3.689  -1.905  -0.269  0.00  0.00    +0.000 A 
ATOM      9  C   UNL     1      -2.532  -2.613  -0.533  0.00  0.00    +0.008 A 
ATOM     10  C   UNL     1      -1.302  -1.980  -0.483  0.00  0.00    +0.007 A 
ATOM     11  C   UNL     1      -0.053  -2.762  -0.784  0.00  0.00    +0.187 C 
ATOM     12  C   UNL     1       1.169  -2.038  -0.304  0.00  0.00    +0.111 C 
ATOM     13  C   UNL     1       1.153  -0.722  -0.001  0.00  0.00    +0.255 C 
ATOM     14  O   UNL     1       2.292  -0.123   0.410  0.00  0.00    -0.270 OA
BRANCH  11  15
ATOM     15  O   UNL     1      -0.129  -4.033  -0.135  0.00  0.00    -0.382 OA
ATOM     16  H   UNL     1       0.582  -4.642  -0.380  0.00  0.00    +0.211 HD
ENDBRANCH  11  15
ENDBRANCH   1  12
BRANCH   1  17
ATOM     17  N   UNL     1       2.452  -4.033  -0.581  0.00  0.00    -0.152 NA
ATOM     18  C   UNL     1       3.589  -4.707  -0.455  0.00  0.00    +0.164 A 
ATOM     19  N   UNL     1       4.786  -4.295   0.064  0.00  0.00    -0.335 N 
ATOM     20  H   UNL     1       4.891  -3.393   0.408  0.00  0.00    +0.168 HD
ATOM     21  C   UNL     1       5.832  -5.173   0.091  0.00  0.00    +0.055 A 
ATOM     22  C   UNL     1       5.665  -6.423  -0.392  0.00  0.00    +0.074 A 
ATOM     23  S   UNL     1       3.957  -6.394  -0.911  0.00  0.00    -0.060 S 
BRANCH  21  24
ATOM     24  C   UNL     1       7.139  -4.757   0.645  0.00  0.00    -0.001 A 
ATOM     25  C   UNL     1       7.308  -3.467   1.149  0.00  0.00    +0.011 A 
ATOM     26  C   UNL     1       8.529  -3.085   1.665  0.00  0.00    +0.016 A 
ATOM     27  C   UNL     1       9.586  -3.979   1.683  0.00  0.00    +0.018 A 
ATOM     28  C   UNL     1       9.424  -5.261   1.184  0.00  0.00    +0.016 A 
ATOM     29  C   UNL     1       8.206  -5.656   0.672  0.00  0.00    +0.011 A 
ATOM     30 BR   UNL     1      11.257  -3.448   2.391  0.00  0.00    -0.050 Br
ENDBRANCH  21  24
ENDBRANCH   1  17
TORSDOF 4
