REMARK  Name = ZINC08442119
REMARK  8 active torsions:
REMARK  status: ('A' for Active; 'I' for Inactive)
REMARK    1  A    between atoms: C_1  and  C_2
REMARK    2  A    between atoms: C_5  and  S_8
REMARK    3  A    between atoms: S_8  and  C_9
REMARK    4  A    between atoms: C_9  and  C_10
REMARK    5  A    between atoms: C_17  and  N_34
REMARK    6  A    between atoms: C_18  and  C_32
REMARK    7  A    between atoms: N_26  and  C_29
REMARK    8  A    between atoms: C_29  and  C_30
REMARK                            x       y       z     vdW  Elec       q    Type
REMARK                         _______ _______ _______ _____ _____    ______ ____
ROOT
ATOM      1  C   UNL     1      -0.116  -6.549   1.495  0.00  0.00    +0.081 A 
ATOM      2  C   UNL     1      -1.292  -7.286   1.522  0.00  0.00    +0.062 A 
ATOM      3  C   UNL     1      -0.958  -8.614   1.544  0.00  0.00    +0.223 A 
ATOM      4  N   UNL     1       0.382  -8.695   1.531  0.00  0.00    -0.246 N 
ATOM      5  H   UNL     1       0.904  -9.512   1.542  0.00  0.00    +0.192 HD
ATOM      6  N   UNL     1       0.892  -7.388   1.495  0.00  0.00    -0.175 NA
ATOM      7  O   UNL     1      -1.888  -9.600   1.571  0.00  0.00    -0.423 OA
ATOM      8  C   UNL     1      -3.169  -9.268   1.310  0.00  0.00    +0.201 C 
ATOM      9  C   UNL     1      -3.622  -7.993   1.274  0.00  0.00    +0.110 C 
ATOM     10  C   UNL     1      -2.719  -6.818   1.530  0.00  0.00    +0.145 C 
ATOM     11  C   UNL     1      -3.061  -6.138   2.817  0.00  0.00    -0.001 A 
ATOM     12  C   UNL     1      -3.065  -6.591   4.118  0.00  0.00    +0.007 A 
ATOM     13  C   UNL     1      -3.441  -5.683   5.102  0.00  0.00    +0.000 A 
ATOM     14  C   UNL     1      -3.795  -4.387   4.786  0.00  0.00    +0.002 A 
ATOM     15  C   UNL     1      -3.795  -3.924   3.479  0.00  0.00    +0.024 A 
ATOM     16  C   UNL     1      -3.420  -4.826   2.482  0.00  0.00    +0.041 A 
ATOM     17  N   UNL     1      -3.332  -4.637   1.114  0.00  0.00    -0.266 N 
ATOM     18  C   UNL     1      -2.930  -5.755   0.474  0.00  0.00    +0.241 C 
ATOM     19  O   UNL     1      -2.767  -5.883  -0.721  0.00  0.00    -0.274 OA
ENDROOT
BRANCH   8  20
ATOM     20  N   UNL     1      -4.063 -10.280   1.066  0.00  0.00    -0.328 N 
ATOM     21  H   UNL     1      -3.768 -11.204   1.085  0.00  0.00    +0.145 HD
ATOM     22  H   UNL     1      -4.991 -10.072   0.875  0.00  0.00    +0.145 HD
ENDBRANCH   8  20
BRANCH   9  23
ATOM     23  C   UNL     1      -5.004  -7.756   0.983  0.00  0.00    +0.102 C 
ATOM     24  N   UNL     1      -6.100  -7.567   0.752  0.00  0.00    -0.191 NA
ENDBRANCH   9  23
BRANCH   1  25
ATOM     25  C   UNL     1      -0.016  -5.045   1.464  0.00  0.00    +0.132 C 
BRANCH  25  26
ATOM     26  S   UNL     1       0.202  -4.419   3.152  0.00  0.00    -0.119 S 
BRANCH  26  31
ATOM     27  C   UNL     1       1.142   1.497   2.406  0.00  0.00    +0.044 C 
ATOM     28  C   UNL     1       0.907   0.020   2.592  0.00  0.00    -0.050 A 
ATOM     29  C   UNL     1       0.768  -0.501   3.866  0.00  0.00    +0.004 A 
ATOM     30  C   UNL     1       0.553  -1.854   4.040  0.00  0.00    +0.015 A 
ATOM     31  C   UNL     1       0.476  -2.692   2.934  0.00  0.00    +0.008 A 
ATOM     32  C   UNL     1       0.615  -2.165   1.656  0.00  0.00    +0.015 A 
ATOM     33  C   UNL     1       0.825  -0.810   1.489  0.00  0.00    +0.004 A 
ENDBRANCH  26  31
ENDBRANCH  25  26
ENDBRANCH   1  25
BRANCH  17  34
ATOM     34  C   UNL     1      -3.641  -3.373   0.440  0.00  0.00    +0.140 C 
BRANCH  34  35
ATOM     35  C   UNL     1      -2.418  -2.493   0.441  0.00  0.00    -0.015 C 
ATOM     36  C   UNL     1      -1.949  -2.022  -0.688  0.00  0.00    +0.005 C 
ENDBRANCH  34  35
ENDBRANCH  17  34
TORSDOF 7
