REMARK  Name = ZINC12497097
REMARK  8 active torsions:
REMARK  status: ('A' for Active; 'I' for Inactive)
REMARK    1  A    between atoms: C_9  and  O_12
REMARK    2  A    between atoms: O_12  and  C_13
REMARK    3  A    between atoms: C_13  and  C_14
REMARK    4  A    between atoms: N_16  and  C_17
REMARK    5  A    between atoms: C_17  and  N_19
REMARK    6  A    between atoms: N_19  and  C_20
REMARK    7  A    between atoms: C_22  and  N_27
REMARK    8  A    between atoms: C_25  and  O_26
REMARK                            x       y       z     vdW  Elec       q    Type
REMARK                         _______ _______ _______ _____ _____    ______ ____
ROOT
ATOM      1  C   UNL     1       6.157  -4.697  -0.549  0.00  0.00    +0.256 C 
ATOM      2  O   UNL     1       7.080  -3.950  -0.790  0.00  0.00    -0.272 OA
ATOM      3  N   UNL     1       6.391  -6.003  -0.311  0.00  0.00    -0.265 N 
ATOM      4  H   UNL     1       5.652  -6.601  -0.118  0.00  0.00    +0.157 HD
ENDROOT
BRANCH   3   5
ATOM      5  C   UNL     1       7.652  -6.477  -0.340  0.00  0.00    +0.141 C 
ATOM      6  S   UNL     1       8.957  -5.422  -0.680  0.00  0.00    -0.018 S 
BRANCH   5   7
ATOM      7  N   UNL     1       7.887  -7.783  -0.102  0.00  0.00    -0.294 N 
ATOM      8  H   UNL     1       7.156  -8.368   0.152  0.00  0.00    +0.154 HD
BRANCH   7   9
ATOM      9  C   UNL     1       9.185  -8.295  -0.221  0.00  0.00    +0.077 A 
ATOM     10  C   UNL     1      10.252  -7.627   0.364  0.00  0.00    +0.059 A 
ATOM     11  C   UNL     1      11.532  -8.134   0.245  0.00  0.00    +0.128 A 
ATOM     12  C   UNL     1      11.754  -9.306  -0.455  0.00  0.00    +0.036 A 
ATOM     13  C   UNL     1      10.696  -9.976  -1.040  0.00  0.00    +0.049 A 
ATOM     14  C   UNL     1       9.409  -9.478  -0.921  0.00  0.00    +0.138 A 
BRANCH  11  15
ATOM     15  N   UNL     1      12.669  -7.421   0.869  0.00  0.00    +0.056 N 
ATOM     16  O   UNL     1      12.478  -6.396   1.482  0.00  0.00    -0.126 OA
ATOM     17  O   UNL     1      13.790  -7.863   0.767  0.00  0.00    -0.126 OA
ENDBRANCH  11  15
BRANCH  14  18
ATOM     18  O   UNL     1       8.366 -10.139  -1.491  0.00  0.00    -0.505 OA
ATOM     19  H   UNL     1       8.178  -9.868  -2.401  0.00  0.00    +0.292 HD
ENDBRANCH  14  18
ENDBRANCH   7   9
ENDBRANCH   5   7
ENDBRANCH   3   5
BRANCH   1  20
ATOM     20  C   UNL     1       4.747  -4.167  -0.516  0.00  0.00    +0.325 C 
BRANCH  20  21
ATOM     21  O   UNL     1       4.758  -2.766  -0.798  0.00  0.00    -0.482 OA
BRANCH  21  30
ATOM     22  C   UNL     1      -0.211   1.131  -1.084  0.00  0.00    +0.001 A 
ATOM     23  C   UNL     1       0.949   1.859  -1.344  0.00  0.00    +0.001 A 
ATOM     24  C   UNL     1       2.169   1.255  -1.345  0.00  0.00    +0.010 A 
ATOM     25  C   UNL     1       2.263  -0.122  -1.081  0.00  0.00    -0.000 A 
ATOM     26  C   UNL     1       1.083  -0.862  -0.816  0.00  0.00    -0.017 A 
ATOM     27  C   UNL     1      -0.158  -0.203  -0.823  0.00  0.00    +0.008 A 
ATOM     28  C   UNL     1       1.175  -2.239  -0.549  0.00  0.00    +0.012 A 
ATOM     29  C   UNL     1       2.389  -2.850  -0.548  0.00  0.00    +0.047 A 
ATOM     30  C   UNL     1       3.558  -2.128  -0.807  0.00  0.00    +0.136 A 
ATOM     31  C   UNL     1       3.506  -0.778  -1.073  0.00  0.00    +0.067 A 
ATOM     32 BR   UNL     1       5.094   0.186  -1.423  0.00  0.00    -0.046 Br
ENDBRANCH  21  30
ENDBRANCH  20  21
ENDBRANCH   1  20
TORSDOF 8
