REMARK  Name = ZINC14201415
REMARK  5 active torsions:
REMARK  status: ('A' for Active; 'I' for Inactive)
REMARK    1  A    between atoms: C_7  and  C_11
REMARK    2  A    between atoms: C_11  and  C_12
REMARK    3  A    between atoms: N_16  and  C_20
REMARK    4  A    between atoms: C_20  and  C_21
REMARK    5  A    between atoms: C_27  and  C_29
REMARK                            x       y       z     vdW  Elec       q    Type
REMARK                         _______ _______ _______ _____ _____    ______ ____
ROOT
ATOM      1  C   UNL     1       3.286   4.300  -8.527  0.00  0.00    +0.165 C 
ATOM      2  C   UNL     1       4.510   4.114  -7.653  0.00  0.00    +0.244 C 
ATOM      3  O   UNL     1       5.364   4.938  -7.403  0.00  0.00    -0.273 OA
ATOM      4  N   UNL     1       4.451   2.842  -7.209  0.00  0.00    -0.216 N 
ATOM      5  C   UNL     1       3.374   2.205  -7.681  0.00  0.00    +0.310 C 
ATOM      6  O   UNL     1       3.107   1.047  -7.424  0.00  0.00    -0.252 OA
ATOM      7  N   UNL     1       2.617   2.989  -8.470  0.00  0.00    -0.287 N 
ATOM      8  H   UNL     1       1.793   2.738  -8.917  0.00  0.00    +0.151 HD
ENDROOT
BRANCH   1   9
ATOM      9  C   UNL     1       2.381   5.395  -7.961  0.00  0.00    +0.069 C 
BRANCH   9  16
ATOM     10  C   UNL     1      -1.797   3.354  -8.559  0.00  0.00    +0.001 A 
ATOM     11  C   UNL     1      -2.539   3.930  -9.581  0.00  0.00    +0.002 A 
ATOM     12  C   UNL     1      -2.036   4.991 -10.303  0.00  0.00    +0.026 A 
ATOM     13  C   UNL     1      -0.772   5.490 -10.007  0.00  0.00    +0.047 A 
ATOM     14  C   UNL     1      -0.021   4.899  -8.975  0.00  0.00    +0.003 A 
ATOM     15  C   UNL     1      -0.553   3.829  -8.252  0.00  0.00    +0.010 A 
ATOM     16  C   UNL     1       1.238   5.644  -8.912  0.00  0.00    -0.020 A 
ATOM     17  C   UNL     1       1.184   6.588  -9.865  0.00  0.00    +0.087 A 
ATOM     18  N   UNL     1      -0.010   6.511 -10.530  0.00  0.00    -0.360 N 
ATOM     19  H   UNL     1      -0.279   7.089 -11.261  0.00  0.00    +0.165 HD
ENDBRANCH   9  16
ENDBRANCH   1   9
BRANCH   4  20
ATOM     20  C   UNL     1       5.447   2.233  -6.324  0.00  0.00    +0.213 C 
BRANCH  20  21
ATOM     21  C   UNL     1       5.045   2.453  -4.889  0.00  0.00    +0.234 C 
ATOM     22  O   UNL     1       4.027   3.060  -4.630  0.00  0.00    -0.274 OA
ATOM     23  N   UNL     1       5.816   1.976  -3.892  0.00  0.00    -0.293 N 
ATOM     24  C   UNL     1       7.073   1.223  -4.063  0.00  0.00    +0.108 C 
ATOM     25  C   UNL     1       7.853   1.450  -2.744  0.00  0.00    +0.021 C 
ATOM     26  C   UNL     1       6.707   1.440  -1.699  0.00  0.00    +0.029 C 
ATOM     27  C   UNL     1       5.544   2.118  -2.454  0.00  0.00    +0.106 C 
BRANCH  27  28
ATOM     28  C   UNL     1       4.244   1.439  -2.109  0.00  0.00    -0.023 A 
ATOM     29  C   UNL     1       3.922   0.228  -2.692  0.00  0.00    +0.009 A 
ATOM     30  C   UNL     1       2.730  -0.397  -2.379  0.00  0.00    +0.050 A 
ATOM     31  C   UNL     1       1.853   0.189  -1.478  0.00  0.00    +0.162 A 
ATOM     32  C   UNL     1       2.178   1.406  -0.890  0.00  0.00    +0.162 A 
ATOM     33  C   UNL     1       3.376   2.029  -1.210  0.00  0.00    +0.055 A 
ATOM     34  O   UNL     1       1.335   1.997   0.000  0.00  0.00    -0.485 OA
ATOM     35  C   UNL     1      -0.019   1.530   0.011  0.00  0.00    +0.270 C 
ATOM     36  C   UNL     1       0.002  -0.004   0.002  0.00  0.00    +0.270 C 
ATOM     37  O   UNL     1       0.682  -0.437  -1.181  0.00  0.00    -0.485 OA
ENDBRANCH  27  28
ENDBRANCH  20  21
ENDBRANCH   4  20
TORSDOF 5
