REMARK  Name = ZINC39495506
REMARK  10 active torsions:
REMARK  status: ('A' for Active; 'I' for Inactive)
REMARK    1  A    between atoms: C_4  and  C_7
REMARK    2  A    between atoms: C_7  and  C_8
REMARK    3  A    between atoms: C_9  and  C_29
REMARK    4  A    between atoms: C_12  and  C_21
REMARK    5  A    between atoms: C_13  and  C_14
REMARK    6  A    between atoms: C_19  and  O_20
REMARK    7  A    between atoms: C_21  and  C_23
REMARK    8  A    between atoms: C_21  and  N_26
REMARK    9  A    between atoms: C_23  and  C_24
REMARK   10  A    between atoms: C_34  and  O_35
REMARK                            x       y       z     vdW  Elec       q    Type
REMARK                         _______ _______ _______ _____ _____    ______ ____
ROOT
ATOM      1  C   UNL     1       4.064  -1.516   1.403  0.00  0.00    -0.027 A 
ATOM      2  C   UNL     1       5.027  -0.571   1.742  0.00  0.00    -0.010 A 
ATOM      3  C   UNL     1       5.662  -0.640   2.982  0.00  0.00    +0.009 A 
ATOM      4  C   UNL     1       5.336  -1.644   3.873  0.00  0.00    +0.007 A 
ATOM      5  C   UNL     1       4.381  -2.584   3.542  0.00  0.00    -0.019 A 
ATOM      6  C   UNL     1       3.735  -2.522   2.307  0.00  0.00    -0.005 A 
ENDROOT
BRANCH   6   7
ATOM      7  C   UNL     1       2.705  -3.530   1.955  0.00  0.00    +0.024 A 
ATOM      8  C   UNL     1       3.084  -4.768   1.440  0.00  0.00    +0.012 A 
ATOM      9  C   UNL     1       2.122  -5.702   1.115  0.00  0.00    +0.001 A 
ATOM     10  C   UNL     1       0.781  -5.414   1.298  0.00  0.00    +0.004 A 
ATOM     11  C   UNL     1       0.394  -4.189   1.807  0.00  0.00    +0.046 A 
ATOM     12  C   UNL     1       1.350  -3.244   2.144  0.00  0.00    +0.125 A 
BRANCH  12  13
ATOM     13  O   UNL     1       0.971  -2.042   2.651  0.00  0.00    -0.506 OA
ATOM     14  H   UNL     1       0.743  -1.386   1.978  0.00  0.00    +0.292 HD
ENDBRANCH  12  13
ENDBRANCH   6   7
BRANCH   2  15
ATOM     15  C   UNL     1       5.379   0.507   0.786  0.00  0.00    +0.024 A 
ATOM     16  C   UNL     1       6.644   0.541   0.204  0.00  0.00    +0.012 A 
ATOM     17  C   UNL     1       6.966   1.546  -0.685  0.00  0.00    +0.001 A 
ATOM     18  C   UNL     1       6.037   2.522  -1.001  0.00  0.00    +0.004 A 
ATOM     19  C   UNL     1       4.780   2.498  -0.429  0.00  0.00    +0.046 A 
ATOM     20  C   UNL     1       4.441   1.491   0.461  0.00  0.00    +0.125 A 
BRANCH  20  21
ATOM     21  O   UNL     1       3.203   1.463   1.020  0.00  0.00    -0.506 OA
ATOM     22  H   UNL     1       3.135   1.954   1.850  0.00  0.00    +0.292 HD
ENDBRANCH  20  21
ENDBRANCH   2  15
BRANCH   1  23
ATOM     23  C   UNL     1       3.374  -1.447   0.065  0.00  0.00    +0.071 C 
BRANCH  23  27
ATOM     24  C   UNL     1       5.644  -3.625  -2.824  0.00  0.00    +0.000 A 
ATOM     25  C   UNL     1       4.615  -4.247  -2.143  0.00  0.00    +0.000 A 
ATOM     26  C   UNL     1       3.880  -3.542  -1.208  0.00  0.00    +0.004 A 
ATOM     27  C   UNL     1       4.175  -2.216  -0.954  0.00  0.00    -0.043 A 
ATOM     28  C   UNL     1       5.206  -1.594  -1.634  0.00  0.00    +0.004 A 
ATOM     29  C   UNL     1       5.939  -2.299  -2.570  0.00  0.00    +0.000 A 
ENDBRANCH  23  27
ENDBRANCH   1  23
BRANCH   5  30
ATOM     30  C   UNL     1       4.031  -3.677   4.519  0.00  0.00    +0.110 C 
BRANCH  30  31
ATOM     31  N   UNL     1       2.730  -3.389   5.128  0.00  0.00    -0.311 N 
ATOM     32  C   UNL     1       2.537  -2.228   5.786  0.00  0.00    +0.326 C 
ATOM     33  O   UNL     1       3.406  -1.383   5.794  0.00  0.00    -0.280 OA
ATOM     34  H   UNL     1       2.009  -4.034   5.059  0.00  0.00    +0.149 HD
ENDBRANCH  30  31
BRANCH  30  35
ATOM     35  C   UNL     1       5.101  -3.747   5.610  0.00  0.00    +0.097 C 
BRANCH  35  36
ATOM     36  C   UNL     1       4.818  -4.917   6.516  0.00  0.00    +0.225 C 
ATOM     37  O   UNL     1       5.668  -5.755   6.705  0.00  0.00    -0.301 OA
ENDBRANCH  35  36
ENDBRANCH  30  35
ENDBRANCH   5  30
TORSDOF 10
