REMARK  Name = ZINC31467393
REMARK  9 active torsions:
REMARK  status: ('A' for Active; 'I' for Inactive)
REMARK    1  A    between atoms: C_1  and  C_2
REMARK    2  A    between atoms: C_2  and  C_4
REMARK    3  A    between atoms: C_2  and  N_10
REMARK    4  A    between atoms: N_10  and  C_11
REMARK    5  A    between atoms: N_10  and  C_19
REMARK    6  A    between atoms: C_11  and  C_12
REMARK    7  A    between atoms: N_17  and  C_18
REMARK    8  A    between atoms: C_19  and  C_20
REMARK    9  A    between atoms: N_25  and  C_26
REMARK                            x       y       z     vdW  Elec       q    Type
REMARK                         _______ _______ _______ _____ _____    ______ ____
ROOT
ATOM      1  N   UNL     1       1.048  -0.370   0.364  0.00  0.00    +0.395 N 
ATOM      2  H   UNL     1       1.585   0.319  -0.304  0.00  0.00    -0.080 HD
ENDROOT
BRANCH   1   4
ATOM      3  C   UNL     1       2.865  -1.866   1.040  0.00  0.00    -0.008 C 
ATOM      4  C   UNL     1       1.949  -0.719   1.470  0.00  0.00    -0.040 C 
BRANCH   4   5
ATOM      5  C   UNL     1       2.784   0.481   1.836  0.00  0.00    -0.061 A 
ATOM      6  C   UNL     1       3.587   1.079   0.883  0.00  0.00    +0.002 A 
ATOM      7  C   UNL     1       4.350   2.183   1.217  0.00  0.00    +0.000 A 
ATOM      8  C   UNL     1       4.317   2.682   2.506  0.00  0.00    +0.000 A 
ATOM      9  C   UNL     1       3.517   2.080   3.459  0.00  0.00    +0.000 A 
ATOM     10  C   UNL     1       2.751   0.979   3.125  0.00  0.00    +0.002 A 
ENDBRANCH   4   5
ENDBRANCH   1   4
BRANCH   1  11
ATOM     11  C   UNL     1      -0.150   0.321   0.859  0.00  0.00    +0.020 C 
BRANCH  11  12
ATOM     12  C   UNL     1       0.134   1.796   0.976  0.00  0.00    +0.204 C 
ATOM     13  O   UNL     1       1.183   2.246   0.566  0.00  0.00    -0.277 OA
ATOM     14  N   UNL     1      -0.779   2.617   1.532  0.00  0.00    -0.242 N 
ATOM     15  C   UNL     1      -0.525   3.936   1.636  0.00  0.00    +0.306 C 
ATOM     16  O   UNL     1       0.528   4.386   1.230  0.00  0.00    -0.252 OA
ATOM     17  N   UNL     1      -1.439   4.756   2.192  0.00  0.00    -0.302 N 
ATOM     18  C   UNL     1      -1.163   6.191   2.306  0.00  0.00    +0.129 C 
ATOM     19  H   UNL     1      -1.733   2.209   1.899  0.00  0.00    +0.159 HD
ATOM     20  H   UNL     1      -2.392   4.349   2.560  0.00  0.00    +0.150 HD
ENDBRANCH  11  12
ENDBRANCH   1  11
BRANCH   1  21
ATOM     21  C   UNL     1       0.684  -1.562  -0.414  0.00  0.00    +0.020 C 
BRANCH  21  22
ATOM     22  C   UNL     1       1.767  -1.854  -1.421  0.00  0.00    +0.204 C 
ATOM     23  O   UNL     1       2.675  -1.067  -1.581  0.00  0.00    -0.277 OA
ATOM     24  N   UNL     1       1.726  -2.991  -2.144  0.00  0.00    -0.242 N 
ATOM     25  C   UNL     1       2.694  -3.253  -3.044  0.00  0.00    +0.306 C 
ATOM     26  O   UNL     1       3.604  -2.463  -3.204  0.00  0.00    -0.252 OA
ATOM     27  N   UNL     1       2.654  -4.389  -3.767  0.00  0.00    -0.302 N 
ATOM     28  C   UNL     1       3.706  -4.674  -4.745  0.00  0.00    +0.129 C 
ATOM     29  H   UNL     1       0.903  -3.706  -1.998  0.00  0.00    +0.159 HD
ATOM     30  H   UNL     1       1.830  -5.104  -3.621  0.00  0.00    +0.150 HD
ENDBRANCH  21  22
ENDBRANCH   1  21
TORSDOF 6
