REMARK  Name = ZINC20745653
REMARK  5 active torsions:
REMARK  status: ('A' for Active; 'I' for Inactive)
REMARK    1  A    between atoms: C_1  and  O_2
REMARK    2  A    between atoms: O_2  and  C_3
REMARK    3  A    between atoms: C_3  and  C_5
REMARK    4  A    between atoms: C_10  and  N_11
REMARK    5  A    between atoms: C_23  and  C_25
REMARK                            x       y       z     vdW  Elec       q    Type
REMARK                         _______ _______ _______ _____ _____    ______ ____
ROOT
ATOM      1  N   UNL     1       1.978  -1.470   3.151  0.00  0.00    -0.269 N 
ATOM      2  C   UNL     1       2.777  -2.160   3.990  0.00  0.00    +0.307 C 
ATOM      3  O   UNL     1       2.975  -3.345   3.803  0.00  0.00    -0.252 OA
ATOM      4  N   UNL     1       3.354  -1.537   5.036  0.00  0.00    -0.272 N 
ATOM      5  C   UNL     1       3.214  -0.085   5.221  0.00  0.00    +0.116 C 
ATOM      6  C   UNL     1       2.438   0.185   6.516  0.00  0.00    +0.076 C 
ATOM      7  C   UNL     1       2.990  -0.696   7.607  0.00  0.00    +0.066 A 
ATOM      8  C   UNL     1       3.742  -1.797   7.391  0.00  0.00    +0.064 A 
ATOM      9  N   UNL     1       4.045  -2.324   8.608  0.00  0.00    -0.346 N 
ATOM     10  H   UNL     1       4.572  -3.120   8.778  0.00  0.00    +0.167 HD
ATOM     11  C   UNL     1       3.470  -1.526   9.538  0.00  0.00    +0.197 A 
ATOM     12  N   UNL     1       2.842  -0.555   8.928  0.00  0.00    -0.240 NA
ATOM     13  C   UNL     1       4.139  -2.295   6.028  0.00  0.00    +0.159 C 
ATOM     14  H   UNL     1       1.873  -0.512   3.261  0.00  0.00    +0.156 HD
ENDROOT
BRANCH  13  15
ATOM     15  C   UNL     1       5.611  -2.058   5.808  0.00  0.00    +0.014 A 
ATOM     16  C   UNL     1       6.303  -1.194   6.636  0.00  0.00    +0.011 A 
ATOM     17  C   UNL     1       7.652  -0.977   6.436  0.00  0.00    +0.039 A 
ATOM     18  C   UNL     1       8.313  -1.623   5.404  0.00  0.00    +0.126 A 
ATOM     19  C   UNL     1       7.621  -2.489   4.575  0.00  0.00    +0.077 A 
ATOM     20  C   UNL     1       6.270  -2.710   4.780  0.00  0.00    +0.131 A 
ATOM     21  F   UNL     1       5.595  -3.559   3.975  0.00  0.00    -0.205 F 
ATOM     22  F   UNL     1       9.633  -1.410   5.208  0.00  0.00    -0.205 F 
ENDBRANCH  13  15
BRANCH   1  28
ATOM     23  C   UNL     1       0.082  -1.638   1.653  0.00  0.00    +0.080 A 
ATOM     24  C   UNL     1      -0.580  -2.309   0.621  0.00  0.00    +0.017 A 
ATOM     25  C   UNL     1      -0.031  -3.451   0.080  0.00  0.00    +0.001 A 
ATOM     26  C   UNL     1       1.176  -3.939   0.555  0.00  0.00    +0.002 A 
ATOM     27  C   UNL     1       1.841  -3.288   1.574  0.00  0.00    +0.024 A 
ATOM     28  C   UNL     1       1.306  -2.132   2.127  0.00  0.00    +0.049 A 
BRANCH  23  29
ATOM     29  C   UNL     1      -0.500  -0.415   2.235  0.00  0.00    +0.341 C 
ATOM     30  O   UNL     1       0.020   0.104   3.203  0.00  0.00    -0.245 OA
BRANCH  29  32
ATOM     31  C   UNL     1      -2.119   1.311   2.310  0.00  0.00    +0.280 C 
ATOM     32  O   UNL     1      -1.609   0.126   1.695  0.00  0.00    -0.464 OA
ENDBRANCH  29  32
ENDBRANCH  23  29
ENDBRANCH   1  28
TORSDOF 4
