REMARK  Name = ZINC43538398
REMARK  1 active torsions:
REMARK  status: ('A' for Active; 'I' for Inactive)
REMARK    1  A    between atoms: C_5  and  N_7
REMARK                            x       y       z     vdW  Elec       q    Type
REMARK                         _______ _______ _______ _____ _____    ______ ____
ROOT
ATOM      1  N   UNL     1       1.183  -2.040  -0.021  0.00  0.00    -0.305 N 
ATOM      2  C   UNL     1       2.450  -2.781  -0.141  0.00  0.00    +0.135 C 
ATOM      3  C   UNL     1       2.516  -3.824   0.980  0.00  0.00    +0.179 C 
ATOM      4  O   UNL     1       1.316  -4.603   0.976  0.00  0.00    -0.373 OA
ATOM      5  C   UNL     1       0.132  -3.844   1.219  0.00  0.00    +0.139 C 
ATOM      6  C   UNL     1      -0.060  -2.826   0.097  0.00  0.00    +0.104 C 
ATOM      7  C   UNL     1      -0.291  -3.562  -1.225  0.00  0.00    +0.025 C 
ATOM      8  C   UNL     1      -1.521  -4.462  -1.108  0.00  0.00    +0.002 C 
ATOM      9  C   UNL     1      -1.290  -5.493  -0.001  0.00  0.00    +0.003 C 
ATOM     10  C   UNL     1      -1.083  -4.763   1.302  0.00  0.00    +0.033 C 
ENDROOT
BRANCH   1  15
ATOM     11  C   UNL     1       1.008   1.342  -1.138  0.00  0.00    +0.132 A 
ATOM     12  C   UNL     1       1.122   2.027   0.056  0.00  0.00    +0.132 A 
ATOM     13  N   UNL     1       1.254   1.364   1.194  0.00  0.00    -0.239 NA
ATOM     14  C   UNL     1       1.276   0.044   1.191  0.00  0.00    +0.169 A 
ATOM     15  C   UNL     1       1.160  -0.650  -0.013  0.00  0.00    +0.159 A 
ATOM     16  N   UNL     1       1.029   0.020  -1.150  0.00  0.00    -0.236 NA
ATOM     17 CL   UNL     1       1.449  -0.825   2.684  0.00  0.00    -0.058 Cl
ENDBRANCH   1  15
TORSDOF 1
