REMARK  Name = ZINC03441060
REMARK  11 active torsions:
REMARK  status: ('A' for Active; 'I' for Inactive)
REMARK    1  A    between atoms: C_1  and  C_2
REMARK    2  A    between atoms: C_5  and  O_36
REMARK    3  A    between atoms: C_7  and  N_8
REMARK    4  A    between atoms: C_17  and  S_18
REMARK    5  A    between atoms: S_18  and  C_19
REMARK    6  A    between atoms: C_19  and  C_20
REMARK    7  A    between atoms: C_28  and  C_32
REMARK    8  A    between atoms: C_32  and  C_33
REMARK    9  A    between atoms: C_32  and  C_34
REMARK   10  A    between atoms: C_32  and  C_35
REMARK   11  A    between atoms: O_36  and  C_37
REMARK                            x       y       z     vdW  Elec       q    Type
REMARK                         _______ _______ _______ _____ _____    ______ ____
ROOT
ATOM      1  N   UNL     1      -1.365   3.226   6.576  0.00  0.00    -0.255 N 
ATOM      2  C   UNL     1      -2.175   3.630   7.571  0.00  0.00    +0.268 A 
ATOM      3  O   UNL     1      -1.857   3.459   8.735  0.00  0.00    -0.267 OA
ATOM      4  C   UNL     1      -3.416   4.263   7.244  0.00  0.00    +0.076 A 
ATOM      5  C   UNL     1      -4.441   4.776   8.155  0.00  0.00    -0.023 A 
ATOM      6  C   UNL     1      -5.532   5.336   7.596  0.00  0.00    -0.004 A 
ATOM      7  S   UNL     1      -5.267   5.217   5.848  0.00  0.00    -0.073 S 
ATOM      8  C   UNL     1      -3.685   4.412   5.873  0.00  0.00    +0.117 A 
ATOM      9  N   UNL     1      -2.840   3.995   4.937  0.00  0.00    -0.216 NA
ATOM     10  C   UNL     1      -1.706   3.410   5.265  0.00  0.00    +0.177 A 
ATOM     11  C   UNL     1      -6.712   5.930   8.304  0.00  0.00    +0.046 C 
ATOM     12  C   UNL     1      -6.676   5.476   9.770  0.00  0.00    -0.000 C 
ATOM     13  C   UNL     1      -5.261   5.691  10.315  0.00  0.00    +0.009 C 
ATOM     14  C   UNL     1      -4.299   4.691   9.673  0.00  0.00    +0.037 C 
ENDROOT
BRANCH   1  21
ATOM     15  C   UNL     1      -1.335   0.395   6.858  0.00  0.00    +0.046 C 
ATOM     16  C   UNL     1      -0.090   1.225   7.036  0.00  0.00    -0.026 A 
ATOM     17  C   UNL     1       1.110   0.613   7.344  0.00  0.00    +0.009 A 
ATOM     18  C   UNL     1       2.253   1.371   7.508  0.00  0.00    +0.046 A 
ATOM     19  C   UNL     1       2.200   2.750   7.363  0.00  0.00    +0.122 A 
ATOM     20  C   UNL     1       1.000   3.367   7.048  0.00  0.00    +0.072 A 
ATOM     21  C   UNL     1      -0.149   2.605   6.889  0.00  0.00    +0.058 A 
BRANCH  19  22
ATOM     22  O   UNL     1       3.326   3.494   7.525  0.00  0.00    -0.495 OA
ATOM     23  C   UNL     1       4.528   2.791   7.843  0.00  0.00    +0.277 C 
ENDBRANCH  19  22
ENDBRANCH   1  21
BRANCH  12  24
ATOM     24  C   UNL     1      -7.675   6.298  10.587  0.00  0.00    -0.035 C 
ATOM     25  C   UNL     1      -9.083   6.093  10.026  0.00  0.00    +0.011 C 
ATOM     26  C   UNL     1      -7.636   5.843  12.047  0.00  0.00    +0.011 C 
ATOM     27  C   UNL     1      -7.304   7.780  10.504  0.00  0.00    +0.011 C 
ENDBRANCH  12  24
BRANCH  10  28
ATOM     28  S   UNL     1      -0.611   2.864   3.997  0.00  0.00    -0.085 S 
BRANCH  28  29
ATOM     29  C   UNL     1      -1.555   3.356   2.533  0.00  0.00    +0.109 C 
BRANCH  29  30
ATOM     30  C   UNL     1      -0.778   2.972   1.272  0.00  0.00    +0.133 C 
ATOM     31  C   UNL     1      -1.515   3.498   0.035  0.00  0.00    +0.060 C 
ATOM     32  C   UNL     1      -0.802   2.985  -1.221  0.00  0.00    +0.165 C 
ATOM     33  O   UNL     1      -0.704   1.559  -1.150  0.00  0.00    -0.354 OA
ATOM     34  C   UNL     1      -0.013   1.086   0.008  0.00  0.00    +0.323 C 
ATOM     35  O   UNL     1      -0.682   1.547   1.184  0.00  0.00    -0.350 OA
ENDBRANCH  29  30
ENDBRANCH  28  29
ENDBRANCH  10  28
TORSDOF 6
