REMARK  Name = ZINC53773799
REMARK  8 active torsions:
REMARK  status: ('A' for Active; 'I' for Inactive)
REMARK    1  A    between atoms: C_7  and  C_18
REMARK    2  A    between atoms: C_8  and  C_11
REMARK    3  A    between atoms: C_18  and  C_19
REMARK    4  A    between atoms: C_19  and  C_20
REMARK    5  A    between atoms: N_22  and  C_23
REMARK    6  A    between atoms: C_23  and  C_24
REMARK    7  A    between atoms: C_24  and  S_25
REMARK    8  A    between atoms: S_25  and  N_28
REMARK                            x       y       z     vdW  Elec       q    Type
REMARK                         _______ _______ _______ _____ _____    ______ ____
ROOT
ATOM      1  C   UNL     1      -0.016   1.362   0.009  0.00  0.00    +0.001 A 
ATOM      2  C   UNL     1       1.170   2.083   0.002  0.00  0.00    +0.002 A 
ATOM      3  C   UNL     1       2.386   1.436  -0.013  0.00  0.00    +0.026 A 
ATOM      4  C   UNL     1       2.430   0.046  -0.021  0.00  0.00    +0.047 A 
ATOM      5  C   UNL     1       1.225  -0.681  -0.013  0.00  0.00    +0.003 A 
ATOM      6  C   UNL     1       0.002  -0.004   0.002  0.00  0.00    +0.010 A 
ATOM      7  C   UNL     1       1.599  -2.095  -0.024  0.00  0.00    -0.014 A 
ATOM      8  C   UNL     1       2.954  -2.145  -0.038  0.00  0.00    +0.051 A 
ATOM      9  N   UNL     1       3.462  -0.866  -0.036  0.00  0.00    -0.354 N 
ATOM     10  H   UNL     1       4.406  -0.641  -0.045  0.00  0.00    +0.166 HD
ENDROOT
BRANCH   8  11
ATOM     11  C   UNL     1       3.762  -3.383  -0.053  0.00  0.00    -0.001 A 
ATOM     12  C   UNL     1       3.434  -4.443   0.794  0.00  0.00    +0.013 A 
ATOM     13  C   UNL     1       4.191  -5.596   0.776  0.00  0.00    +0.039 A 
ATOM     14  C   UNL     1       5.274  -5.704  -0.081  0.00  0.00    +0.123 A 
ATOM     15  C   UNL     1       5.604  -4.655  -0.924  0.00  0.00    +0.039 A 
ATOM     16  C   UNL     1       4.851  -3.499  -0.918  0.00  0.00    +0.013 A 
ATOM     17  F   UNL     1       6.012  -6.835  -0.094  0.00  0.00    -0.205 F 
ENDBRANCH   8  11
BRANCH   7  18
ATOM     18  C   UNL     1       0.658  -3.272  -0.021  0.00  0.00    +0.047 C 
BRANCH  18  19
ATOM     19  C   UNL     1       0.325  -3.663  -1.462  0.00  0.00    +0.100 C 
BRANCH  19  20
ATOM     20  C   UNL     1      -0.616  -4.840  -1.459  0.00  0.00    +0.213 C 
ATOM     21  O   UNL     1      -0.984  -5.319  -0.407  0.00  0.00    -0.276 OA
ATOM     22  N   UNL     1      -1.048  -5.361  -2.624  0.00  0.00    -0.314 N 
ATOM     23  H   UNL     1      -0.753  -4.978  -3.465  0.00  0.00    +0.149 HD
BRANCH  22  24
ATOM     24  C   UNL     1      -1.963  -6.505  -2.621  0.00  0.00    +0.128 C 
BRANCH  24  25
ATOM     25  C   UNL     1      -2.296  -6.896  -4.062  0.00  0.00    +0.203 C 
BRANCH  25  26
ATOM     26  S   UNL     1      -3.428  -8.313  -4.058  0.00  0.00    +0.028 S 
ATOM     27  O   UNL     1      -2.764  -9.469  -3.565  0.00  0.00    -0.158 OA
ATOM     28  O   UNL     1      -4.693  -7.927  -3.538  0.00  0.00    -0.158 OA
BRANCH  26  29
ATOM     29  N   UNL     1      -3.710  -8.638  -5.657  0.00  0.00    -0.208 NA
ATOM     30  H   UNL     1      -3.288  -8.098  -6.343  0.00  0.00    +0.144 HD
ATOM     31  H   UNL     1      -4.297  -9.368  -5.908  0.00  0.00    +0.144 HD
ENDBRANCH  26  29
ENDBRANCH  25  26
ENDBRANCH  24  25
ENDBRANCH  22  24
ENDBRANCH  19  20
ENDBRANCH  18  19
ENDBRANCH   7  18
TORSDOF 8
