REMARK  Name = ZINC20903616
REMARK  5 active torsions:
REMARK  status: ('A' for Active; 'I' for Inactive)
REMARK    1  A    between atoms: C_4  and  C_7
REMARK    2  A    between atoms: C_10  and  C_13
REMARK    3  A    between atoms: C_24  and  C_27
REMARK    4  A    between atoms: C_27  and  C_28
REMARK    5  A    between atoms: N_30  and  C_31
REMARK                            x       y       z     vdW  Elec       q    Type
REMARK                         _______ _______ _______ _____ _____    ______ ____
ROOT
ATOM      1  C   UNL     1       2.793   5.950  -1.219  0.00  0.00    +0.069 C 
ATOM      2  N   UNL     1       2.558   6.239   0.014  0.00  0.00    -0.182 NA
ATOM      3  N   UNL     1       2.349   5.127   0.833  0.00  0.00    -0.195 N 
ATOM      4  C   UNL     1       2.459   3.910   0.012  0.00  0.00    +0.136 C 
ATOM      5  C   UNL     1       2.764   4.449  -1.400  0.00  0.00    +0.087 C 
ATOM      6  C   UNL     1       2.084   5.160   2.172  0.00  0.00    +0.170 C 
ATOM      7  N   UNL     1       1.877   4.138   2.992  0.00  0.00    -0.157 NA
ATOM      8  C   UNL     1       1.629   4.257   4.268  0.00  0.00    +0.252 C 
ATOM      9  O   UNL     1       1.445   3.293   4.986  0.00  0.00    -0.272 OA
ATOM     10  C   UNL     1       1.587   5.686   4.794  0.00  0.00    +0.150 C 
ATOM     11  S   UNL     1       1.942   6.591   3.234  0.00  0.00    -0.078 S 
ENDROOT
BRANCH   4  12
ATOM     12  C   UNL     1       1.159   3.147   0.019  0.00  0.00    -0.025 A 
ATOM     13  C   UNL     1       1.171   1.764   0.017  0.00  0.00    +0.008 A 
ATOM     14  C   UNL     1      -0.020   1.063   0.023  0.00  0.00    +0.038 A 
ATOM     15  C   UNL     1      -1.225   1.746   0.025  0.00  0.00    +0.123 A 
ATOM     16  C   UNL     1      -1.235   3.130   0.032  0.00  0.00    +0.038 A 
ATOM     17  C   UNL     1      -0.043   3.829   0.026  0.00  0.00    +0.008 A 
ATOM     18  F   UNL     1      -2.390   1.061   0.025  0.00  0.00    -0.205 F 
ENDBRANCH   4  12
BRANCH   1  22
ATOM     19  C   UNL     1       3.531   8.774  -4.300  0.00  0.00    +0.000 A 
ATOM     20  C   UNL     1       3.291   9.210  -3.009  0.00  0.00    +0.001 A 
ATOM     21  C   UNL     1       3.050   8.298  -2.003  0.00  0.00    +0.010 A 
ATOM     22  C   UNL     1       3.049   6.931  -2.289  0.00  0.00    -0.002 A 
ATOM     23  C   UNL     1       3.297   6.497  -3.594  0.00  0.00    +0.010 A 
ATOM     24  C   UNL     1       3.532   7.421  -4.591  0.00  0.00    +0.001 A 
ENDBRANCH   1  22
BRANCH  10  25
ATOM     25  C   UNL     1       2.679   5.929   5.838  0.00  0.00    +0.120 C 
BRANCH  25  26
ATOM     26  C   UNL     1       2.521   7.311   6.417  0.00  0.00    +0.219 C 
ATOM     27  O   UNL     1       1.624   8.031   6.032  0.00  0.00    -0.275 OA
ATOM     28  N   UNL     1       3.377   7.748   7.362  0.00  0.00    -0.285 N 
ATOM     29  H   UNL     1       4.143   7.070   7.766  0.00  0.00    +0.155 HD
BRANCH  28  30
ATOM     30  C   UNL     1       3.291   9.066   7.830  0.00  0.00    +0.037 A 
ATOM     31  C   UNL     1       4.445   9.754   8.182  0.00  0.00    +0.027 A 
ATOM     32  C   UNL     1       4.362  11.055   8.640  0.00  0.00    +0.051 A 
ATOM     33  C   UNL     1       3.128  11.673   8.759  0.00  0.00    +0.166 A 
ATOM     34  C   UNL     1       1.968  10.983   8.412  0.00  0.00    +0.168 A 
ATOM     35  C   UNL     1       2.053   9.681   7.948  0.00  0.00    +0.072 A 
ATOM     36  O   UNL     1       0.895  11.802   8.617  0.00  0.00    -0.453 OA
ATOM     37  C   UNL     1       1.373  12.854   9.477  0.00  0.00    +0.466 C 
ATOM     38  O   UNL     1       2.780  12.925   9.181  0.00  0.00    -0.453 OA
ENDBRANCH  28  30
ENDBRANCH  25  26
ENDBRANCH  10  25
TORSDOF 5
