REMARK  Name = ZINC12951074
REMARK  14 active torsions:
REMARK  status: ('A' for Active; 'I' for Inactive)
REMARK    1  A    between atoms: C_1  and  C_2
REMARK    2  A    between atoms: C_2  and  O_3
REMARK    3  A    between atoms: O_3  and  C_4
REMARK    4  A    between atoms: C_4  and  C_6
REMARK    5  A    between atoms: C_10  and  N_11
REMARK    6  A    between atoms: C_12  and  C_14
REMARK    7  A    between atoms: C_14  and  O_15
REMARK    8  A    between atoms: O_15  and  C_16
REMARK    9  A    between atoms: C_19  and  C_22
REMARK   10  A    between atoms: C_22  and  C_24
REMARK   11  A    between atoms: C_25  and  C_30
REMARK   12  A    between atoms: C_25  and  C_31
REMARK   13  A    between atoms: C_26  and  C_28
REMARK   14  A    between atoms: C_26  and  C_29
REMARK                            x       y       z     vdW  Elec       q    Type
REMARK                         _______ _______ _______ _____ _____    ______ ____
ROOT
ATOM      1  C   UNL     1       2.843   6.728   0.011  0.00  0.00    +0.091 A 
ATOM      2  C   UNL     1       2.364   8.094   0.018  0.00  0.00    -0.024 A 
ATOM      3  C   UNL     1       1.019   8.241   0.037  0.00  0.00    -0.016 A 
ATOM      4  S   UNL     1       0.389   6.587   0.036  0.00  0.00    -0.079 S 
ATOM      5  C   UNL     1       1.888   5.717   0.015  0.00  0.00    +0.086 A 
ATOM      6  C   UNL     1       0.265   9.530   0.064  0.00  0.00    -0.041 C 
ATOM      7  C   UNL     1       2.447  10.437  -0.741  0.00  0.00    -0.069 C 
ATOM      8  C   UNL     1       3.232   9.345  -0.003  0.00  0.00    +0.024 C 
ATOM      9  C   UNL     1       2.306  10.049  -2.216  0.00  0.00    -0.010 C 
ATOM     10  C   UNL     1       3.269  11.738  -0.670  0.00  0.00    -0.010 C 
ATOM     11  C   UNL     1      -0.829   9.503  -1.013  0.00  0.00    -0.005 C 
ATOM     12  C   UNL     1      -0.423   9.661   1.436  0.00  0.00    -0.005 C 
ATOM     13  N   UNL     1       1.130  10.730  -0.120  0.00  0.00    +0.389 N 
ATOM     14  H   UNL     1       1.295  11.154   0.801  0.00  0.00    -0.084 HD
ATOM     15  H   UNL     1       0.632  11.399  -0.719  0.00  0.00    -0.084 HD
ENDROOT
BRANCH   5  16
ATOM     16  N   UNL     1       2.088   4.345   0.005  0.00  0.00    -0.277 N 
ATOM     17  C   UNL     1       1.030   3.510   0.011  0.00  0.00    +0.255 C 
ATOM     18  O   UNL     1      -0.097   3.958   0.024  0.00  0.00    -0.272 OA
ATOM     19  H   UNL     1       2.989   3.986  -0.005  0.00  0.00    +0.155 HD
BRANCH  17  20
ATOM     20  C   UNL     1       1.248   2.018   0.001  0.00  0.00    +0.324 C 
BRANCH  20  21
ATOM     21  O   UNL     1      -0.016   1.352   0.009  0.00  0.00    -0.483 OA
BRANCH  21  22
ATOM     22  C   UNL     1       0.002  -0.004   0.002  0.00  0.00    +0.121 A 
ATOM     23  C   UNL     1       1.217  -0.680  -0.019  0.00  0.00    +0.046 A 
ATOM     24  C   UNL     1       1.241  -2.051  -0.022  0.00  0.00    +0.015 A 
ATOM     25  C   UNL     1       0.040  -2.771  -0.014  0.00  0.00    +0.017 A 
ATOM     26  C   UNL     1      -1.181  -2.084   0.002  0.00  0.00    +0.015 A 
ATOM     27  C   UNL     1      -1.194  -0.713   0.010  0.00  0.00    +0.046 A 
BRANCH  25  28
ATOM     28  C   UNL     1       0.059  -4.239  -0.022  0.00  0.00    +0.160 C 
ATOM     29  O   UNL     1      -0.983  -4.860  -0.015  0.00  0.00    -0.292 OA
ATOM     30  C   UNL     1       1.375  -4.975  -0.039  0.00  0.00    +0.091 C 
ENDBRANCH  25  28
ENDBRANCH  21  22
ENDBRANCH  20  21
ENDBRANCH  17  20
ENDBRANCH   5  16
BRANCH   1  31
ATOM     31  C   UNL     1       4.273   6.410   0.005  0.00  0.00    +0.342 C 
ATOM     32  O   UNL     1       4.862   6.279  -1.051  0.00  0.00    -0.245 OA
BRANCH  31  33
ATOM     33  O   UNL     1       4.936   6.262   1.170  0.00  0.00    -0.461 OA
BRANCH  33  35
ATOM     34  C   UNL     1       6.928   5.819   2.499  0.00  0.00    +0.048 C 
ATOM     35  C   UNL     1       6.351   5.948   1.088  0.00  0.00    +0.229 C 
ENDBRANCH  33  35
ENDBRANCH  31  33
ENDBRANCH   1  31
TORSDOF 8
