REMARK  Name = ZINC03058966
REMARK  13 active torsions:
REMARK  status: ('A' for Active; 'I' for Inactive)
REMARK    1  A    between atoms: C_1  and  C_2
REMARK    2  A    between atoms: C_2  and  O_3
REMARK    3  A    between atoms: O_3  and  C_4
REMARK    4  A    between atoms: C_9  and  N_10
REMARK    5  A    between atoms: N_10  and  C_11
REMARK    6  A    between atoms: C_11  and  S_24
REMARK    7  A    between atoms: C_12  and  C_13
REMARK    8  A    between atoms: C_12  and  C_15
REMARK    9  A    between atoms: N_17  and  C_18
REMARK   10  A    between atoms: C_18  and  C_19
REMARK   11  A    between atoms: S_24  and  C_25
REMARK   12  A    between atoms: C_25  and  C_26
REMARK   13  A    between atoms: C_30  and  N_32
REMARK                            x       y       z     vdW  Elec       q    Type
REMARK                         _______ _______ _______ _____ _____    ______ ____
ROOT
ATOM      1  C   UNL     1       2.550  -2.071  -4.506  0.00  0.00    +0.089 C 
ATOM      2  C   UNL     1       3.166  -1.277  -5.479  0.00  0.00    +0.141 C 
ENDROOT
BRANCH   2   3
ATOM      3  C   UNL     1       3.244   0.171  -5.298  0.00  0.00    +0.257 C 
ATOM      4  O   UNL     1       2.863   0.676  -4.257  0.00  0.00    -0.269 OA
ATOM      5  N   UNL     1       3.737   0.948  -6.283  0.00  0.00    -0.306 N 
ATOM      6  H   UNL     1       4.040   0.545  -7.112  0.00  0.00    +0.149 HD
BRANCH   5   7
ATOM      7  C   UNL     1       3.815   2.399  -6.102  0.00  0.00    +0.147 C 
BRANCH   7   8
ATOM      8  C   UNL     1       4.398   3.029  -7.340  0.00  0.00    +0.007 A 
ATOM      9  C   UNL     1       3.760   3.494  -8.443  0.00  0.00    +0.013 A 
ATOM     10  C   UNL     1       4.508   4.039  -9.470  0.00  0.00    +0.008 A 
ATOM     11  C   UNL     1       5.857   4.094  -9.344  0.00  0.00    +0.045 A 
ATOM     12  S   UNL     1       6.107   3.365  -7.733  0.00  0.00    -0.100 S 
ENDBRANCH   7   8
ENDBRANCH   5   7
ENDBRANCH   2   3
BRANCH   1  13
ATOM     13  N   UNL     1       1.915  -1.485  -3.448  0.00  0.00    -0.305 N 
ATOM     14  H   UNL     1       2.389  -1.349  -2.613  0.00  0.00    +0.153 HD
BRANCH  13  20
ATOM     15  C   UNL     1      -0.101  -0.578  -2.462  0.00  0.00    +0.142 A 
ATOM     16  C   UNL     1      -1.420  -0.174  -2.589  0.00  0.00    +0.047 A 
ATOM     17  C   UNL     1      -2.059  -0.274  -3.811  0.00  0.00    +0.004 A 
ATOM     18  C   UNL     1      -1.386  -0.777  -4.909  0.00  0.00    +0.002 A 
ATOM     19  C   UNL     1      -0.070  -1.183  -4.791  0.00  0.00    +0.027 A 
ATOM     20  C   UNL     1       0.580  -1.080  -3.569  0.00  0.00    +0.074 A 
BRANCH  15  21
ATOM     21  O   UNL     1       0.529  -0.480  -1.261  0.00  0.00    -0.490 OA
BRANCH  21  23
ATOM     22  C   UNL     1       0.639   0.078   1.088  0.00  0.00    +0.048 C 
ATOM     23  C   UNL     1      -0.231   0.043  -0.170  0.00  0.00    +0.226 C 
ENDBRANCH  21  23
ENDBRANCH  15  21
ENDBRANCH  13  20
ENDBRANCH   1  13
BRANCH   2  24
ATOM     24  C   UNL     1       3.721  -1.883  -6.651  0.00  0.00    +0.107 C 
ATOM     25  N   UNL     1       4.162  -2.364  -7.582  0.00  0.00    -0.191 NA
ENDBRANCH   2  24
BRANCH   1  26
ATOM     26  S   UNL     1       2.592  -3.827  -4.646  0.00  0.00    -0.104 S 
BRANCH  26  27
ATOM     27  C   UNL     1       1.820  -4.408  -3.111  0.00  0.00    +0.110 C 
BRANCH  27  28
ATOM     28  C   UNL     1       1.902  -5.911  -3.045  0.00  0.00    -0.035 A 
ATOM     29  C   UNL     1       0.888  -6.683  -3.582  0.00  0.00    +0.004 A 
ATOM     30  C   UNL     1       0.963  -8.062  -3.522  0.00  0.00    +0.003 A 
ATOM     31  C   UNL     1       2.053  -8.669  -2.925  0.00  0.00    +0.033 A 
ATOM     32  C   UNL     1       3.067  -7.897  -2.390  0.00  0.00    +0.126 A 
ATOM     33  C   UNL     1       2.994  -6.518  -2.454  0.00  0.00    +0.037 A 
BRANCH  32  34
ATOM     34  N   UNL     1       4.233  -8.548  -1.751  0.00  0.00    +0.056 N 
ATOM     35  O   UNL     1       4.299  -9.754  -1.697  0.00  0.00    -0.126 OA
ATOM     36  O   UNL     1       5.120  -7.873  -1.282  0.00  0.00    -0.126 OA
ENDBRANCH  32  34
ENDBRANCH  27  28
ENDBRANCH  26  27
ENDBRANCH   1  26
TORSDOF 12
