REMARK  Name = ZINC16690145
REMARK  8 active torsions:
REMARK  status: ('A' for Active; 'I' for Inactive)
REMARK    1  A    between atoms: C_1  and  C_2
REMARK    2  A    between atoms: C_2  and  C_3
REMARK    3  A    between atoms: C_8  and  O_30
REMARK    4  A    between atoms: C_9  and  C_11
REMARK    5  A    between atoms: C_11  and  C_13
REMARK    6  A    between atoms: C_11  and  N_20
REMARK    7  A    between atoms: C_22  and  C_29
REMARK    8  A    between atoms: C_25  and  C_28
REMARK                            x       y       z     vdW  Elec       q    Type
REMARK                         _______ _______ _______ _____ _____    ______ ____
ROOT
ATOM      1  C   UNL     1      -1.360  -0.549   0.069  0.00  0.00    +0.130 C 
ENDROOT
BRANCH   1   8
ATOM      2  C   UNL     1      -4.456   1.084   4.897  0.00  0.00    +0.152 A 
ATOM      3  N   UNL     1      -3.211   0.651   5.079  0.00  0.00    -0.205 NA
ATOM      4  C   UNL     1      -2.688   0.339   3.925  0.00  0.00    +0.199 A 
ATOM      5  N   UNL     1      -3.597   0.565   2.936  0.00  0.00    -0.173 N 
ATOM      6  N   UNL     1      -4.740   1.052   3.622  0.00  0.00    -0.147 NA
ATOM      7  C   UNL     1      -3.207   0.292   1.647  0.00  0.00    +0.228 A 
ATOM      8  C   UNL     1      -1.983  -0.184   1.393  0.00  0.00    +0.076 A 
ATOM      9  S   UNL     1      -1.277  -0.268   3.032  0.00  0.00    -0.047 S 
BRANCH   2  11
ATOM     10  C   UNL     1      -5.218   3.041   6.215  0.00  0.00    +0.012 C 
ATOM     11  C   UNL     1      -5.391   1.538   5.988  0.00  0.00    +0.075 C 
ENDBRANCH   2  11
BRANCH   7  12
ATOM     12  O   UNL     1      -4.074   0.506   0.621  0.00  0.00    -0.492 OA
ATOM     13  H   UNL     1      -3.767   0.289  -0.413  0.00  0.00    +0.294 HD
ENDBRANCH   7  12
ENDBRANCH   1   8
BRANCH   1  14
ATOM     14  N   UNL     1       0.002  -0.004   0.002  0.00  0.00    -0.286 NA
ATOM     15  C   UNL     1      -0.018   1.466   0.010  0.00  0.00    +0.116 C 
ATOM     16  C   UNL     1       1.420   1.990  -0.001  0.00  0.00    +0.130 C 
ATOM     17  O   UNL     1       2.106   1.465  -1.141  0.00  0.00    -0.371 OA
ATOM     18  C   UNL     1       2.145   0.035  -1.180  0.00  0.00    +0.130 C 
ATOM     19  C   UNL     1       0.714  -0.509  -1.181  0.00  0.00    +0.116 C 
ATOM     20  C   UNL     1       2.866  -0.422  -2.449  0.00  0.00    +0.039 C 
ATOM     21  C   UNL     1       1.406   3.519  -0.073  0.00  0.00    +0.039 C 
ENDBRANCH   1  14
BRANCH   1  22
ATOM     22  C   UNL     1      -1.308  -2.050  -0.065  0.00  0.00    -0.024 A 
ATOM     23  C   UNL     1      -0.303  -2.765   0.560  0.00  0.00    +0.005 A 
ATOM     24  C   UNL     1      -0.257  -4.141   0.442  0.00  0.00    +0.002 A 
ATOM     25  C   UNL     1      -1.210  -4.802  -0.310  0.00  0.00    +0.020 A 
ATOM     26  C   UNL     1      -2.213  -4.087  -0.940  0.00  0.00    +0.041 A 
ATOM     27  C   UNL     1      -2.261  -2.710  -0.816  0.00  0.00    +0.025 A 
ATOM     28 CL   UNL     1      -3.410  -4.917  -1.884  0.00  0.00    -0.084 Cl
ENDBRANCH   1  22
TORSDOF 5
