REMARK  Name = ZINC04277544
REMARK  4 active torsions:
REMARK  status: ('A' for Active; 'I' for Inactive)
REMARK    1  A    between atoms: C_1  and  C_2
REMARK    2  A    between atoms: C_1  and  S_6
REMARK    3  A    between atoms: S_6  and  C_7
REMARK    4  A    between atoms: C_7  and  C_8
REMARK                            x       y       z     vdW  Elec       q    Type
REMARK                         _______ _______ _______ _____ _____    ______ ____
ROOT
ATOM      1  S   UNL     1       1.940  -2.373  -1.740  0.00  0.00    -0.145 S 
ENDROOT
BRANCH   1   2
ATOM      2  C   UNL     1       1.756  -1.813  -0.025  0.00  0.00    +0.149 C 
BRANCH   2   3
ATOM      3  C   UNL     1       1.254  -0.392  -0.012  0.00  0.00    +0.186 A 
ATOM      4  N   UNL     1       1.193   1.728  -0.000  0.00  0.00    -0.021 NA
ATOM      5  N   UNL     1      -0.015   1.284   0.009  0.00  0.00    -0.021 NA
ATOM      6  N   UNL     1       0.002  -0.004   0.002  0.00  0.00    -0.110 NA
ATOM      7  N   UNL     1       1.990   0.725  -0.013  0.00  0.00    -0.110 NA
ENDBRANCH   2   3
ENDBRANCH   1   2
BRANCH   1   8
ATOM      8  C   UNL     1       2.543  -4.077  -1.583  0.00  0.00    +0.149 C 
BRANCH   8   9
ATOM      9  C   UNL     1       2.741  -4.669  -2.954  0.00  0.00    +0.186 A 
ATOM     10  N   UNL     1       2.395  -5.677  -4.788  0.00  0.00    -0.021 NA
ATOM     11  N   UNL     1       3.607  -5.243  -4.782  0.00  0.00    -0.021 NA
ATOM     12  N   UNL     1       3.836  -4.626  -3.674  0.00  0.00    -0.110 NA
ATOM     13  N   UNL     1       1.844  -5.345  -3.680  0.00  0.00    -0.110 NA
ENDBRANCH   8   9
ENDBRANCH   1   8
TORSDOF 4
