REMARK  Name = ZINC17143951
REMARK  8 active torsions:
REMARK  status: ('A' for Active; 'I' for Inactive)
REMARK    1  A    between atoms: C_1  and  C_2
REMARK    2  A    between atoms: C_9  and  C_26
REMARK    3  A    between atoms: C_10  and  N_25
REMARK    4  A    between atoms: C_12  and  C_24
REMARK    5  A    between atoms: C_13  and  C_14
REMARK    6  A    between atoms: C_14  and  O_16
REMARK    7  A    between atoms: O_16  and  C_17
REMARK    8  A    between atoms: C_17  and  C_18
REMARK                            x       y       z     vdW  Elec       q    Type
REMARK                         _______ _______ _______ _____ _____    ______ ____
ROOT
ATOM      1  C   UNL     1       0.134   3.317  -2.786  0.00  0.00    +0.044 C 
ATOM      2  C   UNL     1      -1.159   4.061  -2.575  0.00  0.00    -0.044 A 
ATOM      3  C   UNL     1      -1.801   4.654  -3.648  0.00  0.00    +0.004 A 
ATOM      4  C   UNL     1      -2.987   5.335  -3.450  0.00  0.00    +0.002 A 
ATOM      5  C   UNL     1      -3.535   5.428  -2.188  0.00  0.00    +0.023 A 
ATOM      6  C   UNL     1      -2.896   4.834  -1.101  0.00  0.00    +0.039 A 
ATOM      7  C   UNL     1      -1.704   4.152  -1.313  0.00  0.00    +0.002 A 
ATOM      8  C   UNL     1      -1.270   3.635   0.035  0.00  0.00    +0.148 C 
ATOM      9  C   UNL     1       0.059   4.218   0.419  0.00  0.00    +0.110 C 
ATOM     10  C   UNL     1       1.181   3.456   0.383  0.00  0.00    +0.199 C 
ATOM     11  O   UNL     1       1.146   2.167   0.003  0.00  0.00    -0.445 OA
ATOM     12  C   UNL     1      -0.018   1.503   0.010  0.00  0.00    +0.116 C 
ATOM     13  C   UNL     1      -1.201   2.135   0.019  0.00  0.00    +0.099 C 
ATOM     14  C   UNL     1       0.002  -0.004   0.002  0.00  0.00    +0.087 C 
ATOM     15  C   UNL     1      -2.346   4.107   0.983  0.00  0.00    +0.238 C 
ATOM     16  O   UNL     1      -2.393   3.909   2.179  0.00  0.00    -0.274 OA
ATOM     17  N   UNL     1      -3.244   4.789   0.250  0.00  0.00    -0.284 N 
ATOM     18  H   UNL     1      -4.041   5.202   0.617  0.00  0.00    +0.155 HD
ENDROOT
BRANCH  10  19
ATOM     19  N   UNL     1       2.381   4.015   0.742  0.00  0.00    -0.328 N 
ATOM     20  H   UNL     1       3.191   3.482   0.720  0.00  0.00    +0.145 HD
ATOM     21  H   UNL     1       2.420   4.944   1.018  0.00  0.00    +0.145 HD
ENDBRANCH  10  19
BRANCH  13  22
ATOM     22  C   UNL     1      -2.399   1.379   0.019  0.00  0.00    +0.340 C 
ATOM     23  O   UNL     1      -2.351   0.163   0.010  0.00  0.00    -0.245 OA
BRANCH  22  24
ATOM     24  O   UNL     1      -3.593   2.007   0.028  0.00  0.00    -0.457 OA
BRANCH  24  25
ATOM     25  C   UNL     1      -4.760   1.182   0.027  0.00  0.00    +0.268 C 
BRANCH  25  26
ATOM     26  C   UNL     1      -5.990   2.052   0.038  0.00  0.00    -0.010 A 
ATOM     27  C   UNL     1      -6.553   2.438   1.240  0.00  0.00    +0.007 A 
ATOM     28  C   UNL     1      -7.679   3.240   1.250  0.00  0.00    +0.000 A 
ATOM     29  C   UNL     1      -8.248   3.647   0.058  0.00  0.00    +0.000 A 
ATOM     30  C   UNL     1      -7.688   3.257  -1.144  0.00  0.00    +0.000 A 
ATOM     31  C   UNL     1      -6.559   2.459  -1.154  0.00  0.00    +0.007 A 
ENDBRANCH  25  26
ENDBRANCH  24  25
ENDBRANCH  22  24
ENDBRANCH  13  22
BRANCH   9  32
ATOM     32  C   UNL     1       0.143   5.589   0.827  0.00  0.00    +0.102 C 
ATOM     33  N   UNL     1       0.210   6.676   1.150  0.00  0.00    -0.191 NA
ENDBRANCH   9  32
TORSDOF 6
