REMARK  Name = ZINC28053305
REMARK  4 active torsions:
REMARK  status: ('A' for Active; 'I' for Inactive)
REMARK    1  A    between atoms: C_1  and  O_2
REMARK    2  A    between atoms: O_2  and  C_3
REMARK    3  A    between atoms: C_6  and  C_9
REMARK    4  A    between atoms: C_26  and  C_28
REMARK                            x       y       z     vdW  Elec       q    Type
REMARK                         _______ _______ _______ _____ _____    ______ ____
ROOT
ATOM      1  C   UNL     1       3.411   3.269  -0.736  0.00  0.00    +0.234 C 
ATOM      2  C   UNL     1       3.424   1.814  -0.325  0.00  0.00    +0.025 C 
ATOM      3  C   UNL     1       2.280   1.231   0.039  0.00  0.00    +0.050 C 
ATOM      4  C   UNL     1       1.042   2.047   0.043  0.00  0.00    +0.038 A 
ATOM      5  C   UNL     1      -0.216   1.459   0.073  0.00  0.00    +0.013 A 
ATOM      6  C   UNL     1      -1.342   2.260   0.075  0.00  0.00    +0.001 A 
ATOM      7  C   UNL     1      -1.218   3.638   0.061  0.00  0.00    +0.004 A 
ATOM      8  C   UNL     1       0.031   4.232   0.030  0.00  0.00    +0.046 A 
ATOM      9  C   UNL     1       1.166   3.442   0.020  0.00  0.00    +0.131 A 
ATOM     10  O   UNL     1       2.409   3.985  -0.014  0.00  0.00    -0.479 OA
ATOM     11  N   UNL     1       2.216  -0.114   0.423  0.00  0.00    -0.282 N 
ATOM     12  C   UNL     1       3.414  -0.753   0.694  0.00  0.00    +0.240 A 
ATOM     13  N   UNL     1       3.669  -1.887   1.281  0.00  0.00    -0.092 NA
ATOM     14  N   UNL     1       4.942  -2.089   1.327  0.00  0.00    -0.021 NA
ATOM     15  N   UNL     1       5.575  -1.105   0.775  0.00  0.00    -0.042 NA
ATOM     16  N   UNL     1       4.605  -0.203   0.340  0.00  0.00    -0.201 N 
ATOM     17  C   UNL     1       4.736   1.070  -0.354  0.00  0.00    +0.174 C 
ATOM     18  H   UNL     1       1.242  -0.618   0.498  0.00  0.00    +0.155 HD
ENDROOT
BRANCH   1  22
ATOM     19  C   UNL     1       2.596   3.543  -4.922  0.00  0.00    +0.120 A 
ATOM     20  C   UNL     1       3.878   3.778  -4.447  0.00  0.00    +0.046 A 
ATOM     21  C   UNL     1       4.139   3.689  -3.093  0.00  0.00    +0.011 A 
ATOM     22  C   UNL     1       3.123   3.366  -2.212  0.00  0.00    -0.003 A 
ATOM     23  C   UNL     1       1.846   3.127  -2.684  0.00  0.00    +0.011 A 
ATOM     24  C   UNL     1       1.579   3.220  -4.036  0.00  0.00    +0.046 A 
BRANCH  19  26
ATOM     25  C   UNL     1       0.995   3.376  -6.671  0.00  0.00    +0.277 C 
ATOM     26  O   UNL     1       2.337   3.630  -6.254  0.00  0.00    -0.495 OA
ENDBRANCH  19  26
ENDBRANCH   1  22
BRANCH  17  27
ATOM     27  C   UNL     1       5.138   0.820  -1.785  0.00  0.00    -0.019 A 
ATOM     28  C   UNL     1       4.324   0.065  -2.609  0.00  0.00    +0.006 A 
ATOM     29  C   UNL     1       4.691  -0.160  -3.923  0.00  0.00    +0.000 A 
ATOM     30  C   UNL     1       5.875   0.361  -4.410  0.00  0.00    +0.000 A 
ATOM     31  C   UNL     1       6.691   1.112  -3.584  0.00  0.00    +0.000 A 
ATOM     32  C   UNL     1       6.322   1.341  -2.271  0.00  0.00    +0.006 A 
ENDBRANCH  17  27
TORSDOF 3
