REMARK  Name = ZINC06409254
REMARK  10 active torsions:
REMARK  status: ('A' for Active; 'I' for Inactive)
REMARK    1  A    between atoms: C_1  and  C_2
REMARK    2  A    between atoms: C_9  and  C_14
REMARK    3  A    between atoms: C_14  and  C_16
REMARK    4  A    between atoms: C_14  and  N_69
REMARK    5  A    between atoms: N_20  and  C_21
REMARK    6  A    between atoms: C_21  and  C_22
REMARK    7  A    between atoms: C_28  and  C_29
REMARK    8  A    between atoms: C_28  and  N_69
REMARK    9  A    between atoms: C_34  and  C_35
REMARK   10  A    between atoms: C_34  and  N_69
REMARK                            x       y       z     vdW  Elec       q    Type
REMARK                         _______ _______ _______ _____ _____    ______ ____
ROOT
ATOM      1  C   UNL     1      -0.898   4.673  -0.951  0.00  0.00    +0.039 C 
ENDROOT
BRANCH   1  10
ATOM      2  C   UNL     1       5.320   4.528  -5.065  0.00  0.00    +0.044 C 
ATOM      3  C   UNL     1       4.577   4.204  -3.795  0.00  0.00    -0.050 A 
ATOM      4  C   UNL     1       5.232   3.545  -2.763  0.00  0.00    +0.005 A 
ATOM      5  C   UNL     1       4.572   3.239  -1.593  0.00  0.00    +0.026 A 
ATOM      6  C   UNL     1       3.235   3.592  -1.442  0.00  0.00    +0.049 A 
ATOM      7  C   UNL     1       2.574   4.259  -2.490  0.00  0.00    -0.001 A 
ATOM      8  C   UNL     1       3.264   4.560  -3.669  0.00  0.00    +0.013 A 
ATOM      9  C   UNL     1       1.165   4.622  -2.324  0.00  0.00    +0.017 A 
ATOM     10  C   UNL     1       0.550   4.309  -1.157  0.00  0.00    +0.011 A 
ATOM     11  C   UNL     1       1.258   3.640  -0.136  0.00  0.00    +0.251 A 
ATOM     12  O   UNL     1       0.684   3.364   0.903  0.00  0.00    -0.268 OA
ATOM     13  N   UNL     1       2.550   3.298  -0.282  0.00  0.00    -0.322 N 
ATOM     14  H   UNL     1       3.007   2.838   0.439  0.00  0.00    +0.169 HD
ENDBRANCH   1  10
BRANCH   1  15
ATOM     15  C   UNL     1      -1.022   5.590   0.237  0.00  0.00    +0.143 A 
ATOM     16  N   UNL     1      -0.921   5.253   1.500  0.00  0.00    -0.115 NA
ATOM     17  N   UNL     1      -1.086   6.316   2.210  0.00  0.00    -0.023 NA
ATOM     18  N   UNL     1      -1.289   7.322   1.433  0.00  0.00    -0.044 NA
ATOM     19  N   UNL     1      -1.252   6.916   0.209  0.00  0.00    -0.228 N 
BRANCH  19  20
ATOM     20  C   UNL     1      -1.430   7.743  -0.988  0.00  0.00    +0.178 C 
BRANCH  20  21
ATOM     21  C   UNL     1      -2.924   7.926  -1.263  0.00  0.00    +0.140 C 
ATOM     22  C   UNL     1      -3.135   8.819  -2.512  0.00  0.00    +0.035 C 
ATOM     23  C   UNL     1      -4.544   8.351  -2.973  0.00  0.00    +0.031 C 
ATOM     24  C   UNL     1      -4.532   6.853  -2.599  0.00  0.00    +0.160 C 
ATOM     25  O   UNL     1      -3.529   6.666  -1.593  0.00  0.00    -0.375 OA
ENDBRANCH  20  21
ENDBRANCH  19  20
ENDBRANCH   1  15
BRANCH   1  26
ATOM     26  N   UNL     1      -1.670   3.440  -0.688  0.00  0.00    +0.396 N 
ATOM     27  H   UNL     1      -1.310   2.998   0.166  0.00  0.00    -0.080 HD
BRANCH  26  28
ATOM     28  C   UNL     1      -3.098   3.769  -0.493  0.00  0.00    -0.002 C 
BRANCH  28  29
ATOM     29  C   UNL     1      -3.311   4.144   0.951  0.00  0.00    +0.089 A 
ATOM     30  C   UNL     1      -3.375   5.397   1.438  0.00  0.00    +0.042 A 
ATOM     31  C   UNL     1      -3.579   5.285   2.832  0.00  0.00    +0.041 A 
ATOM     32  C   UNL     1      -3.628   3.971   3.115  0.00  0.00    +0.195 A 
ATOM     33  O   UNL     1      -3.465   3.285   1.972  0.00  0.00    -0.470 OA
ENDBRANCH  28  29
ENDBRANCH  26  28
BRANCH  26  34
ATOM     34  C   UNL     1      -1.519   2.498  -1.817  0.00  0.00    -0.045 C 
BRANCH  34  35
ATOM     35  C   UNL     1      -0.247   1.676  -1.599  0.00  0.00    +0.102 C 
ATOM     36  C   UNL     1      -0.143   0.575  -2.677  0.00  0.00    +0.032 C 
ATOM     37  C   UNL     1       0.405  -0.630  -1.866  0.00  0.00    +0.030 C 
ATOM     38  C   UNL     1      -0.279  -0.398  -0.495  0.00  0.00    +0.160 C 
ATOM     39  O   UNL     1      -0.299   1.028  -0.322  0.00  0.00    -0.378 OA
ENDBRANCH  34  35
ENDBRANCH  26  34
ENDBRANCH   1  26
TORSDOF 9
