REMARK  Name = ZINC35465929
REMARK  17 active torsions:
REMARK  status: ('A' for Active; 'I' for Inactive)
REMARK    1  A    between atoms: C_1  and  C_2
REMARK    2  A    between atoms: C_3  and  C_10
REMARK    3  A    between atoms: C_4  and  C_8
REMARK    4  A    between atoms: C_4  and  C_9
REMARK    5  A    between atoms: C_10  and  O_12
REMARK    6  A    between atoms: O_12  and  C_13
REMARK    7  A    between atoms: C_15  and  O_44
REMARK    8  A    between atoms: C_17  and  O_43
REMARK    9  A    between atoms: C_19  and  O_42
REMARK   10  A    between atoms: C_21  and  C_24
REMARK   11  A    between atoms: C_24  and  O_25
REMARK   12  A    between atoms: O_25  and  C_26
REMARK   13  A    between atoms: C_28  and  O_41
REMARK   14  A    between atoms: C_30  and  O_40
REMARK   15  A    between atoms: C_32  and  O_39
REMARK   16  A    between atoms: C_34  and  C_37
REMARK   17  A    between atoms: C_37  and  O_38
REMARK                            x       y       z     vdW  Elec       q    Type
REMARK                         _______ _______ _______ _____ _____    ______ ____
ROOT
ATOM      1  C   UNL     1      -4.820  -0.425  -0.293  0.00  0.00    +0.343 C 
ATOM      2  C   UNL     1      -5.921  -1.475  -0.465  0.00  0.00    +0.214 C 
ATOM      3  C   UNL     1      -5.959  -2.372   0.776  0.00  0.00    +0.180 C 
ATOM      4  C   UNL     1      -6.176  -1.500   2.016  0.00  0.00    +0.177 C 
ATOM      5  C   UNL     1      -5.065  -0.449   2.093  0.00  0.00    +0.179 C 
ATOM      6  O   UNL     1      -5.066   0.331   0.895  0.00  0.00    -0.331 OA
ENDROOT
BRANCH   4   7
ATOM      7  O   UNL     1      -7.445  -0.849   1.927  0.00  0.00    -0.386 OA
ATOM      8  H   UNL     1      -8.195  -1.457   1.871  0.00  0.00    +0.210 HD
ENDBRANCH   4   7
BRANCH   3   9
ATOM      9  O   UNL     1      -7.030  -3.310   0.655  0.00  0.00    -0.386 OA
ATOM     10  H   UNL     1      -6.959  -3.891  -0.114  0.00  0.00    +0.210 HD
ENDBRANCH   3   9
BRANCH   2  11
ATOM     11  O   UNL     1      -5.647  -2.268  -1.621  0.00  0.00    -0.383 OA
ATOM     12  H   UNL     1      -5.605  -1.763  -2.445  0.00  0.00    +0.210 HD
ENDBRANCH   2  11
BRANCH   1  13
ATOM     13  O   UNL     1      -3.552  -1.076  -0.190  0.00  0.00    -0.429 OA
BRANCH  13  14
ATOM     14  C   UNL     1      -2.460  -0.286  -0.137  0.00  0.00    +0.338 C 
ATOM     15  O   UNL     1      -2.582   0.924  -0.177  0.00  0.00    -0.245 OA
BRANCH  14  18
ATOM     16  C   UNL     1      -1.266  -1.331  -2.468  0.00  0.00    +0.044 C 
ATOM     17  C   UNL     1      -0.577  -1.394  -1.129  0.00  0.00    -0.040 C 
ATOM     18  C   UNL     1      -1.170  -0.865  -0.035  0.00  0.00    +0.045 C 
ATOM     19  C   UNL     1      -0.459  -0.891   1.294  0.00  0.00    +0.001 C 
ATOM     20  C   UNL     1       0.355  -2.177   1.425  0.00  0.00    +0.038 C 
ATOM     21  C   UNL     1       1.192  -2.390   0.192  0.00  0.00    -0.026 C 
ATOM     22  C   UNL     1       0.732  -2.034  -1.006  0.00  0.00    -0.001 C 
ATOM     23  C   UNL     1       0.478   0.315   1.391  0.00  0.00    +0.016 C 
ATOM     24  C   UNL     1      -1.489  -0.824   2.423  0.00  0.00    +0.016 C 
ENDBRANCH  14  18
ENDBRANCH  13  14
ENDBRANCH   1  13
BRANCH   5  25
ATOM     25  C   UNL     1      -5.309   0.464   3.296  0.00  0.00    +0.197 C 
BRANCH  25  26
ATOM     26  O   UNL     1      -4.212   1.370   3.436  0.00  0.00    -0.346 OA
BRANCH  26  27
ATOM     27  C   UNL     1      -4.341   2.272   4.537  0.00  0.00    +0.282 C 
ATOM     28  C   UNL     1      -3.253   3.346   4.446  0.00  0.00    +0.201 C 
ATOM     29  C   UNL     1      -3.360   4.273   5.661  0.00  0.00    +0.179 C 
ATOM     30  C   UNL     1      -3.246   3.437   6.939  0.00  0.00    +0.177 C 
ATOM     31  C   UNL     1      -4.334   2.360   6.933  0.00  0.00    +0.178 C 
ATOM     32  O   UNL     1      -4.197   1.552   5.762  0.00  0.00    -0.341 OA
BRANCH  30  33
ATOM     33  O   UNL     1      -1.960   2.817   6.992  0.00  0.00    -0.386 OA
ATOM     34  H   UNL     1      -1.222   3.442   6.994  0.00  0.00    +0.210 HD
ENDBRANCH  30  33
BRANCH  29  35
ATOM     35  O   UNL     1      -2.304   5.235   5.622  0.00  0.00    -0.386 OA
ATOM     36  H   UNL     1      -2.312   5.796   4.834  0.00  0.00    +0.210 HD
ENDBRANCH  29  35
BRANCH  28  37
ATOM     37  O   UNL     1      -1.967   2.723   4.431  0.00  0.00    -0.384 OA
ATOM     38  H   UNL     1      -1.832   2.117   3.689  0.00  0.00    +0.210 HD
ENDBRANCH  28  37
BRANCH  31  39
ATOM     39  C   UNL     1      -4.190   1.482   8.178  0.00  0.00    +0.190 C 
BRANCH  39  40
ATOM     40  O   UNL     1      -5.274   0.552   8.233  0.00  0.00    -0.392 OA
ATOM     41  H   UNL     1      -5.247  -0.038   8.999  0.00  0.00    +0.210 HD
ENDBRANCH  39  40
ENDBRANCH  31  39
ENDBRANCH  26  27
ENDBRANCH  25  26
ENDBRANCH   5  25
TORSDOF 14
