REMARK  Name = ZINC54371042
REMARK  6 active torsions:
REMARK  status: ('A' for Active; 'I' for Inactive)
REMARK    1  A    between atoms: C_1  and  C_2
REMARK    2  A    between atoms: C_4  and  N_20
REMARK    3  A    between atoms: C_5  and  S_9
REMARK    4  A    between atoms: C_7  and  C_8
REMARK    5  A    between atoms: S_9  and  N_12
REMARK    6  A    between atoms: C_17  and  C_19
REMARK                            x       y       z     vdW  Elec       q    Type
REMARK                         _______ _______ _______ _____ _____    ______ ____
ROOT
ATOM      1  S   UNL     1       0.074  -4.193  -0.112  0.00  0.00    +0.063 S 
ATOM      2  O   UNL     1       1.257  -4.532  -0.823  0.00  0.00    -0.153 OA
ATOM      3  O   UNL     1      -0.121  -4.541   1.252  0.00  0.00    -0.153 OA
ENDROOT
BRANCH   1   4
ATOM      4  N   UNL     1      -1.190  -4.853  -0.954  0.00  0.00    -0.177 NA
ATOM      5  C   UNL     1      -2.219  -5.652  -0.271  0.00  0.00    +0.091 C 
ATOM      6  C   UNL     1      -2.393  -6.971  -1.030  0.00  0.00    -0.065 C 
ATOM      7  N   UNL     1      -2.683  -6.688  -2.441  0.00  0.00    +0.381 N 
ATOM      8  C   UNL     1      -1.533  -6.022  -3.065  0.00  0.00    -0.062 C 
ATOM      9  C   UNL     1      -1.319  -4.651  -2.405  0.00  0.00    +0.060 C 
ATOM     10  C   UNL     1      -0.042  -4.009  -2.951  0.00  0.00    +0.024 C 
ATOM     11  H   UNL     1      -2.872  -7.553  -2.925  0.00  0.00    -0.086 HD
ATOM     12  H   UNL     1      -3.492  -6.088  -2.503  0.00  0.00    -0.086 HD
ENDBRANCH   1   4
BRANCH   1  17
ATOM     13  C   UNL     1      -0.486   1.805  -0.457  0.00  0.00    +0.044 C 
ATOM     14  C   UNL     1      -0.346   0.307  -0.370  0.00  0.00    -0.045 A 
ATOM     15  C   UNL     1      -1.290  -0.437   0.313  0.00  0.00    +0.038 A 
ATOM     16  C   UNL     1      -1.161  -1.811   0.392  0.00  0.00    +0.153 A 
ATOM     17  C   UNL     1      -0.090  -2.441  -0.213  0.00  0.00    +0.136 A 
ATOM     18  C   UNL     1       0.853  -1.698  -0.897  0.00  0.00    +0.034 A 
ATOM     19  C   UNL     1       0.723  -0.324  -0.980  0.00  0.00    -0.046 A 
ATOM     20  C   UNL     1       1.748   0.487  -1.730  0.00  0.00    +0.044 C 
BRANCH  16  21
ATOM     21  N   UNL     1      -2.171  -2.608   1.124  0.00  0.00    +0.058 N 
ATOM     22  O   UNL     1      -3.058  -2.051   1.728  0.00  0.00    -0.126 OA
ATOM     23  O   UNL     1      -2.109  -3.815   1.119  0.00  0.00    -0.126 OA
ENDBRANCH  16  21
ENDBRANCH   1  17
TORSDOF 3
