REMARK  Name = ZINC63281504
REMARK  7 active torsions:
REMARK  status: ('A' for Active; 'I' for Inactive)
REMARK    1  A    between atoms: C_1  and  N_2
REMARK    2  A    between atoms: C_3  and  C_25
REMARK    3  A    between atoms: C_5  and  N_8
REMARK    4  A    between atoms: C_9  and  C_11
REMARK    5  A    between atoms: N_13  and  C_14
REMARK    6  A    between atoms: C_14  and  C_15
REMARK    7  A    between atoms: C_15  and  C_16
REMARK                            x       y       z     vdW  Elec       q    Type
REMARK                         _______ _______ _______ _____ _____    ______ ____
ROOT
ATOM      1  N   UNL     1       2.833  -2.040  -1.303  0.00  0.00    -0.278 N 
ATOM      2  C   UNL     1       3.780  -2.735  -0.643  0.00  0.00    +0.303 C 
ATOM      3  O   UNL     1       3.785  -2.753   0.572  0.00  0.00    -0.265 OA
ATOM      4  H   UNL     1       2.829  -2.025  -2.273  0.00  0.00    +0.155 HD
ENDROOT
BRANCH   1   8
ATOM      5  C   UNL     1      -0.018   1.465   0.010  0.00  0.00    +0.129 C 
ATOM      6  N   UNL     1       0.002  -0.004   0.002  0.00  0.00    -0.215 NA
ATOM      7  C   UNL     1       0.730  -0.517  -1.175  0.00  0.00    +0.206 C 
ATOM      8  C   UNL     1       1.857  -1.341  -0.591  0.00  0.00    +0.053 C 
ATOM      9  C   UNL     1       1.738  -1.271   0.728  0.00  0.00    +0.105 C 
ATOM     10  N   UNL     1       0.654  -0.491   1.099  0.00  0.00    -0.283 N 
ATOM     11  H   UNL     1       0.394  -0.313   2.016  0.00  0.00    +0.166 HD
BRANCH   7  12
ATOM     12  C   UNL     1      -0.173  -1.379  -2.019  0.00  0.00    +0.235 C 
ATOM     13  O   UNL     1      -1.325  -1.560  -1.684  0.00  0.00    -0.274 OA
ATOM     14  N   UNL     1       0.298  -1.948  -3.146  0.00  0.00    -0.328 N 
ATOM     15  H   UNL     1       1.219  -1.803  -3.414  0.00  0.00    +0.145 HD
ATOM     16  H   UNL     1      -0.283  -2.502  -3.689  0.00  0.00    +0.145 HD
ENDBRANCH   7  12
ENDBRANCH   1   8
BRANCH   2  17
ATOM     17  C   UNL     1       4.824  -3.482  -1.404  0.00  0.00    +0.299 C 
ATOM     18  O   UNL     1       4.819  -3.464  -2.617  0.00  0.00    -0.265 OA
ATOM     19  N   UNL     1       5.771  -4.177  -0.744  0.00  0.00    -0.307 N 
ATOM     20  H   UNL     1       5.775  -4.191   0.226  0.00  0.00    +0.149 HD
BRANCH  19  21
ATOM     21  C   UNL     1       6.795  -4.911  -1.491  0.00  0.00    +0.109 C 
BRANCH  21  22
ATOM     22  C   UNL     1       7.741  -5.608  -0.510  0.00  0.00    +0.052 C 
BRANCH  22  23
ATOM     23  C   UNL     1       8.794  -6.363  -1.279  0.00  0.00    -0.040 C 
ATOM     24  C   UNL     1      10.035  -5.929  -1.598  0.00  0.00    -0.001 A 
ATOM     25  C   UNL     1      10.748  -4.673  -1.335  0.00  0.00    +0.010 A 
ATOM     26  C   UNL     1      12.012  -4.528  -1.792  0.00  0.00    +0.001 A 
ATOM     27  C   UNL     1      12.658  -5.545  -2.509  0.00  0.00    +0.002 A 
ATOM     28  C   UNL     1      12.069  -6.727  -2.789  0.00  0.00    +0.026 A 
ATOM     29  C   UNL     1      10.739  -6.988  -2.357  0.00  0.00    +0.043 A 
ATOM     30  N   UNL     1       9.964  -8.034  -2.502  0.00  0.00    -0.380 N 
ATOM     31  C   UNL     1       8.681  -7.761  -1.845  0.00  0.00    +0.144 C 
ATOM     32  H   UNL     1      10.200  -8.855  -2.962  0.00  0.00    +0.160 HD
ENDBRANCH  22  23
ENDBRANCH  21  22
ENDBRANCH  19  21
ENDBRANCH   2  17
TORSDOF 6
