REMARK  Name = ZINC38893963
REMARK  6 active torsions:
REMARK  status: ('A' for Active; 'I' for Inactive)
REMARK    1  A    between atoms: C_6  and  C_7
REMARK    2  A    between atoms: C_9  and  C_12
REMARK    3  A    between atoms: C_12  and  N_13
REMARK    4  A    between atoms: C_17  and  C_20
REMARK    5  A    between atoms: N_25  and  C_28
REMARK    6  A    between atoms: C_28  and  C_29
REMARK                            x       y       z     vdW  Elec       q    Type
REMARK                         _______ _______ _______ _____ _____    ______ ____
ROOT
ATOM      1  N   UNL     1      -3.320  -4.318   1.418  0.00  0.00    +0.386 N 
ATOM      2  C   UNL     1      -4.351  -3.509   2.079  0.00  0.00    -0.078 C 
ATOM      3  C   UNL     1      -4.476  -3.934   3.544  0.00  0.00    -0.018 C 
ATOM      4  C   UNL     1      -4.866  -5.413   3.609  0.00  0.00    +0.009 C 
ATOM      5  C   UNL     1      -3.822  -6.240   2.853  0.00  0.00    +0.059 C 
ATOM      6  C   UNL     1      -3.721  -5.730   1.413  0.00  0.00    -0.065 C 
ATOM      7  H   UNL     1      -2.448  -4.218   1.915  0.00  0.00    -0.081 HD
ENDROOT
BRANCH   5   8
ATOM      8  C   UNL     1      -4.235  -7.689   2.846  0.00  0.00    +0.217 C 
ATOM      9  O   UNL     1      -5.405  -7.986   2.967  0.00  0.00    -0.275 OA
ATOM     10  N   UNL     1      -3.306  -8.654   2.706  0.00  0.00    -0.299 N 
ATOM     11  C   UNL     1      -1.873  -8.323   2.669  0.00  0.00    +0.123 C 
ATOM     12  C   UNL     1      -1.252  -8.986   1.435  0.00  0.00    +0.103 C 
ATOM     13  N   UNL     1      -1.557 -10.423   1.449  0.00  0.00    -0.295 NA
ATOM     14  C   UNL     1      -3.004 -10.662   1.356  0.00  0.00    +0.103 C 
ATOM     15  C   UNL     1      -3.696 -10.068   2.593  0.00  0.00    +0.123 C 
BRANCH  13  16
ATOM     16  C   UNL     1      -0.838 -11.125   0.377  0.00  0.00    +0.119 C 
BRANCH  16  17
ATOM     17  C   UNL     1      -0.976 -12.613   0.570  0.00  0.00    -0.030 A 
ATOM     18  C   UNL     1      -0.050 -13.299   1.333  0.00  0.00    +0.009 A 
ATOM     19  C   UNL     1      -0.173 -14.664   1.514  0.00  0.00    +0.050 A 
ATOM     20  C   UNL     1      -1.226 -15.348   0.928  0.00  0.00    +0.166 A 
ATOM     21  C   UNL     1      -2.159 -14.657   0.159  0.00  0.00    +0.167 A 
ATOM     22  C   UNL     1      -2.033 -13.288  -0.012  0.00  0.00    +0.054 A 
ATOM     23  O   UNL     1      -3.088 -15.545  -0.302  0.00  0.00    -0.453 OA
ATOM     24  C   UNL     1      -2.487 -16.845  -0.147  0.00  0.00    +0.466 C 
ATOM     25  O   UNL     1      -1.570 -16.669   0.949  0.00  0.00    -0.453 OA
ENDBRANCH  16  17
ENDBRANCH  13  16
ENDBRANCH   5   8
BRANCH   1  26
ATOM     26  C   UNL     1      -3.149  -3.855   0.034  0.00  0.00    +0.022 C 
BRANCH  26  29
ATOM     27  C   UNL     1      -1.249  -0.762   0.042  0.00  0.00    +0.202 A 
ATOM     28  N   UNL     1      -1.363  -2.102   0.039  0.00  0.00    -0.193 NA
ATOM     29  C   UNL     1      -2.620  -2.444   0.038  0.00  0.00    +0.211 A 
ATOM     30  O   UNL     1      -3.362  -1.329   0.042  0.00  0.00    -0.340 OA
ATOM     31  N   UNL     1      -2.451  -0.240   0.050  0.00  0.00    -0.056 NA
BRANCH  27  37
ATOM     32  C   UNL     1       0.006   1.392   0.054  0.00  0.00    +0.014 A 
ATOM     33  C   UNL     1       1.193   2.096   0.055  0.00  0.00    +0.039 A 
ATOM     34  C   UNL     1       2.402   1.419   0.047  0.00  0.00    +0.123 A 
ATOM     35  C   UNL     1       2.425   0.033   0.037  0.00  0.00    +0.039 A 
ATOM     36  C   UNL     1       1.243  -0.678   0.036  0.00  0.00    +0.014 A 
ATOM     37  C   UNL     1       0.025  -0.001   0.044  0.00  0.00    +0.023 A 
ATOM     38  F   UNL     1       3.562   2.111   0.048  0.00  0.00    -0.205 F 
ENDBRANCH  27  37
ENDBRANCH  26  29
ENDBRANCH   1  26
TORSDOF 6
