REMARK  Name = ZINC37606410
REMARK  3 active torsions:
REMARK  status: ('A' for Active; 'I' for Inactive)
REMARK    1  A    between atoms: C_9  and  C_11
REMARK    2  A    between atoms: C_11  and  N_12
REMARK    3  A    between atoms: N_12  and  C_13
REMARK                            x       y       z     vdW  Elec       q    Type
REMARK                         _______ _______ _______ _____ _____    ______ ____
ROOT
ATOM      1  C   UNL     1       5.951   0.748  -0.050  0.00  0.00    +0.016 C 
ENDROOT
BRANCH   1  10
ATOM      2  C   UNL     1      -0.017   1.384   0.010  0.00  0.00    +0.024 A 
ATOM      3  C   UNL     1       1.163   2.099   0.002  0.00  0.00    +0.050 A 
ATOM      4  C   UNL     1       2.377   1.430  -0.013  0.00  0.00    +0.155 A 
ATOM      5  C   UNL     1       2.401   0.026  -0.021  0.00  0.00    +0.111 A 
ATOM      6  C   UNL     1       1.200  -0.685  -0.013  0.00  0.00    +0.051 A 
ATOM      7  C   UNL     1       0.002  -0.004   0.002  0.00  0.00    +0.043 A 
ATOM      8 CL   UNL     1      -1.492  -0.887   0.011  0.00  0.00    -0.083 Cl
ATOM      9  N   UNL     1       3.711  -0.338  -0.035  0.00  0.00    -0.215 NA
ATOM     10  C   UNL     1       4.444   0.735  -0.036  0.00  0.00    +0.180 A 
ATOM     11  O   UNL     1       3.667   1.829  -0.023  0.00  0.00    -0.442 OA
ENDBRANCH   1  10
BRANCH   1  12
ATOM     12  N   UNL     1       6.428   0.760  -1.439  0.00  0.00    +0.388 N 
ATOM     13  H   UNL     1       6.095  -0.065  -1.916  0.00  0.00    -0.085 HD
ATOM     14  H   UNL     1       6.080   1.583  -1.908  0.00  0.00    -0.085 HD
BRANCH  12  15
ATOM     15  C   UNL     1       7.897   0.773  -1.452  0.00  0.00    -0.048 C 
ATOM     16  C   UNL     1       8.425  -0.545  -0.862  0.00  0.00    +0.008 C 
ATOM     17  C   UNL     1       9.946  -0.640  -1.172  0.00  0.00    +0.164 C 
ATOM     18  S   UNL     1       9.978  -0.002  -2.901  0.00  0.00    -0.033 S 
ATOM     19  O   UNL     1       9.870  -1.097  -3.800  0.00  0.00    -0.174 OA
ATOM     20  O   UNL     1      11.059   0.910  -3.036  0.00  0.00    -0.174 OA
ATOM     21  C   UNL     1       8.396   0.935  -2.908  0.00  0.00    +0.150 C 
ENDBRANCH  12  15
ENDBRANCH   1  12
TORSDOF 3
