REMARK  Name = ZINC06003209
REMARK  12 active torsions:
REMARK  status: ('A' for Active; 'I' for Inactive)
REMARK    1  A    between atoms: C_1  and  C_2
REMARK    2  A    between atoms: C_4  and  C_23
REMARK    3  A    between atoms: C_13  and  N_15
REMARK    4  A    between atoms: N_15  and  N_16
REMARK    5  A    between atoms: N_16  and  C_17
REMARK    6  A    between atoms: C_17  and  N_19
REMARK    7  A    between atoms: C_25  and  O_33
REMARK    8  A    between atoms: C_26  and  O_31
REMARK    9  A    between atoms: C_27  and  O_29
REMARK   10  A    between atoms: O_29  and  C_30
REMARK   11  A    between atoms: O_31  and  C_32
REMARK   12  A    between atoms: O_33  and  C_34
REMARK                            x       y       z     vdW  Elec       q    Type
REMARK                         _______ _______ _______ _____ _____    ______ ____
ROOT
ATOM      1  C   UNL     1       3.178   2.349  -2.026  0.00  0.00    +0.013 C 
ATOM      2  C   UNL     1       3.492   2.035  -0.562  0.00  0.00    +0.055 C 
ATOM      3  C   UNL     1       2.457   1.051  -0.010  0.00  0.00    +0.061 C 
ATOM      4  C   UNL     1       1.131   1.750   0.158  0.00  0.00    +0.006 A 
ATOM      5  C   UNL     1      -0.015   0.981   0.280  0.00  0.00    +0.057 A 
ATOM      6  C   UNL     1      -1.250   1.584   0.438  0.00  0.00    +0.167 A 
ATOM      7  C   UNL     1      -1.340   2.974   0.486  0.00  0.00    +0.170 A 
ATOM      8  C   UNL     1      -0.195   3.740   0.363  0.00  0.00    +0.095 A 
ATOM      9  C   UNL     1       1.044   3.130   0.196  0.00  0.00    +0.130 A 
ATOM     10  O   UNL     1       2.143   3.921   0.069  0.00  0.00    -0.472 OA
ATOM     11  C   UNL     1       3.424   3.322   0.270  0.00  0.00    +0.262 C 
ATOM     12  O   UNL     1      -2.649   3.320   0.654  0.00  0.00    -0.452 OA
ATOM     13  C   UNL     1      -3.406   2.147   0.287  0.00  0.00    +0.466 C 
ATOM     14  O   UNL     1      -2.505   1.061   0.572  0.00  0.00    -0.453 OA
ENDROOT
BRANCH   3  15
ATOM     15  C   UNL     1       2.299  -0.100  -0.970  0.00  0.00    -0.032 A 
ATOM     16  C   UNL     1       2.903  -1.313  -0.697  0.00  0.00    +0.054 A 
ATOM     17  C   UNL     1       2.755  -2.377  -1.574  0.00  0.00    +0.165 A 
ATOM     18  C   UNL     1       2.007  -2.219  -2.735  0.00  0.00    +0.204 A 
ATOM     19  C   UNL     1       1.405  -0.996  -3.008  0.00  0.00    +0.165 A 
ATOM     20  C   UNL     1       1.554   0.061  -2.123  0.00  0.00    +0.054 A 
BRANCH  19  21
ATOM     21  O   UNL     1       0.671  -0.837  -4.142  0.00  0.00    -0.491 OA
ATOM     22  C   UNL     1       0.081   0.447  -4.358  0.00  0.00    +0.277 C 
ENDBRANCH  19  21
BRANCH  18  23
ATOM     23  O   UNL     1       1.863  -3.259  -3.600  0.00  0.00    -0.488 OA
ATOM     24  C   UNL     1       2.839  -3.380  -4.637  0.00  0.00    +0.277 C 
ENDBRANCH  18  23
BRANCH  17  25
ATOM     25  O   UNL     1       3.345  -3.571  -1.302  0.00  0.00    -0.491 OA
ATOM     26  C   UNL     1       4.100  -3.661  -0.091  0.00  0.00    +0.277 C 
ENDBRANCH  17  25
ENDBRANCH   3  15
BRANCH  11  27
ATOM     27  N   UNL     1       4.477   4.249  -0.166  0.00  0.00    -0.203 NA
ATOM     28  H   UNL     1       4.172   4.796  -0.957  0.00  0.00    +0.148 HD
BRANCH  27  29
ATOM     29  N   UNL     1       4.876   5.054   0.863  0.00  0.00    -0.259 N 
ATOM     30  H   UNL     1       4.466   4.963   1.737  0.00  0.00    +0.168 HD
BRANCH  29  31
ATOM     31  C   UNL     1       5.838   5.977   0.662  0.00  0.00    +0.142 C 
ATOM     32  S   UNL     1       6.338   6.986   1.951  0.00  0.00    -0.018 S 
BRANCH  31  33
ATOM     33  N   UNL     1       6.407   6.104  -0.553  0.00  0.00    -0.340 N 
ATOM     34  H   UNL     1       6.123   5.532  -1.284  0.00  0.00    +0.144 HD
ATOM     35  H   UNL     1       7.099   6.767  -0.698  0.00  0.00    +0.144 HD
ENDBRANCH  31  33
ENDBRANCH  29  31
ENDBRANCH  27  29
ENDBRANCH  11  27
TORSDOF 8
