REMARK  Name = ZINC12428101
REMARK  6 active torsions:
REMARK  status: ('A' for Active; 'I' for Inactive)
REMARK    1  A    between atoms: C_1  and  N_2
REMARK    2  A    between atoms: N_20  and  C_23
REMARK    3  A    between atoms: C_23  and  C_24
REMARK    4  A    between atoms: N_26  and  C_27
REMARK    5  A    between atoms: C_33  and  C_37
REMARK    6  A    between atoms: C_34  and  N_36
REMARK                            x       y       z     vdW  Elec       q    Type
REMARK                         _______ _______ _______ _____ _____    ______ ____
ROOT
ATOM      1  C   UNL     1      -3.212   5.684  -4.761  0.00  0.00    +0.152 C 
ATOM      2  N   UNL     1      -3.806   5.231  -3.501  0.00  0.00    -0.311 N 
ATOM      3  C   UNL     1      -5.140   4.881  -3.467  0.00  0.00    +0.055 A 
ATOM      4  C   UNL     1      -5.928   4.949  -4.611  0.00  0.00    +0.026 A 
ATOM      5  C   UNL     1      -7.258   4.590  -4.548  0.00  0.00    +0.002 A 
ATOM      6  C   UNL     1      -7.819   4.162  -3.353  0.00  0.00    +0.001 A 
ATOM      7  C   UNL     1      -7.063   4.090  -2.216  0.00  0.00    +0.013 A 
ATOM      8  C   UNL     1      -5.713   4.449  -2.259  0.00  0.00    +0.041 A 
ATOM      9  C   UNL     1      -4.871   4.385  -1.056  0.00  0.00    +0.149 A 
ATOM     10  C   UNL     1      -3.559   4.741  -1.160  0.00  0.00    +0.084 A 
ATOM     11  C   UNL     1      -3.042   5.163  -2.398  0.00  0.00    +0.260 A 
ATOM     12  O   UNL     1      -1.866   5.476  -2.473  0.00  0.00    -0.267 OA
ATOM     13  C   UNL     1      -2.660   4.685   0.043  0.00  0.00    +0.147 C 
ATOM     14  C   UNL     1      -1.715   3.527  -0.051  0.00  0.00    -0.001 A 
ATOM     15  C   UNL     1      -1.939   2.170  -0.118  0.00  0.00    +0.007 A 
ATOM     16  C   UNL     1      -0.819   1.348  -0.195  0.00  0.00    +0.000 A 
ATOM     17  C   UNL     1       0.457   1.873  -0.212  0.00  0.00    +0.002 A 
ATOM     18  C   UNL     1       0.690   3.238  -0.151  0.00  0.00    +0.024 A 
ATOM     19  C   UNL     1      -0.426   4.073  -0.069  0.00  0.00    +0.042 A 
ATOM     20  N   UNL     1      -0.487   5.454   0.003  0.00  0.00    -0.261 N 
ATOM     21  C   UNL     1      -1.758   5.901   0.071  0.00  0.00    +0.241 C 
ATOM     22  O   UNL     1      -2.111   7.059   0.141  0.00  0.00    -0.274 OA
ATOM     23  C   UNL     1      -3.468   4.615   1.307  0.00  0.00    +0.110 C 
ATOM     24  C   UNL     1      -4.779   4.271   1.274  0.00  0.00    +0.199 C 
ATOM     25  O   UNL     1      -5.399   3.981   0.116  0.00  0.00    -0.440 OA
ENDROOT
BRANCH  24  26
ATOM     26  N   UNL     1      -5.490   4.220   2.447  0.00  0.00    -0.328 N 
ATOM     27  H   UNL     1      -5.053   4.427   3.288  0.00  0.00    +0.145 HD
ATOM     28  H   UNL     1      -6.428   3.975   2.435  0.00  0.00    +0.145 HD
ENDBRANCH  24  26
BRANCH  23  29
ATOM     29  C   UNL     1      -2.846   4.913   2.562  0.00  0.00    +0.102 C 
ATOM     30  N   UNL     1      -2.353   5.150   3.558  0.00  0.00    -0.191 NA
ENDBRANCH  23  29
BRANCH  20  31
ATOM     31  C   UNL     1       0.690   6.326   0.005  0.00  0.00    +0.209 C 
BRANCH  31  32
ATOM     32  C   UNL     1       1.042   6.697  -1.413  0.00  0.00    +0.235 C 
ATOM     33  O   UNL     1       0.377   6.274  -2.334  0.00  0.00    -0.274 OA
ATOM     34  N   UNL     1       2.098   7.499  -1.657  0.00  0.00    -0.284 N 
ATOM     35  H   UNL     1       2.584   7.899  -0.918  0.00  0.00    +0.155 HD
BRANCH  34  36
ATOM     36  C   UNL     1       2.493   7.754  -2.974  0.00  0.00    +0.033 A 
ATOM     37  C   UNL     1       2.349   6.773  -3.946  0.00  0.00    +0.023 A 
ATOM     38  C   UNL     1       2.736   7.029  -5.247  0.00  0.00    +0.002 A 
ATOM     39  C   UNL     1       3.275   8.258  -5.580  0.00  0.00    +0.000 A 
ATOM     40  C   UNL     1       3.424   9.236  -4.614  0.00  0.00    +0.002 A 
ATOM     41  C   UNL     1       3.035   8.987  -3.312  0.00  0.00    +0.023 A 
ENDBRANCH  34  36
ENDBRANCH  31  32
ENDBRANCH  20  31
TORSDOF 5
