REMARK  Name = ZINC39675148
REMARK  9 active torsions:
REMARK  status: ('A' for Active; 'I' for Inactive)
REMARK    1  A    between atoms: C_1  and  C_2
REMARK    2  A    between atoms: C_2  and  C_4
REMARK    3  A    between atoms: C_2  and  N_14
REMARK    4  A    between atoms: C_4  and  C_5
REMARK    5  A    between atoms: C_5  and  C_6
REMARK    6  A    between atoms: C_9  and  O_12
REMARK    7  A    between atoms: O_12  and  C_13
REMARK    8  A    between atoms: C_15  and  C_17
REMARK    9  A    between atoms: C_28  and  C_30
REMARK                            x       y       z     vdW  Elec       q    Type
REMARK                         _______ _______ _______ _____ _____    ______ ____
ROOT
ATOM      1  C   UNL     1       1.306  -1.379   3.953  0.00  0.00    +0.100 C 
ATOM      2  C   UNL     1       2.317  -0.217   4.078  0.00  0.00    +0.121 C 
ATOM      3  N   UNL     1       1.700   0.712   5.055  0.00  0.00    -0.296 N 
ATOM      4  C   UNL     1       1.092  -0.176   6.075  0.00  0.00    +0.115 C 
ATOM      5  C   UNL     1       0.506  -1.350   5.267  0.00  0.00    -0.004 C 
ATOM      6  C   UNL     1      -0.972  -1.107   4.980  0.00  0.00    -0.010 C 
ATOM      7  C   UNL     1      -1.754  -1.139   6.296  0.00  0.00    -0.082 C 
ATOM      8  N   UNL     1      -1.569  -2.443   6.946  0.00  0.00    +0.379 N 
ATOM      9  C   UNL     1      -0.157  -2.629   7.301  0.00  0.00    -0.082 C 
ATOM     10  C   UNL     1       0.692  -2.659   6.027  0.00  0.00    -0.010 C 
ATOM     11  C   UNL     1       1.694   2.059   5.023  0.00  0.00    +0.247 C 
ATOM     12  O   UNL     1       2.129   2.646   4.051  0.00  0.00    -0.270 OA
ATOM     13  H   UNL     1      -2.133  -2.484   7.781  0.00  0.00    -0.086 HD
ATOM     14  H   UNL     1      -1.855  -3.175   6.314  0.00  0.00    -0.086 HD
ENDROOT
BRANCH  11  15
ATOM     15  C   UNL     1       1.159   2.823   6.169  0.00  0.00    +0.038 A 
ATOM     16  C   UNL     1       1.066   2.226   7.427  0.00  0.00    +0.014 A 
ATOM     17  C   UNL     1       0.566   2.943   8.493  0.00  0.00    +0.022 A 
ATOM     18  C   UNL     1       0.155   4.254   8.318  0.00  0.00    +0.059 A 
ATOM     19  C   UNL     1       0.244   4.853   7.072  0.00  0.00    +0.060 A 
ATOM     20  C   UNL     1       0.749   4.147   5.998  0.00  0.00    +0.034 A 
ATOM     21 CL   UNL     1      -0.274   6.497   6.861  0.00  0.00    -0.082 Cl
ATOM     22 CL   UNL     1      -0.475   5.150   9.665  0.00  0.00    -0.082 Cl
ENDBRANCH  11  15
BRANCH   1  24
ATOM     23  N   UNL     1      -0.209  -2.202   2.179  0.00  0.00    -0.312 N 
ATOM     24  C   UNL     1       0.391  -1.153   2.777  0.00  0.00    +0.218 C 
ATOM     25  O   UNL     1       0.193  -0.029   2.369  0.00  0.00    -0.275 OA
ATOM     26  H   UNL     1      -0.051  -3.102   2.505  0.00  0.00    +0.149 HD
BRANCH  23  28
ATOM     27  C   UNL     1      -0.270  -1.911  -0.249  0.00  0.00    +0.028 C 
ATOM     28  C   UNL     1      -1.098  -1.983   1.036  0.00  0.00    +0.070 C 
BRANCH  28  29
ATOM     29  C   UNL     1      -2.095  -3.139   0.936  0.00  0.00    +0.026 C 
BRANCH  29  30
ATOM     30  C   UNL     1      -3.006  -3.135   2.165  0.00  0.00    +0.037 C 
BRANCH  30  31
ATOM     31  C   UNL     1      -3.988  -4.274   2.067  0.00  0.00    -0.047 A 
ATOM     32  C   UNL     1      -5.207  -4.083   1.442  0.00  0.00    +0.007 A 
ATOM     33  C   UNL     1      -6.109  -5.125   1.351  0.00  0.00    +0.046 A 
ATOM     34  C   UNL     1      -5.790  -6.365   1.887  0.00  0.00    +0.120 A 
ATOM     35  C   UNL     1      -4.567  -6.554   2.513  0.00  0.00    +0.046 A 
ATOM     36  C   UNL     1      -3.666  -5.510   2.596  0.00  0.00    +0.007 A 
BRANCH  34  37
ATOM     37  O   UNL     1      -6.676  -7.392   1.799  0.00  0.00    -0.495 OA
ATOM     38  C   UNL     1      -6.281  -8.640   2.373  0.00  0.00    +0.277 C 
ENDBRANCH  34  37
ENDBRANCH  30  31
ENDBRANCH  29  30
ENDBRANCH  28  29
ENDBRANCH  23  28
ENDBRANCH   1  24
TORSDOF 7
