REMARK  Name = ZINC20079681
REMARK  11 active torsions:
REMARK  status: ('A' for Active; 'I' for Inactive)
REMARK    1  A    between atoms: C_1  and  C_2
REMARK    2  A    between atoms: C_2  and  O_3
REMARK    3  A    between atoms: O_3  and  C_4
REMARK    4  A    between atoms: C_7  and  C_10
REMARK    5  A    between atoms: C_11  and  C_31
REMARK    6  A    between atoms: C_12  and  N_30
REMARK    7  A    between atoms: C_16  and  N_29
REMARK    8  A    between atoms: C_17  and  C_19
REMARK    9  A    between atoms: C_19  and  C_21
REMARK   10  A    between atoms: C_24  and  O_27
REMARK   11  A    between atoms: O_27  and  C_28
REMARK                            x       y       z     vdW  Elec       q    Type
REMARK                         _______ _______ _______ _____ _____    ______ ____
ROOT
ATOM      1  C   UNL     1       1.135   1.843  -0.492  0.00  0.00    +0.014 A 
ATOM      2  C   UNL     1      -0.148   1.279  -0.533  0.00  0.00    +0.100 A 
ATOM      3  C   UNL     1      -1.281   2.114  -0.478  0.00  0.00    +0.136 A 
ATOM      4  N   UNL     1      -1.137   3.425  -0.376  0.00  0.00    -0.224 NA
ATOM      5  C   UNL     1       0.051   3.995  -0.334  0.00  0.00    +0.113 A 
ATOM      6  C   UNL     1       1.258   3.261  -0.387  0.00  0.00    +0.038 A 
ATOM      7  C   UNL     1       2.470   4.057  -0.328  0.00  0.00    +0.053 A 
ATOM      8  C   UNL     1       2.347   5.431  -0.227  0.00  0.00    +0.083 A 
ATOM      9  S   UNL     1       0.583   5.686  -0.209  0.00  0.00    -0.063 S 
ENDROOT
BRANCH   1  13
ATOM     10  C   UNL     1       4.591  -0.622  -0.671  0.00  0.00    +0.121 A 
ATOM     11  C   UNL     1       3.782  -0.481  -1.791  0.00  0.00    +0.046 A 
ATOM     12  C   UNL     1       2.660   0.318  -1.737  0.00  0.00    +0.012 A 
ATOM     13  C   UNL     1       2.337   0.986  -0.554  0.00  0.00    -0.016 A 
ATOM     14  C   UNL     1       3.156   0.845   0.569  0.00  0.00    +0.012 A 
ATOM     15  C   UNL     1       4.273   0.041   0.508  0.00  0.00    +0.046 A 
BRANCH  10  16
ATOM     16  O   UNL     1       5.695  -1.410  -0.728  0.00  0.00    -0.492 OA
BRANCH  16  18
ATOM     17  C   UNL     1       7.675  -2.434   0.205  0.00  0.00    +0.048 C 
ATOM     18  C   UNL     1       6.482  -1.511   0.461  0.00  0.00    +0.225 C 
ENDBRANCH  16  18
ENDBRANCH  10  16
ENDBRANCH   1  13
BRANCH   7  19
ATOM     19  N   UNL     1       3.719   3.457  -0.371  0.00  0.00    -0.356 N 
ATOM     20  H   UNL     1       4.628   4.074  -0.325  0.00  0.00    +0.142 HD
ATOM     21  H   UNL     1       3.800   2.363  -0.452  0.00  0.00    +0.142 HD
ENDBRANCH   7  19
BRANCH   3  22
ATOM     22  N   UNL     1      -2.547   1.562  -0.525  0.00  0.00    -0.342 N 
ATOM     23  H   UNL     1      -3.433   2.212  -0.482  0.00  0.00    +0.144 HD
ATOM     24  H   UNL     1      -2.669   0.471  -0.605  0.00  0.00    +0.144 HD
ENDBRANCH   3  22
BRANCH   8  25
ATOM     25  C   UNL     1       3.373   6.400  -0.154  0.00  0.00    +0.202 C 
ATOM     26  O   UNL     1       4.536   6.068  -0.301  0.00  0.00    -0.286 OA
BRANCH  25  27
ATOM     27  C   UNL     1       3.035   7.816   0.098  0.00  0.00    +0.023 A 
ATOM     28  C   UNL     1       3.909   8.828  -0.307  0.00  0.00    +0.015 A 
ATOM     29  C   UNL     1       3.589  10.147  -0.073  0.00  0.00    +0.046 A 
ATOM     30  C   UNL     1       2.402  10.472   0.573  0.00  0.00    +0.120 A 
ATOM     31  C   UNL     1       1.532   9.468   0.983  0.00  0.00    +0.046 A 
ATOM     32  C   UNL     1       1.843   8.147   0.748  0.00  0.00    +0.015 A 
BRANCH  30  33
ATOM     33  O   UNL     1       2.092  11.772   0.806  0.00  0.00    -0.495 OA
ATOM     34  C   UNL     1       3.031  12.753   0.359  0.00  0.00    +0.277 C 
ENDBRANCH  30  33
ENDBRANCH  25  27
ENDBRANCH   8  25
BRANCH   2  35
ATOM     35  C   UNL     1      -0.305  -0.141  -0.638  0.00  0.00    +0.103 C 
ATOM     36  N   UNL     1      -0.431  -1.267  -0.721  0.00  0.00    -0.191 NA
ENDBRANCH   2  35
TORSDOF 9
