REMARK  Name = ZINC19795114
REMARK  9 active torsions:
REMARK  status: ('A' for Active; 'I' for Inactive)
REMARK    1  A    between atoms: C_8  and  C_17
REMARK    2  A    between atoms: C_9  and  N_11
REMARK    3  A    between atoms: C_18  and  C_19
REMARK    4  A    between atoms: C_18  and  C_21
REMARK    5  A    between atoms: C_22  and  C_30
REMARK    6  A    between atoms: C_23  and  N_29
REMARK    7  A    between atoms: N_24  and  C_26
REMARK    8  A    between atoms: C_26  and  C_27
REMARK    9  A    between atoms: C_27  and  O_28
REMARK                            x       y       z     vdW  Elec       q    Type
REMARK                         _______ _______ _______ _____ _____    ______ ____
ROOT
ATOM      1  C   UNL     1      -2.444   1.013  -0.178  0.00  0.00    +0.032 C 
ATOM      2  C   UNL     1      -2.461  -0.217  -0.765  0.00  0.00    +0.081 C 
ENDROOT
BRANCH   1  10
ATOM      3  C   UNL     1       3.432   1.464   1.505  0.00  0.00    +0.001 A 
ATOM      4  C   UNL     1       3.497   2.854   1.440  0.00  0.00    +0.002 A 
ATOM      5  C   UNL     1       2.410   3.591   1.081  0.00  0.00    +0.028 A 
ATOM      6  C   UNL     1       1.199   2.949   0.769  0.00  0.00    +0.073 A 
ATOM      7  C   UNL     1       1.135   1.535   0.836  0.00  0.00    +0.001 A 
ATOM      8  C   UNL     1       2.277   0.806   1.211  0.00  0.00    +0.010 A 
ATOM      9  C   UNL     1      -0.067   0.875   0.529  0.00  0.00    +0.021 A 
ATOM     10  C   UNL     1      -1.166   1.647   0.159  0.00  0.00    +0.017 A 
ATOM     11  C   UNL     1      -1.022   3.102   0.117  0.00  0.00    +0.129 A 
ATOM     12  N   UNL     1       0.127   3.669   0.415  0.00  0.00    -0.231 NA
BRANCH  11  13
ATOM     13  N   UNL     1      -2.101   3.887  -0.243  0.00  0.00    -0.315 N 
ATOM     14  C   UNL     1      -1.833   4.610  -1.493  0.00  0.00    +0.106 C 
ATOM     15  C   UNL     1      -3.095   5.352  -1.936  0.00  0.00    +0.019 C 
ATOM     16  C   UNL     1      -3.517   6.332  -0.839  0.00  0.00    +0.003 C 
ATOM     17  C   UNL     1      -3.744   5.561   0.465  0.00  0.00    +0.019 C 
ATOM     18  C   UNL     1      -2.462   4.813   0.839  0.00  0.00    +0.106 C 
ENDBRANCH  11  13
ENDBRANCH   1  10
BRANCH   2  19
ATOM     19  C   UNL     1      -3.745  -0.923  -0.965  0.00  0.00    +0.122 A 
ATOM     20  C   UNL     1      -3.928  -2.244  -1.578  0.00  0.00    +0.119 A 
ATOM     21  C   UNL     1      -5.295  -2.499  -1.553  0.00  0.00    +0.133 A 
ATOM     22  N   UNL     1      -5.898  -1.438  -0.981  0.00  0.00    -0.247 N 
ATOM     23  N   UNL     1      -4.937  -0.488  -0.623  0.00  0.00    -0.167 NA
BRANCH  21  24
ATOM     24  N   UNL     1      -5.922  -3.635  -2.030  0.00  0.00    -0.342 N 
ATOM     25  H   UNL     1      -7.016  -3.730  -1.958  0.00  0.00    +0.144 HD
ATOM     26  H   UNL     1      -5.328  -4.443  -2.481  0.00  0.00    +0.144 HD
ENDBRANCH  21  24
BRANCH  20  27
ATOM     27  C   UNL     1      -2.903  -3.100  -2.098  0.00  0.00    +0.105 C 
ATOM     28  N   UNL     1      -2.091  -3.778  -2.510  0.00  0.00    -0.191 NA
ENDBRANCH  20  27
BRANCH  22  29
ATOM     29  C   UNL     1      -7.340  -1.303  -0.761  0.00  0.00    +0.173 C 
BRANCH  29  30
ATOM     30  C   UNL     1      -7.702  -1.876   0.611  0.00  0.00    +0.179 C 
BRANCH  30  31
ATOM     31  O   UNL     1      -9.109  -1.745   0.826  0.00  0.00    -0.393 OA
ATOM     32  H   UNL     1      -9.558  -2.104   1.763  0.00  0.00    +0.209 HD
ENDBRANCH  30  31
ENDBRANCH  29  30
ENDBRANCH  22  29
ENDBRANCH   2  19
BRANCH   2  33
ATOM     33  C   UNL     1      -1.236  -0.826  -1.187  0.00  0.00    +0.101 C 
ATOM     34  N   UNL     1      -0.264  -1.308  -1.522  0.00  0.00    -0.191 NA
ENDBRANCH   2  33
TORSDOF 9
