REMARK  Name = ZINC38650990
REMARK  8 active torsions:
REMARK  status: ('A' for Active; 'I' for Inactive)
REMARK    1  A    between atoms: C_5  and  C_7
REMARK    2  A    between atoms: C_12  and  O_21
REMARK    3  A    between atoms: C_16  and  N_20
REMARK    4  A    between atoms: C_17  and  C_18
REMARK    5  A    between atoms: O_21  and  C_22
REMARK    6  A    between atoms: C_22  and  C_24
REMARK    7  A    between atoms: C_24  and  O_25
REMARK    8  A    between atoms: O_25  and  C_26
REMARK                            x       y       z     vdW  Elec       q    Type
REMARK                         _______ _______ _______ _____ _____    ______ ____
ROOT
ATOM      1  C   UNL     1       1.171  -2.176  -0.049  0.00  0.00    +0.099 C 
ATOM      2  C   UNL     1       0.501  -2.693   1.197  0.00  0.00    +0.008 A 
ATOM      3  C   UNL     1       1.212  -2.736   2.384  0.00  0.00    +0.012 A 
ATOM      4  C   UNL     1       0.614  -3.207   3.536  0.00  0.00    +0.047 A 
ATOM      5  C   UNL     1      -0.704  -3.640   3.507  0.00  0.00    +0.135 A 
ATOM      6  C   UNL     1      -1.419  -3.598   2.321  0.00  0.00    +0.093 A 
ATOM      7  C   UNL     1      -0.816  -3.123   1.162  0.00  0.00    +0.138 A 
ATOM      8  O   UNL     1      -1.529  -3.089   0.009  0.00  0.00    -0.441 OA
ATOM      9  C   UNL     1      -0.891  -3.013  -1.171  0.00  0.00    +0.199 C 
ATOM     10  C   UNL     1       0.388  -2.587  -1.264  0.00  0.00    +0.098 C 
ENDROOT
BRANCH   1  15
ATOM     11  C   UNL     1       0.153   1.454   0.152  0.00  0.00    +0.000 A 
ATOM     12  C   UNL     1       1.382   2.088   0.123  0.00  0.00    +0.001 A 
ATOM     13  C   UNL     1       2.542   1.342   0.037  0.00  0.00    +0.020 A 
ATOM     14  C   UNL     1       2.474  -0.039  -0.018  0.00  0.00    +0.045 A 
ATOM     15  C   UNL     1       1.245  -0.672   0.012  0.00  0.00    -0.016 A 
ATOM     16  C   UNL     1       0.085   0.075   0.097  0.00  0.00    +0.006 A 
ATOM     17 CL   UNL     1       3.932  -0.976  -0.126  0.00  0.00    -0.083 Cl
ENDBRANCH   1  15
BRANCH   9  18
ATOM     18  N   UNL     1      -1.558  -3.377  -2.313  0.00  0.00    -0.328 N 
ATOM     19  H   UNL     1      -2.477  -3.684  -2.261  0.00  0.00    +0.145 HD
ATOM     20  H   UNL     1      -1.111  -3.328  -3.173  0.00  0.00    +0.145 HD
ENDBRANCH   9  18
BRANCH  10  21
ATOM     21  C   UNL     1       1.010  -2.527  -2.552  0.00  0.00    +0.101 C 
ATOM     22  N   UNL     1       1.503  -2.480  -3.575  0.00  0.00    -0.191 NA
ENDBRANCH  10  21
BRANCH   5  23
ATOM     23  O   UNL     1      -1.294  -4.104   4.640  0.00  0.00    -0.423 OA
BRANCH  23  24
ATOM     24  C   UNL     1      -1.581  -5.413   4.710  0.00  0.00    +0.350 C 
ATOM     25  O   UNL     1      -1.223  -6.159   3.829  0.00  0.00    -0.247 OA
BRANCH  24  26
ATOM     26  C   UNL     1      -2.350  -5.954   5.888  0.00  0.00    +0.349 C 
BRANCH  26  27
ATOM     27  O   UNL     1      -2.529  -7.364   5.733  0.00  0.00    -0.479 OA
BRANCH  27  28
ATOM     28  C   UNL     1      -3.209  -8.011   6.717  0.00  0.00    +0.140 A 
ATOM     29  C   UNL     1      -3.697  -7.303   7.805  0.00  0.00    +0.048 A 
ATOM     30  C   UNL     1      -4.388  -7.963   8.804  0.00  0.00    +0.023 A 
ATOM     31  C   UNL     1      -4.592  -9.329   8.719  0.00  0.00    +0.043 A 
ATOM     32  C   UNL     1      -4.105 -10.037   7.635  0.00  0.00    +0.043 A 
ATOM     33  C   UNL     1      -3.419  -9.380   6.631  0.00  0.00    +0.084 A 
ATOM     34 CL   UNL     1      -2.815 -10.268   5.267  0.00  0.00    -0.080 Cl
ATOM     35 CL   UNL     1      -5.459 -10.155   9.976  0.00  0.00    -0.083 Cl
ENDBRANCH  27  28
ENDBRANCH  26  27
ENDBRANCH  24  26
ENDBRANCH  23  24
ENDBRANCH   5  23
TORSDOF 8
