REMARK  Name = ZINC29910104
REMARK  11 active torsions:
REMARK  status: ('A' for Active; 'I' for Inactive)
REMARK    1  A    between atoms: C_1  and  C_2
REMARK    2  A    between atoms: C_2  and  C_3
REMARK    3  A    between atoms: C_3  and  C_5
REMARK    4  A    between atoms: C_3  and  C_6
REMARK    5  A    between atoms: C_6  and  C_8
REMARK    6  A    between atoms: C_6  and  N_26
REMARK    7  A    between atoms: N_10  and  C_11
REMARK    8  A    between atoms: C_11  and  C_12
REMARK    9  A    between atoms: C_12  and  C_14
REMARK   10  A    between atoms: C_12  and  N_16
REMARK   11  A    between atoms: C_14  and  C_15
REMARK                            x       y       z     vdW  Elec       q    Type
REMARK                         _______ _______ _______ _____ _____    ______ ____
ROOT
ATOM      1  C   UNL     1      -7.024   3.526   2.558  0.00  0.00    +0.234 C 
ATOM      2  O   UNL     1      -7.205   3.147   3.696  0.00  0.00    -0.274 OA
ATOM      3  N   UNL     1      -7.878   4.405   1.996  0.00  0.00    -0.315 N 
ATOM      4  H   UNL     1      -7.761   4.686   0.939  0.00  0.00    +0.149 HD
ENDROOT
BRANCH   1   5
ATOM      5  C   UNL     1      -5.845   3.013   1.772  0.00  0.00    +0.161 C 
BRANCH   5   6
ATOM      6  N   UNL     1      -5.020   2.159   2.630  0.00  0.00    -0.316 N 
ATOM      7  C   UNL     1      -3.646   2.211   2.537  0.00  0.00    +0.150 C 
ATOM      8  N   UNL     1      -3.077   2.996   1.677  0.00  0.00    -0.113 NA
ATOM      9  S   UNL     1      -1.431   2.771   1.873  0.00  0.00    +0.101 S 
ATOM     10  O   UNL     1      -0.890   3.973   2.404  0.00  0.00    -0.146 OA
ATOM     11  O   UNL     1      -0.937   2.140   0.700  0.00  0.00    -0.146 OA
ATOM     12  C   UNL     1      -1.441   1.565   3.171  0.00  0.00    +0.123 A 
ATOM     13  C   UNL     1      -2.809   1.376   3.412  0.00  0.00    +0.043 A 
ATOM     14  C   UNL     1      -3.168   0.454   4.406  0.00  0.00    +0.013 A 
ATOM     15  C   UNL     1      -2.197  -0.221   5.112  0.00  0.00    +0.001 A 
ATOM     16  C   UNL     1      -0.855  -0.013   4.852  0.00  0.00    +0.002 A 
ATOM     17  C   UNL     1      -0.481   0.892   3.868  0.00  0.00    +0.030 A 
ATOM     18  H   UNL     1      -5.497   1.477   3.349  0.00  0.00    +0.148 HD
ENDBRANCH   5   6
BRANCH   5  19
ATOM     19  C   UNL     1      -6.345   2.202   0.574  0.00  0.00    +0.015 C 
ATOM     20  C   UNL     1      -5.168   1.876  -0.347  0.00  0.00    +0.010 C 
BRANCH  19  22
ATOM     21  C   UNL     1      -8.303   1.215   1.771  0.00  0.00    +0.004 C 
ATOM     22  C   UNL     1      -6.980   0.901   1.069  0.00  0.00    +0.002 C 
ENDBRANCH  19  22
ENDBRANCH   5  19
ENDBRANCH   1   5
BRANCH   3  23
ATOM     23  C   UNL     1      -8.960   4.986   2.794  0.00  0.00    +0.089 C 
BRANCH  23  24
ATOM     24  C   UNL     1      -9.845   5.854   1.897  0.00  0.00    -0.051 C 
BRANCH  24  25
ATOM     25  N   UNL     1      -9.038   6.930   1.306  0.00  0.00    +0.385 N 
ATOM     26  C   UNL     1      -8.833   8.025   2.268  0.00  0.00    -0.073 C 
ATOM     27  C   UNL     1      -7.708   8.922   1.750  0.00  0.00    +0.017 C 
ATOM     28  C   UNL     1      -7.972   9.300   0.315  0.00  0.00    -0.048 A 
ATOM     29  C   UNL     1      -7.279  10.374  -0.224  0.00  0.00    +0.004 A 
ATOM     30  C   UNL     1      -7.488  10.752  -1.535  0.00  0.00    +0.000 A 
ATOM     31  C   UNL     1      -8.392  10.055  -2.315  0.00  0.00    +0.000 A 
ATOM     32  C   UNL     1      -9.082   8.987  -1.780  0.00  0.00    +0.002 A 
ATOM     33  C   UNL     1      -8.876   8.608  -0.461  0.00  0.00    -0.061 A 
ATOM     34  C   UNL     1      -9.659   7.441   0.080  0.00  0.00    -0.042 C 
ATOM     35  H   UNL     1      -8.057   6.505   1.044  0.00  0.00    -0.081 HD
ENDBRANCH  24  25
BRANCH  24  36
ATOM     36  C   UNL     1     -10.975   6.463   2.730  0.00  0.00    -0.017 C 
ATOM     37  C   UNL     1     -11.929   7.230   1.812  0.00  0.00    +0.002 C 
ENDBRANCH  24  36
ENDBRANCH  23  24
ENDBRANCH   3  23
TORSDOF 8
