REMARK  Name = ZINC63383629
REMARK  5 active torsions:
REMARK  status: ('A' for Active; 'I' for Inactive)
REMARK    1  A    between atoms: C_1  and  C_2
REMARK    2  A    between atoms: C_5  and  C_34
REMARK    3  A    between atoms: C_6  and  N_8
REMARK    4  A    between atoms: C_11  and  C_18
REMARK    5  A    between atoms: N_32  and  C_33
REMARK                            x       y       z     vdW  Elec       q    Type
REMARK                         _______ _______ _______ _____ _____    ______ ____
ROOT
ATOM      1  N   UNL     1       0.051  -2.798   2.394  0.00  0.00    -0.228 N 
ATOM      2  C   UNL     1       1.228  -3.117   2.969  0.00  0.00    +0.270 A 
ATOM      3  O   UNL     1       2.277  -2.790   2.440  0.00  0.00    -0.267 OA
ATOM      4  C   UNL     1       1.238  -3.828   4.181  0.00  0.00    +0.101 A 
ATOM      5  C   UNL     1       0.051  -4.182   4.751  0.00  0.00    +0.263 A 
ATOM      6  N   UNL     1      -1.124  -3.837   4.133  0.00  0.00    -0.274 N 
ATOM      7  H   UNL     1      -1.971  -4.087   4.535  0.00  0.00    +0.173 HD
ATOM      8  C   UNL     1      -1.110  -3.151   2.976  0.00  0.00    +0.337 A 
ATOM      9  O   UNL     1      -2.162  -2.850   2.445  0.00  0.00    -0.246 OA
ATOM     10  O   UNL     1       0.033  -4.866   5.915  0.00  0.00    -0.267 OA
ENDROOT
BRANCH   4  11
ATOM     11  C   UNL     1       2.542  -4.196   4.840  0.00  0.00    +0.124 C 
ATOM     12  C   UNL     1       3.283  -2.925   5.263  0.00  0.00    +0.128 C 
ATOM     13  C   UNL     1       4.652  -3.374   5.759  0.00  0.00    -0.035 C 
ATOM     14  C   UNL     1       4.793  -2.872   6.978  0.00  0.00    -0.001 A 
ATOM     15  C   UNL     1       5.922  -2.888   7.922  0.00  0.00    +0.010 A 
ATOM     16  C   UNL     1       5.714  -2.274   9.116  0.00  0.00    +0.001 A 
ATOM     17  C   UNL     1       4.510  -1.653   9.463  0.00  0.00    +0.002 A 
ATOM     18  C   UNL     1       3.422  -1.584   8.654  0.00  0.00    +0.026 A 
ATOM     19  C   UNL     1       3.521  -2.189   7.368  0.00  0.00    +0.043 A 
ATOM     20  N   UNL     1       2.640  -2.247   6.388  0.00  0.00    -0.376 N 
ATOM     21  C   UNL     1       5.524  -4.300   4.946  0.00  0.00    +0.049 C 
ATOM     22  C   UNL     1       4.617  -5.458   4.492  0.00  0.00    +0.089 C 
ATOM     23  N   UNL     1       3.389  -4.931   3.888  0.00  0.00    -0.296 NA
ATOM     24  C   UNL     1       2.630  -5.998   3.223  0.00  0.00    +0.105 C 
ATOM     25  H   UNL     1       1.731  -1.909   6.402  0.00  0.00    +0.160 HD
ENDBRANCH   4  11
BRANCH   1  31
ATOM     26  C   UNL     1      -0.018   1.503   0.010  0.00  0.00    +0.044 C 
ATOM     27  C   UNL     1       0.002  -0.004   0.002  0.00  0.00    -0.048 A 
ATOM     28  C   UNL     1       0.006  -0.688  -1.200  0.00  0.00    +0.004 A 
ATOM     29  C   UNL     1       0.024  -2.071  -1.212  0.00  0.00    +0.005 A 
ATOM     30  C   UNL     1       0.039  -2.773  -0.022  0.00  0.00    -0.026 A 
ATOM     31  C   UNL     1       0.036  -2.089   1.186  0.00  0.00    +0.058 A 
ATOM     32  C   UNL     1       0.023  -0.700   1.194  0.00  0.00    +0.030 A 
ATOM     33  C   UNL     1       0.059  -4.279  -0.036  0.00  0.00    +0.046 C 
ENDBRANCH   1  31
TORSDOF 2
