REMARK  Name = ZINC21082959
REMARK  11 active torsions:
REMARK  status: ('A' for Active; 'I' for Inactive)
REMARK    1  A    between atoms: C_1  and  C_2
REMARK    2  A    between atoms: C_2  and  C_25
REMARK    3  A    between atoms: N_3  and  N_4
REMARK    4  A    between atoms: C_7  and  S_10
REMARK    5  A    between atoms: S_10  and  C_11
REMARK    6  A    between atoms: C_11  and  C_12
REMARK    7  A    between atoms: N_14  and  C_15
REMARK    8  A    between atoms: C_18  and  C_21
REMARK    9  A    between atoms: C_21  and  C_22
REMARK   10  A    between atoms: C_21  and  C_23
REMARK   11  A    between atoms: C_21  and  C_24
REMARK                            x       y       z     vdW  Elec       q    Type
REMARK                         _______ _______ _______ _____ _____    ______ ____
ROOT
ATOM      1  N   UNL     1       5.206  -9.890  -0.862  0.00  0.00    -0.205 N 
ATOM      2  C   UNL     1       4.490  -8.709  -0.729  0.00  0.00    +0.232 A 
ATOM      3  N   UNL     1       5.021  -7.451  -0.657  0.00  0.00    -0.186 NA
ATOM      4  C   UNL     1       3.989  -6.564  -0.530  0.00  0.00    +0.211 A 
ATOM      5  N   UNL     1       2.869  -7.245  -0.518  0.00  0.00    -0.144 NA
ATOM      6  N   UNL     1       3.186  -8.604  -0.649  0.00  0.00    -0.245 N 
ATOM      7  H   UNL     1       6.304  -9.864  -0.920  0.00  0.00    +0.177 HD
ATOM      8  H   UNL     1       2.557  -9.506  -0.690  0.00  0.00    +0.192 HD
ENDROOT
BRANCH   1  11
ATOM      9  C   UNL     1       6.706 -12.187  -1.127  0.00  0.00    +0.068 C 
ATOM     10  C   UNL     1       5.202 -12.223  -1.048  0.00  0.00    +0.070 C 
ATOM     11  N   UNL     1       4.530 -11.116  -0.923  0.00  0.00    -0.184 NA
BRANCH  10  12
ATOM     12  C   UNL     1       4.494 -13.506  -1.111  0.00  0.00    +0.035 A 
ATOM     13  C   UNL     1       3.134 -13.757  -1.057  0.00  0.00    +0.017 A 
ATOM     14  C   UNL     1       2.706 -15.062  -1.139  0.00  0.00    +0.008 A 
ATOM     15  C   UNL     1       3.623 -16.056  -1.268  0.00  0.00    +0.046 A 
ATOM     16  S   UNL     1       5.163 -15.153  -1.287  0.00  0.00    -0.095 S 
ENDBRANCH  10  12
ENDBRANCH   1  11
BRANCH   4  17
ATOM     17  S   UNL     1       4.139  -4.814  -0.398  0.00  0.00    -0.075 S 
BRANCH  17  18
ATOM     18  C   UNL     1       2.425  -4.236  -0.258  0.00  0.00    +0.173 C 
BRANCH  18  19
ATOM     19  C   UNL     1       2.410  -2.734  -0.137  0.00  0.00    +0.227 C 
ATOM     20  O   UNL     1       3.452  -2.114  -0.144  0.00  0.00    -0.275 OA
ATOM     21  N   UNL     1       1.237  -2.079  -0.020  0.00  0.00    -0.285 N 
ATOM     22  H   UNL     1       0.298  -2.645   0.073  0.00  0.00    +0.155 HD
BRANCH  21  23
ATOM     23  C   UNL     1       1.214  -0.680  -0.019  0.00  0.00    +0.033 A 
ATOM     24  C   UNL     1       2.137   0.031  -0.774  0.00  0.00    +0.023 A 
ATOM     25  C   UNL     1       2.111   1.412  -0.771  0.00  0.00    +0.006 A 
ATOM     26  C   UNL     1       1.168   2.086  -0.017  0.00  0.00    -0.042 A 
ATOM     27  C   UNL     1       0.248   1.380   0.736  0.00  0.00    +0.006 A 
ATOM     28  C   UNL     1       0.268  -0.001   0.737  0.00  0.00    +0.023 A 
BRANCH  26  29
ATOM     29  C   UNL     1       1.143   3.593  -0.015  0.00  0.00    -0.013 C 
ATOM     30  C   UNL     1       0.910   4.100  -1.440  0.00  0.00    +0.015 C 
ATOM     31  C   UNL     1       0.013   4.083   0.892  0.00  0.00    +0.015 C 
ATOM     32  C   UNL     1       2.481   4.125   0.503  0.00  0.00    +0.015 C 
ENDBRANCH  26  29
ENDBRANCH  21  23
ENDBRANCH  18  19
ENDBRANCH  17  18
ENDBRANCH   4  17
TORSDOF 7
