REMARK  Name = ZINC12871903
REMARK  8 active torsions:
REMARK  status: ('A' for Active; 'I' for Inactive)
REMARK    1  A    between atoms: C_1  and  C_2
REMARK    2  A    between atoms: C_2  and  C_3
REMARK    3  A    between atoms: C_3  and  C_5
REMARK    4  A    between atoms: C_3  and  N_6
REMARK    5  A    between atoms: C_26  and  C_28
REMARK    6  A    between atoms: C_31  and  C_34
REMARK    7  A    between atoms: C_34  and  O_36
REMARK    8  A    between atoms: O_36  and  C_37
REMARK                            x       y       z     vdW  Elec       q    Type
REMARK                         _______ _______ _______ _____ _____    ______ ____
ROOT
ATOM      1  N   UNL     1      -0.740   1.998  -1.174  0.00  0.00    -0.288 N 
ATOM      2  C   UNL     1      -2.129   1.609  -1.356  0.00  0.00    +0.204 C 
ATOM      3  C   UNL     1      -2.692   2.123  -2.641  0.00  0.00    +0.234 C 
ATOM      4  O   UNL     1      -3.840   1.836  -2.910  0.00  0.00    -0.274 OA
ATOM      5  N   UNL     1      -2.018   2.876  -3.512  0.00  0.00    -0.276 N 
ATOM      6  C   UNL     1      -0.656   3.352  -3.272  0.00  0.00    +0.167 C 
ATOM      7  C   UNL     1      -0.072   2.778  -2.022  0.00  0.00    +0.237 C 
ATOM      8  O   UNL     1       1.085   3.035  -1.765  0.00  0.00    -0.274 OA
ATOM      9  C   UNL     1      -0.670   4.884  -3.172  0.00  0.00    +0.069 C 
ATOM     10  C   UNL     1      -1.514   5.438  -4.292  0.00  0.00    -0.015 A 
ATOM     11  C   UNL     1      -1.548   6.793  -4.805  0.00  0.00    +0.003 A 
ATOM     12  C   UNL     1      -0.854   7.955  -4.457  0.00  0.00    +0.010 A 
ATOM     13  C   UNL     1      -1.147   9.091  -5.172  0.00  0.00    +0.001 A 
ATOM     14  C   UNL     1      -2.085   9.097  -6.191  0.00  0.00    +0.002 A 
ATOM     15  C   UNL     1      -2.786   7.961  -6.557  0.00  0.00    +0.026 A 
ATOM     16  C   UNL     1      -2.508   6.793  -5.849  0.00  0.00    +0.047 A 
ATOM     17  N   UNL     1      -3.003   5.524  -5.946  0.00  0.00    -0.356 N 
ATOM     18  H   UNL     1      -3.677   5.235  -6.581  0.00  0.00    +0.166 HD
ATOM     19  C   UNL     1      -2.403   4.721  -5.012  0.00  0.00    +0.046 A 
ATOM     20  C   UNL     1      -2.664   3.249  -4.788  0.00  0.00    +0.154 C 
ENDROOT
BRANCH  20  21
ATOM     21  C   UNL     1      -2.071   2.446  -5.917  0.00  0.00    -0.021 A 
ATOM     22  C   UNL     1      -0.744   2.625  -6.266  0.00  0.00    +0.006 A 
ATOM     23  C   UNL     1      -0.194   1.889  -7.296  0.00  0.00    +0.015 A 
ATOM     24  C   UNL     1      -0.981   0.971  -7.992  0.00  0.00    +0.059 A 
ATOM     25  C   UNL     1      -2.321   0.799  -7.638  0.00  0.00    +0.015 A 
ATOM     26  C   UNL     1      -2.857   1.537  -6.603  0.00  0.00    +0.006 A 
BRANCH  24  27
ATOM     27  C   UNL     1      -0.400   0.183  -9.099  0.00  0.00    +0.339 C 
ATOM     28  O   UNL     1      -1.087  -0.615  -9.702  0.00  0.00    -0.245 OA
BRANCH  27  29
ATOM     29  O   UNL     1       0.893   0.351  -9.438  0.00  0.00    -0.464 OA
ATOM     30  C   UNL     1       1.397  -0.456 -10.535  0.00  0.00    +0.280 C 
ENDBRANCH  27  29
ENDBRANCH  24  27
ENDBRANCH  20  21
BRANCH   1  31
ATOM     31  C   UNL     1      -0.036   1.508   0.014  0.00  0.00    +0.073 C 
ATOM     32  C   UNL     1      -0.021  -0.022   0.003  0.00  0.00    +0.028 C 
BRANCH  31  34
ATOM     33  C   UNL     1      -0.661   3.527   1.346  0.00  0.00    +0.005 C 
ATOM     34  C   UNL     1      -0.754   2.002   1.272  0.00  0.00    +0.019 C 
ENDBRANCH  31  34
ENDBRANCH   1  31
TORSDOF 5
