REMARK  Name = ZINC24710962
REMARK  6 active torsions:
REMARK  status: ('A' for Active; 'I' for Inactive)
REMARK    1  A    between atoms: C_1  and  C_2
REMARK    2  A    between atoms: C_7  and  S_15
REMARK    3  A    between atoms: S_15  and  C_16
REMARK    4  A    between atoms: C_16  and  C_17
REMARK    5  A    between atoms: N_19  and  C_20
REMARK    6  A    between atoms: C_20  and  C_25
REMARK                            x       y       z     vdW  Elec       q    Type
REMARK                         _______ _______ _______ _____ _____    ______ ____
ROOT
ATOM      1  C   UNL     1       4.987   1.357   0.007  0.00  0.00    +0.224 C 
ATOM      2  O   UNL     1       4.248   1.804  -0.844  0.00  0.00    -0.275 OA
ATOM      3  N   UNL     1       4.770   0.125   0.509  0.00  0.00    -0.305 N 
ATOM      4  H   UNL     1       5.388  -0.248   1.340  0.00  0.00    +0.150 HD
ENDROOT
BRANCH   3   5
ATOM      5  C   UNL     1       3.711  -0.718  -0.051  0.00  0.00    +0.060 C 
ATOM      6  C   UNL     1       3.937  -0.914  -1.564  0.00  0.00    +0.030 C 
ATOM      7  C   UNL     1       4.689  -2.265  -1.663  0.00  0.00    +0.002 C 
ATOM      8  C   UNL     1       4.011  -3.117  -0.561  0.00  0.00    +0.002 C 
ATOM      9  C   UNL     1       3.759  -2.118   0.587  0.00  0.00    +0.030 C 
BRANCH   5  10
ATOM     10  C   UNL     1       2.365  -0.086   0.193  0.00  0.00    -0.020 A 
ATOM     11  C   UNL     1       2.231   0.905   1.148  0.00  0.00    +0.009 A 
ATOM     12  C   UNL     1       0.998   1.486   1.376  0.00  0.00    +0.050 A 
ATOM     13  C   UNL     1      -0.108   1.077   0.647  0.00  0.00    +0.162 A 
ATOM     14  C   UNL     1       0.027   0.084  -0.316  0.00  0.00    +0.162 A 
ATOM     15  C   UNL     1       1.267  -0.497  -0.539  0.00  0.00    +0.055 A 
ATOM     16  O   UNL     1      -1.044  -0.327  -1.049  0.00  0.00    -0.485 OA
ATOM     17  C   UNL     1      -2.339   0.010  -0.540  0.00  0.00    +0.270 C 
ATOM     18  C   UNL     1      -2.322   1.486  -0.120  0.00  0.00    +0.270 C 
ATOM     19  O   UNL     1      -1.318   1.652   0.888  0.00  0.00    -0.485 OA
ENDBRANCH   5  10
ENDBRANCH   3   5
BRANCH   1  20
ATOM     20  C   UNL     1       6.149   2.178   0.504  0.00  0.00    +0.173 C 
BRANCH  20  21
ATOM     21  S   UNL     1       6.172   3.771  -0.356  0.00  0.00    -0.076 S 
BRANCH  21  28
ATOM     22  C   UNL     1      10.471   9.340   0.060  0.00  0.00    +0.044 C 
ATOM     23  C   UNL     1       9.646   8.079   0.087  0.00  0.00    -0.038 A 
ATOM     24  C   UNL     1       9.966   7.069   0.927  0.00  0.00    +0.052 A 
ATOM     25  C   UNL     1       9.193   5.884   0.949  0.00  0.00    +0.162 A 
ATOM     26  N   UNL     1       9.295   4.768   1.647  0.00  0.00    -0.129 NA
ATOM     27  N   UNL     1       8.349   3.961   1.319  0.00  0.00    -0.122 NA
ATOM     28  C   UNL     1       7.587   4.504   0.397  0.00  0.00    +0.197 A 
ATOM     29  N   UNL     1       8.098   5.739   0.126  0.00  0.00    -0.270 N 
ATOM     30  C   UNL     1       7.727   6.750  -0.745  0.00  0.00    +0.058 A 
ATOM     31  C   UNL     1       8.480   7.936  -0.791  0.00  0.00    +0.002 A 
ATOM     32  C   UNL     1       8.110   8.960  -1.668  0.00  0.00    +0.010 A 
ATOM     33  C   UNL     1       7.010   8.798  -2.481  0.00  0.00    +0.001 A 
ATOM     34  C   UNL     1       6.270   7.627  -2.433  0.00  0.00    +0.002 A 
ATOM     35  C   UNL     1       6.622   6.607  -1.573  0.00  0.00    +0.027 A 
ENDBRANCH  21  28
ENDBRANCH  20  21
ENDBRANCH   1  20
TORSDOF 5
