REMARK  Name = ZINC12377315
REMARK  5 active torsions:
REMARK  status: ('A' for Active; 'I' for Inactive)
REMARK    1  A    between atoms: C_8  and  C_25
REMARK    2  A    between atoms: C_9  and  N_24
REMARK    3  A    between atoms: N_10  and  C_17
REMARK    4  A    between atoms: N_29  and  C_30
REMARK    5  A    between atoms: C_30  and  C_31
REMARK                            x       y       z     vdW  Elec       q    Type
REMARK                         _______ _______ _______ _____ _____    ______ ____
ROOT
ATOM      1  C   UNL     1      -0.830   2.228   2.203  0.00  0.00    +0.000 A 
ATOM      2  C   UNL     1       0.393   1.591   2.156  0.00  0.00    +0.002 A 
ATOM      3  C   UNL     1       1.492   2.157   1.529  0.00  0.00    +0.024 A 
ATOM      4  C   UNL     1       1.318   3.413   0.946  0.00  0.00    +0.041 A 
ATOM      5  C   UNL     1       0.073   4.053   1.007  0.00  0.00    -0.001 A 
ATOM      6  C   UNL     1      -1.016   3.482   1.631  0.00  0.00    +0.007 A 
ATOM      7  C   UNL     1       0.239   5.359   0.297  0.00  0.00    +0.144 C 
ATOM      8  C   UNL     1      -0.020   6.516   1.219  0.00  0.00    +0.089 C 
ATOM      9  C   UNL     1      -1.089   7.339   1.081  0.00  0.00    +0.108 C 
ATOM     10  N   UNL     1      -2.018   7.174   0.070  0.00  0.00    -0.257 N 
ATOM     11  C   UNL     1      -1.714   6.314  -0.950  0.00  0.00    +0.066 C 
ATOM     12  C   UNL     1      -0.671   5.445  -0.899  0.00  0.00    +0.082 C 
ATOM     13  C   UNL     1      -0.624   4.710  -2.093  0.00  0.00    +0.339 C 
ATOM     14  O   UNL     1       0.203   3.853  -2.343  0.00  0.00    -0.245 OA
ATOM     15  O   UNL     1      -1.618   5.081  -2.927  0.00  0.00    -0.455 OA
ATOM     16  C   UNL     1      -2.379   6.112  -2.280  0.00  0.00    +0.284 C 
ATOM     17  C   UNL     1       1.685   5.362  -0.151  0.00  0.00    +0.241 C 
ATOM     18  O   UNL     1       2.246   6.242  -0.770  0.00  0.00    -0.274 OA
ATOM     19  N   UNL     1       2.230   4.200   0.266  0.00  0.00    -0.265 N 
ENDROOT
BRANCH  10  20
ATOM     20  C   UNL     1      -3.235   7.866   0.089  0.00  0.00    +0.042 A 
ATOM     21  C   UNL     1      -4.321   7.344   0.781  0.00  0.00    +0.024 A 
ATOM     22  C   UNL     1      -5.519   8.031   0.802  0.00  0.00    +0.005 A 
ATOM     23  C   UNL     1      -5.643   9.232   0.129  0.00  0.00    +0.038 A 
ATOM     24  C   UNL     1      -4.564   9.753  -0.566  0.00  0.00    +0.125 A 
ATOM     25  C   UNL     1      -3.360   9.072  -0.587  0.00  0.00    +0.062 A 
ATOM     26  F   UNL     1      -4.687  10.927  -1.223  0.00  0.00    -0.205 F 
ENDBRANCH  10  20
BRANCH   9  27
ATOM     27  N   UNL     1      -1.255   8.369   1.975  0.00  0.00    -0.345 N 
ATOM     28  H   UNL     1      -0.665   8.446   2.741  0.00  0.00    +0.144 HD
ATOM     29  H   UNL     1      -1.963   9.019   1.841  0.00  0.00    +0.144 HD
ENDBRANCH   9  27
BRANCH   8  30
ATOM     30  C   UNL     1       0.901   6.761   2.287  0.00  0.00    +0.100 C 
ATOM     31  N   UNL     1       1.632   6.956   3.135  0.00  0.00    -0.191 NA
ENDBRANCH   8  30
BRANCH  19  32
ATOM     32  C   UNL     1       3.624   3.818   0.027  0.00  0.00    +0.148 C 
BRANCH  32  33
ATOM     33  C   UNL     1       3.723   3.070  -1.277  0.00  0.00    -0.030 A 
ATOM     34  C   UNL     1       3.590   1.694  -1.296  0.00  0.00    +0.008 A 
ATOM     35  C   UNL     1       3.675   1.007  -2.492  0.00  0.00    +0.038 A 
ATOM     36  C   UNL     1       3.905   1.697  -3.671  0.00  0.00    +0.123 A 
ATOM     37  C   UNL     1       4.044   3.074  -3.650  0.00  0.00    +0.038 A 
ATOM     38  C   UNL     1       3.953   3.759  -2.453  0.00  0.00    +0.008 A 
ATOM     39  F   UNL     1       3.994   1.026  -4.840  0.00  0.00    -0.205 F 
ENDBRANCH  32  33
ENDBRANCH  19  32
TORSDOF 5
