REMARK  Name = ZINC19075187
REMARK  8 active torsions:
REMARK  status: ('A' for Active; 'I' for Inactive)
REMARK    1  A    between atoms: C_1  and  C_2
REMARK    2  A    between atoms: C_2  and  C_23
REMARK    3  A    between atoms: C_4  and  N_11
REMARK    4  A    between atoms: C_7  and  C_9
REMARK    5  A    between atoms: C_7  and  C_10
REMARK    6  A    between atoms: N_14  and  C_15
REMARK    7  A    between atoms: C_23  and  N_24
REMARK    8  A    between atoms: N_27  and  C_28
REMARK                            x       y       z     vdW  Elec       q    Type
REMARK                         _______ _______ _______ _____ _____    ______ ____
ROOT
ATOM      1  C   UNL     1      -0.301   1.361   0.556  0.00  0.00    +0.013 C 
ATOM      2  C   UNL     1      -0.399  -0.159   0.404  0.00  0.00    -0.014 C 
ATOM      3  C   UNL     1      -1.843  -0.595   0.209  0.00  0.00    +0.030 C 
ATOM      4  C   UNL     1      -2.652  -0.600   1.494  0.00  0.00    +0.076 C 
ATOM      5  C   UNL     1      -1.969  -1.400   2.589  0.00  0.00    +0.028 C 
ATOM      6  C   UNL     1      -0.524  -0.997   2.830  0.00  0.00    -0.033 C 
ATOM      7  C   UNL     1       0.285  -0.872   1.554  0.00  0.00    +0.014 C 
ATOM      8  C   UNL     1       0.128  -2.115   3.683  0.00  0.00    +0.011 C 
ATOM      9  C   UNL     1      -0.449   0.288   3.660  0.00  0.00    +0.011 C 
ENDROOT
BRANCH   4  10
ATOM     10  N   UNL     1      -3.000   0.747   1.933  0.00  0.00    -0.296 N 
ATOM     11  C   UNL     1      -4.083   0.944   2.710  0.00  0.00    +0.304 C 
ATOM     12  O   UNL     1      -4.771  -0.002   3.046  0.00  0.00    -0.252 OA
ATOM     13  N   UNL     1      -4.405   2.188   3.116  0.00  0.00    -0.267 N 
ATOM     14  H   UNL     1      -2.451   1.501   1.666  0.00  0.00    +0.151 HD
ATOM     15  H   UNL     1      -3.813   2.931   2.918  0.00  0.00    +0.156 HD
BRANCH  13  16
ATOM     16  C   UNL     1      -5.593   2.409   3.823  0.00  0.00    +0.073 A 
ATOM     17  C   UNL     1      -6.661   1.534   3.680  0.00  0.00    +0.064 A 
ATOM     18  C   UNL     1      -7.833   1.754   4.380  0.00  0.00    +0.125 A 
ATOM     19  C   UNL     1      -7.942   2.847   5.224  0.00  0.00    +0.041 A 
ATOM     20  C   UNL     1      -6.881   3.721   5.368  0.00  0.00    +0.043 A 
ATOM     21  C   UNL     1      -5.704   3.503   4.675  0.00  0.00    +0.145 A 
ATOM     22  F   UNL     1      -4.665   4.354   4.820  0.00  0.00    -0.204 F 
ATOM     23  F   UNL     1      -8.873   0.903   4.241  0.00  0.00    -0.205 F 
ENDBRANCH  13  16
ENDBRANCH   4  10
BRANCH   2  24
ATOM     24  C   UNL     1       0.368  -0.527  -0.891  0.00  0.00    +0.112 C 
BRANCH  24  25
ATOM     25  N   UNL     1      -0.248   0.152  -2.033  0.00  0.00    -0.299 N 
ATOM     26  C   UNL     1       0.255  -0.022  -3.272  0.00  0.00    +0.304 C 
ATOM     27  O   UNL     1       1.221  -0.742  -3.440  0.00  0.00    -0.253 OA
ATOM     28  N   UNL     1      -0.311   0.603  -4.323  0.00  0.00    -0.267 N 
ATOM     29  H   UNL     1      -1.018   0.726  -1.899  0.00  0.00    +0.150 HD
ATOM     30  H   UNL     1      -1.029   1.240  -4.179  0.00  0.00    +0.156 HD
BRANCH  28  31
ATOM     31  C   UNL     1       0.135   0.332  -5.622  0.00  0.00    +0.073 A 
ATOM     32  C   UNL     1       0.750  -0.879  -5.908  0.00  0.00    +0.064 A 
ATOM     33  C   UNL     1       1.189  -1.144  -7.193  0.00  0.00    +0.125 A 
ATOM     34  C   UNL     1       1.017  -0.202  -8.193  0.00  0.00    +0.041 A 
ATOM     35  C   UNL     1       0.406   1.006  -7.911  0.00  0.00    +0.043 A 
ATOM     36  C   UNL     1      -0.041   1.274  -6.630  0.00  0.00    +0.145 A 
ATOM     37  F   UNL     1      -0.643   2.452  -6.357  0.00  0.00    -0.204 F 
ATOM     38  F   UNL     1       1.788  -2.323  -7.472  0.00  0.00    -0.205 F 
ENDBRANCH  28  31
ENDBRANCH  24  25
ENDBRANCH   2  24
TORSDOF 5
