REMARK  Name = ZINC01192396
REMARK  11 active torsions:
REMARK  status: ('A' for Active; 'I' for Inactive)
REMARK    1  A    between atoms: C_1  and  C_2
REMARK    2  A    between atoms: C_5  and  S_8
REMARK    3  A    between atoms: S_8  and  N_11
REMARK    4  A    between atoms: N_11  and  C_12
REMARK    5  A    between atoms: N_11  and  C_19
REMARK    6  A    between atoms: C_12  and  C_13
REMARK    7  A    between atoms: C_24  and  C_25
REMARK    8  A    between atoms: N_27  and  N_28
REMARK    9  A    between atoms: C_29  and  C_30
REMARK   10  A    between atoms: C_29  and  C_31
REMARK   11  A    between atoms: C_36  and  O_37
REMARK                            x       y       z     vdW  Elec       q    Type
REMARK                         _______ _______ _______ _____ _____    ______ ____
ROOT
ATOM      1  C   UNL     1       2.271  -5.289  -1.240  0.00  0.00    +0.064 A 
ATOM      2  C   UNL     1       2.336  -6.601  -1.694  0.00  0.00    +0.025 A 
ATOM      3  C   UNL     1       2.986  -6.891  -2.876  0.00  0.00    +0.002 A 
ATOM      4  C   UNL     1       3.575  -5.881  -3.620  0.00  0.00    +0.001 A 
ATOM      5  C   UNL     1       3.520  -4.575  -3.187  0.00  0.00    +0.015 A 
ATOM      6  C   UNL     1       2.862  -4.263  -1.994  0.00  0.00    +0.061 A 
ENDROOT
BRANCH   6   7
ATOM      7  C   UNL     1       2.795  -2.867  -1.527  0.00  0.00    +0.265 C 
ATOM      8  O   UNL     1       2.318  -2.612  -0.437  0.00  0.00    -0.268 OA
ATOM      9  N   UNL     1       3.261  -1.872  -2.308  0.00  0.00    -0.203 N 
ATOM     10  H   UNL     1       3.574  -2.066  -3.205  0.00  0.00    +0.178 HD
BRANCH   9  11
ATOM     11  N   UNL     1       3.295  -0.558  -1.823  0.00  0.00    -0.184 NA
ATOM     12  C   UNL     1       3.652   0.414  -2.606  0.00  0.00    +0.067 C 
ATOM     13  C   UNL     1       3.925   0.146  -4.063  0.00  0.00    +0.068 C 
BRANCH  12  14
ATOM     14  C   UNL     1       3.791   1.780  -2.069  0.00  0.00    +0.039 A 
ATOM     15  C   UNL     1       4.066   2.847  -2.927  0.00  0.00    +0.013 A 
ATOM     16  C   UNL     1       4.195   4.122  -2.419  0.00  0.00    +0.001 A 
ATOM     17  C   UNL     1       4.052   4.350  -1.060  0.00  0.00    +0.004 A 
ATOM     18  C   UNL     1       3.779   3.302  -0.201  0.00  0.00    +0.046 A 
ATOM     19  C   UNL     1       3.641   2.016  -0.696  0.00  0.00    +0.126 A 
BRANCH  19  20
ATOM     20  O   UNL     1       3.367   0.987   0.147  0.00  0.00    -0.506 OA
ATOM     21  H   UNL     1       4.153   0.554   0.509  0.00  0.00    +0.292 HD
ENDBRANCH  19  20
ENDBRANCH  12  14
ENDBRANCH   9  11
ENDBRANCH   6   7
BRANCH   1  22
ATOM     22  N   UNL     1       1.618  -4.994  -0.051  0.00  0.00    -0.198 N 
BRANCH  22  23
ATOM     23  S   UNL     1       2.483  -4.838   1.352  0.00  0.00    +0.075 S 
ATOM     24  O   UNL     1       1.659  -4.121   2.261  0.00  0.00    -0.150 OA
ATOM     25  O   UNL     1       3.780  -4.388   0.982  0.00  0.00    -0.150 OA
BRANCH  23  30
ATOM     26  C   UNL     1       3.171 -10.374   3.651  0.00  0.00    +0.044 C 
ATOM     27  C   UNL     1       3.000  -8.992   3.077  0.00  0.00    -0.050 A 
ATOM     28  C   UNL     1       3.989  -8.446   2.281  0.00  0.00    +0.005 A 
ATOM     29  C   UNL     1       3.832  -7.178   1.754  0.00  0.00    +0.029 A 
ATOM     30  C   UNL     1       2.684  -6.455   2.023  0.00  0.00    +0.109 A 
ATOM     31  C   UNL     1       1.694  -7.002   2.818  0.00  0.00    +0.029 A 
ATOM     32  C   UNL     1       1.850  -8.271   3.341  0.00  0.00    +0.005 A 
ENDBRANCH  23  30
ENDBRANCH  22  23
BRANCH  22  33
ATOM     33  C   UNL     1       0.163  -4.820  -0.037  0.00  0.00    +0.166 C 
BRANCH  33  34
ATOM     34  C   UNL     1      -0.177  -3.399  -0.408  0.00  0.00    -0.028 A 
ATOM     35  C   UNL     1      -0.279  -2.433   0.576  0.00  0.00    +0.005 A 
ATOM     36  C   UNL     1      -0.590  -1.130   0.236  0.00  0.00    +0.000 A 
ATOM     37  C   UNL     1      -0.799  -0.793  -1.088  0.00  0.00    +0.000 A 
ATOM     38  C   UNL     1      -0.697  -1.758  -2.072  0.00  0.00    +0.000 A 
ATOM     39  C   UNL     1      -0.381  -3.061  -1.732  0.00  0.00    +0.005 A 
ENDBRANCH  33  34
ENDBRANCH  22  33
ENDBRANCH   1  22
TORSDOF 9
