REMARK  Name = ZINC39938004
REMARK  10 active torsions:
REMARK  status: ('A' for Active; 'I' for Inactive)
REMARK    1  A    between atoms: C_1  and  C_2
REMARK    2  A    between atoms: C_7  and  C_12
REMARK    3  A    between atoms: C_12  and  C_36
REMARK    4  A    between atoms: C_13  and  C_14
REMARK    5  A    between atoms: C_17  and  C_19
REMARK    6  A    between atoms: C_22  and  C_25
REMARK    7  A    between atoms: C_25  and  O_27
REMARK    8  A    between atoms: O_27  and  C_28
REMARK    9  A    between atoms: C_28  and  C_29
REMARK   10  A    between atoms: C_29  and  C_30
REMARK                            x       y       z     vdW  Elec       q    Type
REMARK                         _______ _______ _______ _____ _____    ______ ____
ROOT
ATOM      1  C   UNL     1      -0.057  -6.766   2.968  0.00  0.00    +0.130 A 
ATOM      2  C   UNL     1      -0.302  -7.855   3.782  0.00  0.00    +0.050 A 
ATOM      3  C   UNL     1      -1.686  -8.050   3.791  0.00  0.00    +0.050 A 
ATOM      4  C   UNL     1      -2.234  -7.076   2.986  0.00  0.00    +0.136 A 
ATOM      5  O   UNL     1      -1.238  -6.309   2.505  0.00  0.00    -0.455 OA
ENDROOT
BRANCH   4   6
ATOM      6  C   UNL     1      -3.670  -6.899   2.704  0.00  0.00    +0.017 A 
ATOM      7  C   UNL     1      -4.607  -7.763   3.281  0.00  0.00    +0.012 A 
ATOM      8  C   UNL     1      -5.938  -7.599   3.019  0.00  0.00    +0.015 A 
ATOM      9  C   UNL     1      -6.363  -6.568   2.176  0.00  0.00    +0.059 A 
ATOM     10  C   UNL     1      -5.426  -5.705   1.599  0.00  0.00    +0.015 A 
ATOM     11  C   UNL     1      -4.096  -5.864   1.865  0.00  0.00    +0.012 A 
BRANCH   9  12
ATOM     12  C   UNL     1      -7.800  -6.391   1.893  0.00  0.00    +0.339 C 
ATOM     13  O   UNL     1      -8.614  -7.141   2.394  0.00  0.00    -0.245 OA
BRANCH  12  14
ATOM     14  O   UNL     1      -8.210  -5.398   1.081  0.00  0.00    -0.461 OA
BRANCH  14  15
ATOM     15  C   UNL     1      -9.616  -5.285   0.851  0.00  0.00    +0.237 C 
BRANCH  15  16
ATOM     16  C   UNL     1      -9.887  -4.110  -0.089  0.00  0.00    +0.076 C 
BRANCH  16  17
ATOM     17  C   UNL     1     -11.370  -3.991  -0.331  0.00  0.00    -0.044 A 
ATOM     18  C   UNL     1     -11.956  -4.673  -1.381  0.00  0.00    +0.004 A 
ATOM     19  C   UNL     1     -13.316  -4.564  -1.603  0.00  0.00    +0.000 A 
ATOM     20  C   UNL     1     -14.090  -3.774  -0.774  0.00  0.00    +0.000 A 
ATOM     21  C   UNL     1     -13.504  -3.092   0.276  0.00  0.00    +0.000 A 
ATOM     22  C   UNL     1     -12.145  -3.204   0.501  0.00  0.00    +0.004 A 
ENDBRANCH  16  17
ENDBRANCH  15  16
ENDBRANCH  14  15
ENDBRANCH  12  14
ENDBRANCH   9  12
ENDBRANCH   4   6
BRANCH   1  24
ATOM     23  C   UNL     1       1.313  -5.069   1.963  0.00  0.00    +0.075 C 
ATOM     24  C   UNL     1       1.216  -6.218   2.676  0.00  0.00    +0.064 C 
BRANCH  23  31
ATOM     25  C   UNL     1      -0.041   0.332  -2.262  0.00  0.00    +0.044 C 
ATOM     26  C   UNL     1      -0.151  -1.020  -1.603  0.00  0.00    -0.048 A 
ATOM     27  C   UNL     1      -0.624  -2.104  -2.363  0.00  0.00    +0.005 A 
ATOM     28  C   UNL     1      -0.755  -3.346  -1.854  0.00  0.00    +0.027 A 
ATOM     29  C   UNL     1      -0.393  -3.597  -0.453  0.00  0.00    +0.060 A 
ATOM     30  N   UNL     1      -0.414  -4.666   0.289  0.00  0.00    -0.359 N 
ATOM     31  C   UNL     1       0.070  -4.287   1.623  0.00  0.00    +0.216 C 
ATOM     32  N   UNL     1       0.378  -2.853   1.559  0.00  0.00    -0.359 N 
ATOM     33  C   UNL     1       0.109  -2.449   0.351  0.00  0.00    +0.061 A 
ATOM     34  C   UNL     1       0.213  -1.141  -0.311  0.00  0.00    +0.030 A 
ATOM     35  H   UNL     1      -0.699  -5.551   0.013  0.00  0.00    +0.162 HD
ATOM     36  H   UNL     1       0.719  -2.306   2.285  0.00  0.00    +0.162 HD
ENDBRANCH  23  31
BRANCH  23  37
ATOM     37  C   UNL     1       2.595  -4.598   1.534  0.00  0.00    +0.099 C 
ATOM     38  N   UNL     1       3.612  -4.224   1.194  0.00  0.00    -0.191 NA
ENDBRANCH  23  37
ENDBRANCH   1  24
TORSDOF 9
