REMARK  Name = ZINC61700316
REMARK  7 active torsions:
REMARK  status: ('A' for Active; 'I' for Inactive)
REMARK    1  A    between atoms: C_1  and  C_2
REMARK    2  A    between atoms: C_2  and  C_4
REMARK    3  A    between atoms: C_2  and  N_20
REMARK    4  A    between atoms: C_7  and  S_11
REMARK    5  A    between atoms: S_11  and  C_12
REMARK    6  A    between atoms: C_16  and  N_18
REMARK    7  A    between atoms: N_20  and  C_21
REMARK                            x       y       z     vdW  Elec       q    Type
REMARK                         _______ _______ _______ _____ _____    ______ ____
ROOT
ATOM      1  C   UNL     1       1.324  -0.774  -0.858  0.00  0.00    -0.061 A 
ATOM      2  C   UNL     1       0.469  -0.729  -1.944  0.00  0.00    +0.003 A 
ATOM      3  C   UNL     1       0.924  -1.087  -3.198  0.00  0.00    +0.016 A 
ATOM      4  C   UNL     1       2.242  -1.492  -3.368  0.00  0.00    +0.030 A 
ATOM      5  C   UNL     1       3.099  -1.536  -2.274  0.00  0.00    +0.032 A 
ATOM      6  C   UNL     1       2.638  -1.172  -1.023  0.00  0.00    +0.018 A 
ATOM      7 BR   UNL     1       4.893  -2.087  -2.498  0.00  0.00    -0.049 Br
ENDROOT
BRANCH   1   9
ATOM      8  C   UNL     1       0.804   1.143   0.627  0.00  0.00    -0.009 C 
ATOM      9  C   UNL     1       0.824  -0.382   0.509  0.00  0.00    -0.044 C 
BRANCH   9  10
ATOM     10  N   UNL     1      -0.535  -0.906   0.702  0.00  0.00    +0.382 N 
ATOM     11  C   UNL     1      -0.977  -0.628   2.075  0.00  0.00    -0.100 C 
ATOM     12  H   UNL     1      -1.163  -0.460   0.050  0.00  0.00    -0.085 HD
ATOM     13  H   UNL     1      -0.537  -1.902   0.543  0.00  0.00    -0.085 HD
ENDBRANCH   9  10
ENDBRANCH   1   9
BRANCH   4  14
ATOM     14  S   UNL     1       2.826  -1.951  -4.966  0.00  0.00    -0.049 S 
BRANCH  14  15
ATOM     15  C   UNL     1       3.783  -0.565  -5.483  0.00  0.00    +0.196 A 
ATOM     16  N   UNL     1       3.816   0.518  -4.721  0.00  0.00    -0.207 NA
ATOM     17  C   UNL     1       4.527   1.584  -5.080  0.00  0.00    +0.122 A 
ATOM     18  C   UNL     1       5.243   1.549  -6.273  0.00  0.00    +0.086 A 
ATOM     19  C   UNL     1       5.185   0.395  -7.048  0.00  0.00    +0.122 A 
ATOM     20  N   UNL     1       4.456  -0.635  -6.623  0.00  0.00    -0.207 NA
ATOM     21  N   UNL     1       4.556   2.713  -4.276  0.00  0.00    -0.343 N 
ATOM     22  H   UNL     1       4.054   2.730  -3.446  0.00  0.00    +0.144 HD
ATOM     23  H   UNL     1       5.077   3.486  -4.544  0.00  0.00    +0.144 HD
BRANCH  19  24
ATOM     24  N   UNL     1       5.881   0.315  -8.244  0.00  0.00    -0.343 N 
ATOM     25  H   UNL     1       6.413   1.068  -8.546  0.00  0.00    +0.144 HD
ATOM     26  H   UNL     1       5.836  -0.492  -8.779  0.00  0.00    +0.144 HD
ENDBRANCH  19  24
ENDBRANCH  14  15
ENDBRANCH   4  14
TORSDOF 5
