REMARK  Name = ZINC20569035
REMARK  9 active torsions:
REMARK  status: ('A' for Active; 'I' for Inactive)
REMARK    1  A    between atoms: C_1  and  C_2
REMARK    2  A    between atoms: C_3  and  C_23
REMARK    3  A    between atoms: N_19  and  C_20
REMARK    4  A    between atoms: C_20  and  C_21
REMARK    5  A    between atoms: C_23  and  O_25
REMARK    6  A    between atoms: O_25  and  C_26
REMARK    7  A    between atoms: C_26  and  C_27
REMARK    8  A    between atoms: C_26  and  C_28
REMARK    9  A    between atoms: C_26  and  C_29
REMARK                            x       y       z     vdW  Elec       q    Type
REMARK                         _______ _______ _______ _____ _____    ______ ____
ROOT
ATOM      1  C   UNL     1      -4.328  -4.608   1.559  0.00  0.00    +0.061 C 
ATOM      2  C   UNL     1      -3.156  -4.200   0.703  0.00  0.00    +0.023 C 
ATOM      3  C   UNL     1      -1.967  -3.798   1.197  0.00  0.00    +0.079 C 
ATOM      4  C   UNL     1      -1.109  -3.492  -0.004  0.00  0.00    +0.151 C 
ATOM      5  C   UNL     1       0.131  -4.339  -0.025  0.00  0.00    -0.011 A 
ATOM      6  C   UNL     1       0.347  -5.698  -0.038  0.00  0.00    +0.006 A 
ATOM      7  C   UNL     1       1.639  -6.196  -0.054  0.00  0.00    +0.000 A 
ATOM      8  C   UNL     1       2.717  -5.329  -0.057  0.00  0.00    +0.001 A 
ATOM      9  C   UNL     1       2.514  -3.965  -0.045  0.00  0.00    +0.012 A 
ATOM     10  C   UNL     1       1.213  -3.454  -0.030  0.00  0.00    +0.024 A 
ATOM     11  C   UNL     1       0.706  -2.067  -0.016  0.00  0.00    +0.162 A 
ATOM     12  C   UNL     1      -0.650  -2.061  -0.002  0.00  0.00    +0.113 A 
ATOM     13  N   UNL     1      -1.054  -0.782   0.013  0.00  0.00    -0.198 NA
ATOM     14  C   UNL     1       0.002  -0.004   0.002  0.00  0.00    +0.286 A 
ATOM     15  O   UNL     1       1.104  -0.770  -0.012  0.00  0.00    -0.424 OA
ATOM     16  N   UNL     1      -0.017   1.375   0.010  0.00  0.00    -0.313 N 
ATOM     17  C   UNL     1      -2.001  -3.785  -1.184  0.00  0.00    +0.242 C 
ATOM     18  O   UNL     1      -1.720  -3.677  -2.358  0.00  0.00    -0.273 OA
ATOM     19  N   UNL     1      -3.176  -4.192  -0.661  0.00  0.00    -0.262 N 
ATOM     20  H   UNL     1       0.928   1.938  -0.001  0.00  0.00    +0.147 HD
ATOM     21  H   UNL     1      -0.977   1.912   0.026  0.00  0.00    +0.147 HD
ENDROOT
BRANCH   3  22
ATOM     22  C   UNL     1      -1.602  -3.687   2.560  0.00  0.00    +0.339 C 
ATOM     23  O   UNL     1      -2.403  -3.970   3.430  0.00  0.00    -0.245 OA
BRANCH  22  24
ATOM     24  O   UNL     1      -0.364  -3.267   2.894  0.00  0.00    -0.456 OA
BRANCH  24  25
ATOM     25  C   UNL     1      -0.063  -3.179   4.288  0.00  0.00    +0.106 C 
ATOM     26  C   UNL     1      -0.216  -4.558   4.931  0.00  0.00    +0.055 C 
ATOM     27  C   UNL     1       1.375  -2.688   4.469  0.00  0.00    +0.055 C 
ATOM     28  C   UNL     1      -1.025  -2.194   4.956  0.00  0.00    +0.055 C 
ENDBRANCH  24  25
ENDBRANCH  22  24
ENDBRANCH   3  22
BRANCH  19  29
ATOM     29  C   UNL     1      -4.338  -4.581  -1.464  0.00  0.00    +0.201 C 
BRANCH  29  30
ATOM     30  C   UNL     1      -5.175  -3.398  -1.720  0.00  0.00    -0.086 C 
ATOM     31  C   UNL     1      -5.843  -2.454  -1.924  0.00  0.00    +0.005 C 
ENDBRANCH  29  30
ENDBRANCH  19  29
TORSDOF 5
