REMARK  Name = ZINC39669638
REMARK  7 active torsions:
REMARK  status: ('A' for Active; 'I' for Inactive)
REMARK    1  A    between atoms: C_1  and  C_2
REMARK    2  A    between atoms: C_2  and  C_3
REMARK    3  A    between atoms: C_2  and  C_4
REMARK    4  A    between atoms: C_2  and  N_29
REMARK    5  A    between atoms: C_4  and  N_5
REMARK    6  A    between atoms: C_6  and  C_8
REMARK    7  A    between atoms: C_19  and  C_21
REMARK                            x       y       z     vdW  Elec       q    Type
REMARK                         _______ _______ _______ _____ _____    ______ ____
ROOT
ATOM      1  C   UNL     1      -1.922  -3.845  -0.324  0.00  0.00    +0.100 C 
ATOM      2  C   UNL     1      -0.896  -4.562  -1.230  0.00  0.00    +0.121 C 
ATOM      3  N   UNL     1      -1.529  -5.862  -1.556  0.00  0.00    -0.296 N 
ATOM      4  C   UNL     1      -2.961  -5.535  -1.759  0.00  0.00    +0.115 C 
ATOM      5  C   UNL     1      -3.275  -4.486  -0.674  0.00  0.00    -0.004 C 
ATOM      6  C   UNL     1      -3.874  -5.162   0.555  0.00  0.00    -0.010 C 
ATOM      7  C   UNL     1      -5.245  -5.742   0.196  0.00  0.00    -0.082 C 
ATOM      8  N   UNL     1      -6.126  -4.666  -0.273  0.00  0.00    +0.379 N 
ATOM      9  C   UNL     1      -5.589  -4.082  -1.509  0.00  0.00    -0.082 C 
ATOM     10  C   UNL     1      -4.233  -3.432  -1.222  0.00  0.00    -0.010 C 
ATOM     11  C   UNL     1      -0.937  -7.069  -1.646  0.00  0.00    +0.247 C 
ATOM     12  O   UNL     1       0.228  -7.200  -1.324  0.00  0.00    -0.270 OA
ATOM     13  H   UNL     1      -7.046  -5.040  -0.451  0.00  0.00    -0.086 HD
ATOM     14  H   UNL     1      -6.188  -3.951   0.436  0.00  0.00    -0.086 HD
ENDROOT
BRANCH  11  15
ATOM     15  C   UNL     1      -1.704  -8.234  -2.138  0.00  0.00    +0.040 A 
ATOM     16  C   UNL     1      -2.860  -8.042  -2.895  0.00  0.00    +0.033 A 
ATOM     17  C   UNL     1      -3.572  -9.134  -3.352  0.00  0.00    +0.043 A 
ATOM     18  C   UNL     1      -3.140 -10.416  -3.059  0.00  0.00    +0.040 A 
ATOM     19  C   UNL     1      -1.994 -10.613  -2.308  0.00  0.00    +0.043 A 
ATOM     20  C   UNL     1      -1.271  -9.529  -1.851  0.00  0.00    +0.033 A 
ATOM     21 CL   UNL     1      -1.462 -12.225  -1.945  0.00  0.00    -0.083 Cl
ATOM     22 CL   UNL     1      -5.011  -8.898  -4.294  0.00  0.00    -0.083 Cl
ENDBRANCH  11  15
BRANCH   1  24
ATOM     23  N   UNL     1      -2.368  -1.497   0.312  0.00  0.00    -0.313 N 
ATOM     24  C   UNL     1      -1.946  -2.369  -0.625  0.00  0.00    +0.218 C 
ATOM     25  O   UNL     1      -1.587  -1.965  -1.711  0.00  0.00    -0.275 OA
ATOM     26  H   UNL     1      -2.656  -1.819   1.181  0.00  0.00    +0.149 HD
BRANCH  23  27
ATOM     27  C   UNL     1      -2.392  -0.061   0.019  0.00  0.00    +0.126 C 
BRANCH  27  29
ATOM     28  C   UNL     1      -1.685   0.547   2.337  0.00  0.00    +0.029 C 
ATOM     29  C   UNL     1      -2.781   0.710   1.282  0.00  0.00    +0.032 C 
ATOM     30  C   UNL     1      -2.945   2.193   0.943  0.00  0.00    +0.029 C 
BRANCH  29  31
ATOM     31  N   UNL     1      -4.048   0.185   1.807  0.00  0.00    -0.291 NA
ATOM     32  C   UNL     1      -5.108   0.253   0.790  0.00  0.00    +0.113 C 
ATOM     33  C   UNL     1      -6.392  -0.358   1.357  0.00  0.00    +0.175 C 
ATOM     34  O   UNL     1      -6.750   0.329   2.560  0.00  0.00    -0.377 OA
ATOM     35  C   UNL     1      -5.741   0.282   3.572  0.00  0.00    +0.175 C 
ATOM     36  C   UNL     1      -4.450   0.900   3.027  0.00  0.00    +0.113 C 
ENDBRANCH  29  31
ENDBRANCH  27  29
ENDBRANCH  23  27
ENDBRANCH   1  24
TORSDOF 5
