REMARK  Name = ZINC14753593
REMARK  12 active torsions:
REMARK  status: ('A' for Active; 'I' for Inactive)
REMARK    1  A    between atoms: C_1  and  C_2
REMARK    2  A    between atoms: C_2  and  C_3
REMARK    3  A    between atoms: C_2  and  N_4
REMARK    4  A    between atoms: N_4  and  S_5
REMARK    5  A    between atoms: S_5  and  C_8
REMARK    6  A    between atoms: C_10  and  C_24
REMARK    7  A    between atoms: C_12  and  N_14
REMARK    8  A    between atoms: N_14  and  C_15
REMARK    9  A    between atoms: C_20  and  C_22
REMARK   10  A    between atoms: C_20  and  C_23
REMARK   11  A    between atoms: N_26  and  C_27
REMARK   12  A    between atoms: C_27  and  C_28
REMARK                            x       y       z     vdW  Elec       q    Type
REMARK                         _______ _______ _______ _____ _____    ______ ____
ROOT
ATOM      1  C   UNL     1       8.817   3.064  -4.630  0.00  0.00    +0.108 A 
ATOM      2  C   UNL     1       8.375   2.931  -3.329  0.00  0.00    +0.041 A 
ATOM      3  C   UNL     1       7.006   2.870  -3.060  0.00  0.00    +0.040 A 
ATOM      4  C   UNL     1       6.090   2.938  -4.109  0.00  0.00    +0.036 A 
ATOM      5  C   UNL     1       6.544   3.075  -5.412  0.00  0.00    +0.030 A 
ATOM      6  C   UNL     1       7.909   3.136  -5.669  0.00  0.00    +0.051 A 
ENDROOT
BRANCH   3   7
ATOM      7  C   UNL     1       6.530   2.728  -1.667  0.00  0.00    +0.244 C 
ATOM      8  O   UNL     1       7.331   2.663  -0.755  0.00  0.00    -0.270 OA
ATOM      9  N   UNL     1       5.209   2.669  -1.409  0.00  0.00    -0.306 N 
ATOM     10  H   UNL     1       4.570   2.720  -2.138  0.00  0.00    +0.149 HD
BRANCH   9  11
ATOM     11  C   UNL     1       4.737   2.528  -0.030  0.00  0.00    +0.161 C 
BRANCH  11  12
ATOM     12  C   UNL     1       3.231   2.487  -0.015  0.00  0.00    +0.077 A 
ATOM     13  C   UNL     1       2.473   1.369  -0.014  0.00  0.00    +0.117 A 
ATOM     14  N   UNL     1       1.164   1.768   0.000  0.00  0.00    -0.306 N 
ATOM     15  C   UNL     1      -0.013   1.076   0.008  0.00  0.00    +0.092 A 
ATOM     16  C   UNL     1      -1.194   1.728   0.017  0.00  0.00    +0.018 A 
ATOM     17  C   UNL     1      -1.228   3.133   0.031  0.00  0.00    +0.005 A 
ATOM     18  C   UNL     1      -0.063   3.835   0.023  0.00  0.00    +0.047 A 
ATOM     19  C   UNL     1       1.163   3.139   0.008  0.00  0.00    +0.138 A 
ATOM     20  N   UNL     1       2.423   3.550  -0.002  0.00  0.00    -0.231 NA
ENDBRANCH  11  12
ENDBRANCH   9  11
ENDBRANCH   3   7
BRANCH   1  21
ATOM     21  S   UNL     1      10.545   3.141  -4.966  0.00  0.00    +0.059 S 
ATOM     22  O   UNL     1      10.687   3.814  -6.210  0.00  0.00    -0.153 OA
ATOM     23  O   UNL     1      11.170   3.600  -3.776  0.00  0.00    -0.153 OA
BRANCH  21  24
ATOM     24  N   UNL     1      11.067   1.588  -5.206  0.00  0.00    -0.187 NA
ATOM     25  H   UNL     1      11.697   1.187  -4.588  0.00  0.00    +0.148 HD
BRANCH  24  27
ATOM     26  C   UNL     1      11.567   0.943  -7.512  0.00  0.00    +0.025 C 
ATOM     27  C   UNL     1      10.576   0.819  -6.353  0.00  0.00    +0.070 C 
ATOM     28  C   UNL     1      10.435  -0.652  -5.958  0.00  0.00    +0.025 C 
ENDBRANCH  24  27
ENDBRANCH  21  24
ENDBRANCH   1  21
BRANCH   5  29
ATOM     29  N   UNL     1       5.630   3.149  -6.466  0.00  0.00    -0.341 N 
ATOM     30  H   UNL     1       5.948   3.242  -7.378  0.00  0.00    +0.146 HD
BRANCH  29  31
ATOM     31  C   UNL     1       4.192   3.086  -6.194  0.00  0.00    +0.071 C 
ATOM     32  C   UNL     1       3.677   4.483  -5.844  0.00  0.00    +0.022 C 
ATOM     33  C   UNL     1       2.175   4.417  -5.561  0.00  0.00    +0.002 C 
ATOM     34  C   UNL     1       1.444   3.900  -6.801  0.00  0.00    +0.006 C 
ATOM     35  C   UNL     1       1.959   2.502  -7.152  0.00  0.00    -0.033 C 
ATOM     36  C   UNL     1       3.461   2.569  -7.435  0.00  0.00    +0.028 C 
ATOM     37  C   UNL     1       1.228   1.985  -8.392  0.00  0.00    +0.011 C 
ATOM     38  C   UNL     1       1.703   1.555  -5.977  0.00  0.00    +0.011 C 
ENDBRANCH  29  31
ENDBRANCH   5  29
TORSDOF 8
