REMARK  Name = ZINC59030410
REMARK  11 active torsions:
REMARK  status: ('A' for Active; 'I' for Inactive)
REMARK    1  A    between atoms: C_1  and  C_2
REMARK    2  A    between atoms: C_2  and  O_3
REMARK    3  A    between atoms: O_3  and  C_4
REMARK    4  A    between atoms: C_4  and  C_6
REMARK    5  A    between atoms: C_9  and  N_12
REMARK    6  A    between atoms: C_13  and  C_15
REMARK    7  A    between atoms: N_22  and  N_23
REMARK    8  A    between atoms: C_24  and  C_25
REMARK    9  A    between atoms: C_24  and  C_26
REMARK   10  A    between atoms: C_26  and  C_27
REMARK   11  A    between atoms: C_27  and  C_28
REMARK                            x       y       z     vdW  Elec       q    Type
REMARK                         _______ _______ _______ _____ _____    ______ ____
ROOT
ATOM      1  C   UNL     1      -8.224  -5.984  -0.162  0.00  0.00    +0.149 C 
ATOM      2  C   UNL     1      -8.175  -7.289  -0.958  0.00  0.00    +0.120 C 
ATOM      3  C   UNL     1      -9.468  -8.028  -0.920  0.00  0.00    +0.220 C 
ATOM      4  O   UNL     1      -9.699  -8.734  -1.879  0.00  0.00    -0.275 OA
ATOM      5  N   UNL     1     -10.399  -8.017   0.021  0.00  0.00    -0.264 N 
ATOM      6  C   UNL     1     -10.388  -7.173   1.117  0.00  0.00    +0.183 C 
ATOM      7  N   UNL     1     -11.467  -6.979   1.843  0.00  0.00    -0.127 NA
ATOM      8  S   UNL     1      -8.858  -6.365   1.504  0.00  0.00    -0.075 S 
ATOM      9  H   UNL     1     -11.138  -8.640  -0.063  0.00  0.00    +0.157 HD
ENDROOT
BRANCH   1  11
ATOM     10  N   UNL     1      -6.679  -4.063   0.043  0.00  0.00    -0.285 N 
ATOM     11  C   UNL     1      -6.840  -5.397  -0.058  0.00  0.00    +0.231 C 
ATOM     12  O   UNL     1      -5.870  -6.126  -0.067  0.00  0.00    -0.274 OA
ATOM     13  H   UNL     1      -7.454  -3.486   0.127  0.00  0.00    +0.155 HD
BRANCH  10  17
ATOM     14  C   UNL     1      -2.853  -2.417  -0.002  0.00  0.00    +0.059 A 
ATOM     15  C   UNL     1      -3.132  -3.562  -0.754  0.00  0.00    +0.017 A 
ATOM     16  C   UNL     1      -4.397  -4.104  -0.737  0.00  0.00    +0.024 A 
ATOM     17  C   UNL     1      -5.398  -3.512   0.028  0.00  0.00    +0.033 A 
ATOM     18  C   UNL     1      -5.124  -2.373   0.778  0.00  0.00    +0.024 A 
ATOM     19  C   UNL     1      -3.859  -1.829   0.770  0.00  0.00    +0.017 A 
BRANCH  14  20
ATOM     20  C   UNL     1      -1.498  -1.835  -0.018  0.00  0.00    +0.339 C 
ATOM     21  O   UNL     1      -1.256  -0.843   0.640  0.00  0.00    -0.245 OA
BRANCH  20  22
ATOM     22  O   UNL     1      -0.529  -2.402  -0.762  0.00  0.00    -0.461 OA
BRANCH  22  24
ATOM     23  C   UNL     1       1.720  -2.565  -1.630  0.00  0.00    +0.048 C 
ATOM     24  C   UNL     1       0.759  -1.785  -0.731  0.00  0.00    +0.229 C 
ENDBRANCH  22  24
ENDBRANCH  20  22
ENDBRANCH  14  20
ENDBRANCH  10  17
ENDBRANCH   1  11
BRANCH   7  25
ATOM     25  N   UNL     1     -12.661  -7.632   1.511  0.00  0.00    -0.157 NA
ATOM     26  C   UNL     1     -13.723  -7.440   2.225  0.00  0.00    +0.038 C 
ATOM     27  C   UNL     1     -15.008  -8.143   1.868  0.00  0.00    +0.062 C 
BRANCH  26  28
ATOM     28  C   UNL     1     -13.676  -6.514   3.413  0.00  0.00    +0.057 C 
BRANCH  28  29
ATOM     29  C   UNL     1     -14.584  -5.310   3.157  0.00  0.00    +0.041 C 
BRANCH  29  30
ATOM     30  C   UNL     1     -14.536  -4.384   4.346  0.00  0.00    -0.043 A 
ATOM     31  C   UNL     1     -15.430  -4.551   5.387  0.00  0.00    +0.007 A 
ATOM     32  C   UNL     1     -15.389  -3.705   6.479  0.00  0.00    +0.050 A 
ATOM     33  C   UNL     1     -14.453  -2.685   6.532  0.00  0.00    +0.166 A 
ATOM     34  C   UNL     1     -13.553  -2.516   5.483  0.00  0.00    +0.166 A 
ATOM     35  C   UNL     1     -13.595  -3.372   4.394  0.00  0.00    +0.053 A 
ATOM     36  O   UNL     1     -12.742  -1.456   5.770  0.00  0.00    -0.453 OA
ATOM     37  C   UNL     1     -13.418  -0.726   6.811  0.00  0.00    +0.466 C 
ATOM     38  O   UNL     1     -14.206  -1.731   7.476  0.00  0.00    -0.453 OA
ENDBRANCH  29  30
ENDBRANCH  28  29
ENDBRANCH  26  28
ENDBRANCH   7  25
TORSDOF 9
