REMARK  Name = ZINC06193789
REMARK  7 active torsions:
REMARK  status: ('A' for Active; 'I' for Inactive)
REMARK    1  A    between atoms: C_1  and  C_2
REMARK    2  A    between atoms: C_4  and  C_38
REMARK    3  A    between atoms: C_7  and  C_14
REMARK    4  A    between atoms: C_14  and  C_16
REMARK    5  A    between atoms: C_14  and  N_28
REMARK    6  A    between atoms: N_20  and  C_21
REMARK    7  A    between atoms: C_21  and  C_22
REMARK                            x       y       z     vdW  Elec       q    Type
REMARK                         _______ _______ _______ _____ _____    ______ ____
ROOT
ATOM      1  C   UNL     1       2.849   4.724   1.887  0.00  0.00    +0.179 C 
ENDROOT
BRANCH   1   8
ATOM      2  C   UNL     1       7.562  10.178  -1.529  0.00  0.00    +0.044 C 
ATOM      3  C   UNL     1       6.769   8.996  -1.033  0.00  0.00    -0.048 A 
ATOM      4  C   UNL     1       6.960   7.749  -1.612  0.00  0.00    +0.007 A 
ATOM      5  C   UNL     1       6.250   6.665  -1.178  0.00  0.00    -0.041 A 
ATOM      6  C   UNL     1       5.323   6.813  -0.141  0.00  0.00    +0.002 A 
ATOM      7  C   UNL     1       4.550   5.672   0.353  0.00  0.00    +0.021 A 
ATOM      8  C   UNL     1       3.663   5.876   1.358  0.00  0.00    +0.045 A 
ATOM      9  C   UNL     1       3.505   7.163   1.915  0.00  0.00    +0.255 A 
ATOM     10  O   UNL     1       2.705   7.324   2.821  0.00  0.00    -0.268 OA
ATOM     11  N   UNL     1       4.213   8.216   1.472  0.00  0.00    -0.322 N 
ATOM     12  H   UNL     1       4.080   9.088   1.877  0.00  0.00    +0.169 HD
ATOM     13  C   UNL     1       5.127   8.076   0.449  0.00  0.00    +0.050 A 
ATOM     14  C   UNL     1       5.861   9.165  -0.010  0.00  0.00    +0.029 A 
ATOM     15  C   UNL     1       6.465   5.316  -1.813  0.00  0.00    +0.044 C 
ENDBRANCH   1   8
BRANCH   1  16
ATOM     16  N   UNL     1       2.928   4.700   3.353  0.00  0.00    -0.316 N 
ATOM     17  C   UNL     1       1.719   4.115   3.935  0.00  0.00    +0.106 C 
ATOM     18  C   UNL     1       1.870   4.092   5.461  0.00  0.00    +0.024 C 
ATOM     19  C   UNL     1       2.964   3.081   5.811  0.00  0.00    +0.038 C 
ATOM     20  C   UNL     1       4.167   3.310   4.932  0.00  0.00    -0.026 A 
ATOM     21  C   UNL     1       4.099   4.074   3.780  0.00  0.00    +0.034 A 
ATOM     22  C   UNL     1       5.243   4.238   2.998  0.00  0.00    +0.023 A 
ATOM     23  C   UNL     1       6.433   3.650   3.370  0.00  0.00    +0.002 A 
ATOM     24  C   UNL     1       6.497   2.892   4.525  0.00  0.00    +0.000 A 
ATOM     25  C   UNL     1       5.368   2.724   5.301  0.00  0.00    +0.005 A 
ENDBRANCH   1  16
BRANCH   1  26
ATOM     26  C   UNL     1       1.412   4.889   1.464  0.00  0.00    +0.176 A 
ATOM     27  N   UNL     1       0.575   5.810   1.878  0.00  0.00    -0.111 NA
ATOM     28  N   UNL     1      -0.554   5.616   1.288  0.00  0.00    -0.023 NA
ATOM     29  N   UNL     1      -0.458   4.599   0.505  0.00  0.00    -0.044 NA
ATOM     30  N   UNL     1       0.737   4.120   0.590  0.00  0.00    -0.225 N 
BRANCH  30  31
ATOM     31  C   UNL     1       1.263   2.961  -0.135  0.00  0.00    +0.179 C 
BRANCH  31  32
ATOM     32  C   UNL     1       1.031   1.694   0.692  0.00  0.00    +0.140 C 
ATOM     33  C   UNL     1       1.590   0.451  -0.045  0.00  0.00    +0.035 C 
ATOM     34  C   UNL     1       0.742  -0.694   0.560  0.00  0.00    +0.031 C 
ATOM     35  C   UNL     1      -0.506   0.016   1.120  0.00  0.00    +0.160 C 
ATOM     36  O   UNL     1      -0.381   1.413   0.804  0.00  0.00    -0.375 OA
ENDBRANCH  31  32
ENDBRANCH  30  31
ENDBRANCH   1  26
TORSDOF 5
