REMARK  Name = ZINC04557189
REMARK  14 active torsions:
REMARK  status: ('A' for Active; 'I' for Inactive)
REMARK    1  A    between atoms: C_3  and  O_10
REMARK    2  A    between atoms: C_6  and  N_7
REMARK    3  A    between atoms: O_10  and  C_11
REMARK    4  A    between atoms: C_13  and  O_42
REMARK    5  A    between atoms: C_15  and  O_41
REMARK    6  A    between atoms: C_17  and  O_24
REMARK    7  A    between atoms: C_19  and  C_22
REMARK    8  A    between atoms: C_22  and  O_23
REMARK    9  A    between atoms: O_24  and  C_25
REMARK   10  A    between atoms: C_27  and  O_40
REMARK   11  A    between atoms: C_29  and  O_39
REMARK   12  A    between atoms: C_31  and  O_38
REMARK   13  A    between atoms: C_33  and  C_36
REMARK   14  A    between atoms: C_36  and  O_37
REMARK                            x       y       z     vdW  Elec       q    Type
REMARK                         _______ _______ _______ _____ _____    ______ ____
ROOT
ATOM      1  C   UNL     1       5.402  -2.034  -4.010  0.00  0.00    +0.339 C 
ATOM      2  C   UNL     1       4.917  -2.374  -2.598  0.00  0.00    +0.214 C 
ATOM      3  C   UNL     1       5.080  -1.143  -1.701  0.00  0.00    +0.180 C 
ATOM      4  C   UNL     1       4.307   0.029  -2.315  0.00  0.00    +0.184 C 
ATOM      5  C   UNL     1       4.815   0.275  -3.738  0.00  0.00    +0.179 C 
ATOM      6  O   UNL     1       4.663  -0.917  -4.510  0.00  0.00    -0.331 OA
ENDROOT
BRANCH   3   7
ATOM      7  O   UNL     1       4.562  -1.428  -0.400  0.00  0.00    -0.386 OA
ATOM      8  H   UNL     1       5.006  -2.160   0.048  0.00  0.00    +0.210 HD
ENDBRANCH   3   7
BRANCH   2   9
ATOM      9  O   UNL     1       3.540  -2.753  -2.644  0.00  0.00    -0.383 OA
ATOM     10  H   UNL     1       3.363  -3.524  -3.200  0.00  0.00    +0.210 HD
ENDBRANCH   2   9
BRANCH   1  11
ATOM     11  O   UNL     1       6.793  -1.706  -3.971  0.00  0.00    -0.461 OA
BRANCH  11  14
ATOM     12  C   UNL     1       9.378  -0.926  -6.409  0.00  0.00    +0.036 A 
ATOM     13  C   UNL     1       8.756  -1.156  -5.197  0.00  0.00    +0.048 A 
ATOM     14  C   UNL     1       7.407  -1.479  -5.161  0.00  0.00    +0.124 A 
ATOM     15  C   UNL     1       6.688  -1.575  -6.344  0.00  0.00    +0.048 A 
ATOM     16  C   UNL     1       7.313  -1.339  -7.553  0.00  0.00    +0.036 A 
ATOM     17  C   UNL     1       8.658  -1.017  -7.585  0.00  0.00    +0.126 A 
BRANCH  17  18
ATOM     18  N   UNL     1       9.327  -0.770  -8.882  0.00  0.00    +0.056 N 
ATOM     19  O   UNL     1      10.511  -0.486  -8.912  0.00  0.00    -0.126 OA
ATOM     20  O   UNL     1       8.693  -0.850  -9.919  0.00  0.00    -0.126 OA
ENDBRANCH  17  18
ENDBRANCH  11  14
ENDBRANCH   1  11
BRANCH   5  21
ATOM     21  C   UNL     1       4.007   1.405  -4.380  0.00  0.00    +0.190 C 
BRANCH  21  22
ATOM     22  O   UNL     1       4.556   1.714  -5.662  0.00  0.00    -0.392 OA
ATOM     23  H   UNL     1       4.092   2.424  -6.128  0.00  0.00    +0.210 HD
ENDBRANCH  21  22
ENDBRANCH   5  21
BRANCH   4  24
ATOM     24  O   UNL     1       2.913  -0.287  -2.354  0.00  0.00    -0.340 OA
BRANCH  24  25
ATOM     25  C   UNL     1       2.194   0.114  -1.186  0.00  0.00    +0.282 C 
ATOM     26  C   UNL     1       0.786  -0.486  -1.222  0.00  0.00    +0.201 C 
ATOM     27  C   UNL     1       0.002  -0.004   0.002  0.00  0.00    +0.179 C 
ATOM     28  C   UNL     1      -0.019   1.528   0.010  0.00  0.00    +0.177 C 
ATOM     29  C   UNL     1       1.420   2.050  -0.001  0.00  0.00    +0.178 C 
ATOM     30  O   UNL     1       2.102   1.539  -1.148  0.00  0.00    -0.341 OA
BRANCH  28  31
ATOM     31  O   UNL     1      -0.708   2.002  -1.148  0.00  0.00    -0.386 OA
ATOM     32  H   UNL     1      -1.626   1.705  -1.209  0.00  0.00    +0.210 HD
ENDBRANCH  28  31
BRANCH  27  33
ATOM     33  O   UNL     1      -1.337  -0.500  -0.062  0.00  0.00    -0.386 OA
ATOM     34  H   UNL     1      -1.399  -1.465  -0.071  0.00  0.00    +0.210 HD
ENDBRANCH  27  33
BRANCH  26  35
ATOM     35  O   UNL     1       0.118  -0.065  -2.413  0.00  0.00    -0.384 OA
ATOM     36  H   UNL     1       0.561  -0.337  -3.229  0.00  0.00    +0.210 HD
ENDBRANCH  26  35
BRANCH  29  37
ATOM     37  C   UNL     1       1.408   3.579  -0.053  0.00  0.00    +0.190 C 
BRANCH  37  38
ATOM     38  O   UNL     1       2.746   4.070   0.054  0.00  0.00    -0.392 OA
ATOM     39  H   UNL     1       2.814   5.034   0.028  0.00  0.00    +0.210 HD
ENDBRANCH  37  38
ENDBRANCH  29  37
ENDBRANCH  24  25
ENDBRANCH   4  24
TORSDOF 14
