REMARK  Name = ZINC52541680
REMARK  13 active torsions:
REMARK  status: ('A' for Active; 'I' for Inactive)
REMARK    1  A    between atoms: C_1  and  C_2
REMARK    2  A    between atoms: C_4  and  C_33
REMARK    3  A    between atoms: C_6  and  C_8
REMARK    4  A    between atoms: C_10  and  C_18
REMARK    5  A    between atoms: C_18  and  C_19
REMARK    6  A    between atoms: C_19  and  N_20
REMARK    7  A    between atoms: N_20  and  C_21
REMARK    8  A    between atoms: C_21  and  C_22
REMARK    9  A    between atoms: C_22  and  C_23
REMARK   10  A    between atoms: C_23  and  C_24
REMARK   11  A    between atoms: C_24  and  C_25
REMARK   12  A    between atoms: C_28  and  O_31
REMARK   13  A    between atoms: O_31  and  C_32
REMARK                            x       y       z     vdW  Elec       q    Type
REMARK                         _______ _______ _______ _____ _____    ______ ____
ROOT
ATOM      1  C   UNL     1       0.054  -2.844   2.489  0.00  0.00    +0.137 C 
ATOM      2  C   UNL     1      -1.336  -2.891   3.083  0.00  0.00    -0.036 C 
ATOM      3  C   UNL     1      -1.253  -2.271   4.282  0.00  0.00    -0.001 A 
ATOM      4  C   UNL     1      -2.243  -1.992   5.328  0.00  0.00    +0.010 A 
ATOM      5  C   UNL     1      -1.852  -1.336   6.444  0.00  0.00    +0.001 A 
ATOM      6  C   UNL     1      -0.526  -0.917   6.626  0.00  0.00    +0.002 A 
ATOM      7  C   UNL     1       0.440  -1.137   5.710  0.00  0.00    +0.026 A 
ATOM      8  C   UNL     1       0.140  -1.818   4.498  0.00  0.00    +0.043 A 
ATOM      9  N   UNL     1       0.890  -2.147   3.472  0.00  0.00    -0.374 N 
ATOM     10  H   UNL     1       1.837  -1.960   3.378  0.00  0.00    +0.161 HD
ENDROOT
BRANCH   1  16
ATOM     11  C   UNL     1      -0.018   1.503   0.010  0.00  0.00    +0.044 C 
ATOM     12  C   UNL     1       0.002  -0.004   0.002  0.00  0.00    -0.050 A 
ATOM     13  C   UNL     1       0.006  -0.689  -1.199  0.00  0.00    +0.006 A 
ATOM     14  C   UNL     1       0.025  -2.071  -1.206  0.00  0.00    -0.050 A 
ATOM     15  C   UNL     1       0.040  -2.768  -0.013  0.00  0.00    +0.009 A 
ATOM     16  C   UNL     1       0.037  -2.084   1.188  0.00  0.00    -0.021 A 
ATOM     17  C   UNL     1       0.023  -0.702   1.195  0.00  0.00    +0.009 A 
ATOM     18  C   UNL     1       0.027  -2.817  -2.516  0.00  0.00    +0.044 C 
ENDBRANCH   1  16
BRANCH   2  19
ATOM     19  C   UNL     1      -2.566  -3.505   2.464  0.00  0.00    +0.015 C 
BRANCH  19  20
ATOM     20  C   UNL     1      -3.756  -3.327   3.409  0.00  0.00    -0.078 C 
BRANCH  20  21
ATOM     21  N   UNL     1      -4.954  -3.925   2.806  0.00  0.00    +0.379 N 
ATOM     22  H   UNL     1      -5.151  -3.470   1.927  0.00  0.00    -0.086 HD
ATOM     23  H   UNL     1      -4.795  -4.909   2.647  0.00  0.00    -0.086 HD
BRANCH  21  24
ATOM     24  C   UNL     1      -6.096  -3.754   3.714  0.00  0.00    -0.083 C 
BRANCH  24  25
ATOM     25  C   UNL     1      -7.345  -4.377   3.086  0.00  0.00    -0.019 C 
BRANCH  25  26
ATOM     26  C   UNL     1      -8.534  -4.198   4.031  0.00  0.00    +0.003 C 
BRANCH  26  27
ATOM     27  C   UNL     1      -9.783  -4.822   3.403  0.00  0.00    +0.036 C 
BRANCH  27  28
ATOM     28  C   UNL     1     -10.955  -4.646   4.334  0.00  0.00    -0.029 A 
ATOM     29  C   UNL     1     -11.238  -5.607   5.294  0.00  0.00    +0.010 A 
ATOM     30  C   UNL     1     -12.323  -5.406   6.129  0.00  0.00    +0.067 A 
ATOM     31  C   UNL     1     -13.088  -4.256   5.979  0.00  0.00    +0.214 A 
ATOM     32  N   UNL     1     -12.786  -3.363   5.051  0.00  0.00    -0.221 NA
ATOM     33  C   UNL     1     -11.755  -3.524   4.244  0.00  0.00    +0.118 A 
BRANCH  31  34
ATOM     34  O   UNL     1     -14.154  -4.048   6.791  0.00  0.00    -0.480 OA
ATOM     35  C   UNL     1     -14.900  -2.846   6.586  0.00  0.00    +0.279 C 
ENDBRANCH  31  34
ENDBRANCH  27  28
ENDBRANCH  26  27
ENDBRANCH  25  26
ENDBRANCH  24  25
ENDBRANCH  21  24
ENDBRANCH  20  21
ENDBRANCH  19  20
ENDBRANCH   2  19
TORSDOF 10
