REMARK  Name = ZINC39608269
REMARK  8 active torsions:
REMARK  status: ('A' for Active; 'I' for Inactive)
REMARK    1  A    between atoms: C_1  and  C_2
REMARK    2  A    between atoms: C_2  and  C_4
REMARK    3  A    between atoms: C_2  and  N_7
REMARK    4  A    between atoms: C_4  and  C_5
REMARK    5  A    between atoms: C_4  and  C_6
REMARK    6  A    between atoms: C_8  and  C_10
REMARK    7  A    between atoms: C_21  and  C_23
REMARK    8  A    between atoms: C_26  and  C_28
REMARK                            x       y       z     vdW  Elec       q    Type
REMARK                         _______ _______ _______ _____ _____    ______ ____
ROOT
ATOM      1  C   UNL     1       2.783  -1.099   2.395  0.00  0.00    +0.100 C 
ATOM      2  C   UNL     1       2.678  -0.070   3.542  0.00  0.00    +0.121 C 
ATOM      3  N   UNL     1       3.999  -0.120   4.212  0.00  0.00    -0.294 N 
ATOM      4  C   UNL     1       4.971  -0.257   3.101  0.00  0.00    +0.115 C 
ATOM      5  C   UNL     1       4.289  -1.218   2.107  0.00  0.00    -0.004 C 
ATOM      6  C   UNL     1       4.761  -2.649   2.350  0.00  0.00    -0.010 C 
ATOM      7  C   UNL     1       6.249  -2.756   2.003  0.00  0.00    -0.082 C 
ATOM      8  N   UNL     1       6.454  -2.382   0.598  0.00  0.00    +0.379 N 
ATOM      9  C   UNL     1       6.084  -0.977   0.394  0.00  0.00    -0.082 C 
ATOM     10  C   UNL     1       4.589  -0.795   0.673  0.00  0.00    -0.010 C 
ATOM     11  C   UNL     1       4.258  -0.056   5.533  0.00  0.00    +0.282 C 
ATOM     12  O   UNL     1       5.407  -0.110   5.931  0.00  0.00    -0.267 OA
ATOM     13  H   UNL     1       7.425  -2.512   0.356  0.00  0.00    -0.086 HD
ATOM     14  H   UNL     1       5.881  -2.968   0.009  0.00  0.00    -0.086 HD
ENDROOT
BRANCH  11  15
ATOM     15  C   UNL     1       3.157   0.080   6.490  0.00  0.00    +0.190 A 
ATOM     16  C   UNL     1       3.281   0.162   7.859  0.00  0.00    +0.055 A 
ATOM     17  C   UNL     1       1.987   0.281   8.376  0.00  0.00    +0.050 A 
ATOM     18  C   UNL     1       1.129   0.268   7.314  0.00  0.00    +0.136 A 
ATOM     19  O   UNL     1       1.845   0.152   6.183  0.00  0.00    -0.450 OA
BRANCH  18  20
ATOM     20  C   UNL     1      -0.342   0.370   7.394  0.00  0.00    +0.017 A 
ATOM     21  C   UNL     1      -0.969   0.498   8.636  0.00  0.00    +0.014 A 
ATOM     22  C   UNL     1      -2.342   0.593   8.706  0.00  0.00    +0.039 A 
ATOM     23  C   UNL     1      -3.102   0.562   7.546  0.00  0.00    +0.123 A 
ATOM     24  C   UNL     1      -2.485   0.434   6.311  0.00  0.00    +0.039 A 
ATOM     25  C   UNL     1      -1.112   0.344   6.229  0.00  0.00    +0.014 A 
ATOM     26  F   UNL     1      -4.447   0.655   7.620  0.00  0.00    -0.205 F 
ENDBRANCH  18  20
ENDBRANCH  11  15
BRANCH   1  28
ATOM     27  N   UNL     1       1.507  -1.478   0.309  0.00  0.00    -0.312 N 
ATOM     28  C   UNL     1       2.054  -0.600   1.174  0.00  0.00    +0.218 C 
ATOM     29  O   UNL     1       1.959   0.592   0.969  0.00  0.00    -0.275 OA
ATOM     30  H   UNL     1       1.583  -2.431   0.473  0.00  0.00    +0.149 HD
BRANCH  27  32
ATOM     31  C   UNL     1      -0.652  -0.674  -0.511  0.00  0.00    +0.028 C 
ATOM     32  C   UNL     1       0.798  -0.992  -0.877  0.00  0.00    +0.072 C 
BRANCH  32  33
ATOM     33  C   UNL     1       0.825  -2.070  -1.964  0.00  0.00    +0.003 C 
ATOM     34  C   UNL     1       0.085  -1.563  -3.203  0.00  0.00    +0.009 C 
ATOM     35  C   UNL     1       2.276  -2.388  -2.330  0.00  0.00    +0.009 C 
ENDBRANCH  32  33
ENDBRANCH  27  32
ENDBRANCH   1  28
TORSDOF 5
