REMARK  Name = ZINC32521711
REMARK  7 active torsions:
REMARK  status: ('A' for Active; 'I' for Inactive)
REMARK    1  A    between atoms: C_1  and  C_2
REMARK    2  A    between atoms: C_2  and  C_3
REMARK    3  A    between atoms: C_3  and  C_5
REMARK    4  A    between atoms: C_3  and  S_20
REMARK    5  A    between atoms: N_7  and  C_8
REMARK    6  A    between atoms: C_9  and  C_17
REMARK    7  A    between atoms: S_20  and  C_21
REMARK                            x       y       z     vdW  Elec       q    Type
REMARK                         _______ _______ _______ _____ _____    ______ ____
ROOT
ATOM      1  C   UNL     1       4.889   7.582  -0.228  0.00  0.00    +0.231 C 
ATOM      2  O   UNL     1       5.553   6.581  -0.060  0.00  0.00    -0.274 OA
ATOM      3  N   UNL     1       5.474   8.713  -0.669  0.00  0.00    -0.278 N 
ATOM      4  H   UNL     1       4.871   9.620  -0.821  0.00  0.00    +0.155 HD
ENDROOT
BRANCH   3   5
ATOM      5  C   UNL     1       6.835   8.732  -0.932  0.00  0.00    +0.084 A 
ATOM      6  C   UNL     1       7.609   9.788  -1.393  0.00  0.00    +0.068 A 
ATOM      7  C   UNL     1       9.029   9.546  -1.585  0.00  0.00    -0.023 A 
ATOM      8  C   UNL     1       9.443   8.292  -1.297  0.00  0.00    -0.004 A 
ATOM      9  S   UNL     1       7.981   7.443  -0.772  0.00  0.00    -0.077 S 
ATOM     10  C   UNL     1      10.836   7.754  -1.405  0.00  0.00    +0.043 C 
ATOM     11  C   UNL     1      11.668   8.731  -2.249  0.00  0.00    +0.005 C 
ATOM     12  C   UNL     1      11.431  10.153  -1.734  0.00  0.00    +0.005 C 
ATOM     13  C   UNL     1      10.010  10.602  -2.079  0.00  0.00    +0.037 C 
BRANCH   6  14
ATOM     14  C   UNL     1       7.017  11.100  -1.671  0.00  0.00    +0.244 C 
ATOM     15  O   UNL     1       6.960  11.941  -0.793  0.00  0.00    -0.270 OA
ATOM     16  N   UNL     1       6.536  11.375  -2.900  0.00  0.00    -0.325 N 
ATOM     17  H   UNL     1       6.092  12.359  -3.109  0.00  0.00    +0.145 HD
ATOM     18  H   UNL     1       6.588  10.615  -3.694  0.00  0.00    +0.145 HD
ENDBRANCH   6  14
ENDBRANCH   3   5
BRANCH   1  19
ATOM     19  C   UNL     1       3.409   7.560   0.058  0.00  0.00    +0.140 C 
BRANCH  19  21
ATOM     20  C   UNL     1       1.637   8.293   1.659  0.00  0.00    +0.005 C 
ATOM     21  C   UNL     1       3.146   8.186   1.429  0.00  0.00    +0.020 C 
ENDBRANCH  19  21
BRANCH  19  22
ATOM     22  S   UNL     1       2.818   5.850   0.052  0.00  0.00    -0.073 S 
BRANCH  22  23
ATOM     23  C   UNL     1       3.022   5.462  -1.655  0.00  0.00    +0.197 A 
ATOM     24  N   UNL     1       3.396   6.291  -2.604  0.00  0.00    -0.122 NA
ATOM     25  N   UNL     1       3.443   5.681  -3.735  0.00  0.00    -0.129 NA
ATOM     26  C   UNL     1       3.098   4.416  -3.575  0.00  0.00    +0.162 A 
ATOM     27  N   UNL     1       2.820   4.245  -2.238  0.00  0.00    -0.270 N 
ATOM     28  C   UNL     1       2.426   3.012  -1.747  0.00  0.00    +0.058 A 
ATOM     29  C   UNL     1       2.145   2.837  -0.399  0.00  0.00    +0.027 A 
ATOM     30  C   UNL     1       1.754   1.599   0.068  0.00  0.00    +0.002 A 
ATOM     31  C   UNL     1       1.638   0.521  -0.798  0.00  0.00    +0.001 A 
ATOM     32  C   UNL     1       1.917   0.672  -2.138  0.00  0.00    +0.010 A 
ATOM     33  C   UNL     1       2.309   1.922  -2.627  0.00  0.00    -0.001 A 
ATOM     34  C   UNL     1       2.607   2.114  -4.050  0.00  0.00    +0.013 A 
ATOM     35  C   UNL     1       2.989   3.337  -4.483  0.00  0.00    +0.049 A 
ENDBRANCH  22  23
ENDBRANCH  19  22
ENDBRANCH   1  19
TORSDOF 6
