REMARK  Name = ZINC39696257
REMARK  8 active torsions:
REMARK  status: ('A' for Active; 'I' for Inactive)
REMARK    1  A    between atoms: C_1  and  C_2
REMARK    2  A    between atoms: C_2  and  C_3
REMARK    3  A    between atoms: C_6  and  C_9
REMARK    4  A    between atoms: C_9  and  C_11
REMARK    5  A    between atoms: C_9  and  N_12
REMARK    6  A    between atoms: C_13  and  C_15
REMARK    7  A    between atoms: C_26  and  C_28
REMARK    8  A    between atoms: C_31  and  C_33
REMARK                            x       y       z     vdW  Elec       q    Type
REMARK                         _______ _______ _______ _____ _____    ______ ____
ROOT
ATOM      1  C   UNL     1       2.466  -0.464   8.209  0.00  0.00    +0.100 C 
ATOM      2  C   UNL     1       1.188  -1.188   8.690  0.00  0.00    +0.121 C 
ATOM      3  N   UNL     1       1.662  -2.133   9.728  0.00  0.00    -0.294 N 
ATOM      4  C   UNL     1       2.701  -1.378  10.469  0.00  0.00    +0.115 C 
ATOM      5  C   UNL     1       3.455  -0.587   9.380  0.00  0.00    -0.004 C 
ATOM      6  C   UNL     1       3.834   0.796   9.900  0.00  0.00    -0.010 C 
ATOM      7  C   UNL     1       4.862   0.650  11.025  0.00  0.00    -0.082 C 
ATOM      8  N   UNL     1       6.050  -0.047  10.518  0.00  0.00    +0.379 N 
ATOM      9  C   UNL     1       5.693  -1.411  10.107  0.00  0.00    -0.082 C 
ATOM     10  C   UNL     1       4.700  -1.351   8.942  0.00  0.00    -0.010 C 
ATOM     11  C   UNL     1       1.243  -3.395   9.949  0.00  0.00    +0.282 C 
ATOM     12  O   UNL     1       1.734  -4.050  10.850  0.00  0.00    -0.267 OA
ATOM     13  H   UNL     1       6.421   0.455   9.725  0.00  0.00    -0.086 HD
ATOM     14  H   UNL     1       6.750  -0.088  11.243  0.00  0.00    -0.086 HD
ENDROOT
BRANCH  11  15
ATOM     15  C   UNL     1       0.197  -3.978   9.106  0.00  0.00    +0.190 A 
ATOM     16  C   UNL     1      -0.325  -5.247   9.226  0.00  0.00    +0.055 A 
ATOM     17  C   UNL     1      -1.292  -5.383   8.225  0.00  0.00    +0.051 A 
ATOM     18  C   UNL     1      -1.325  -4.203   7.537  0.00  0.00    +0.139 A 
ATOM     19  O   UNL     1      -0.428  -3.363   8.080  0.00  0.00    -0.450 OA
BRANCH  18  20
ATOM     20  C   UNL     1      -2.204  -3.900   6.390  0.00  0.00    +0.052 A 
ATOM     21  C   UNL     1      -2.290  -4.789   5.317  0.00  0.00    +0.014 A 
ATOM     22  C   UNL     1      -3.114  -4.500   4.249  0.00  0.00    +0.001 A 
ATOM     23  C   UNL     1      -3.855  -3.331   4.239  0.00  0.00    +0.003 A 
ATOM     24  C   UNL     1      -3.777  -2.444   5.296  0.00  0.00    +0.039 A 
ATOM     25  C   UNL     1      -2.960  -2.723   6.377  0.00  0.00    +0.134 A 
ATOM     26  F   UNL     1      -2.889  -1.860   7.413  0.00  0.00    -0.205 F 
ENDBRANCH  18  20
ENDBRANCH  11  15
BRANCH   1  28
ATOM     27  N   UNL     1       3.728  -0.426   6.082  0.00  0.00    -0.308 N 
ATOM     28  C   UNL     1       3.021  -1.139   6.981  0.00  0.00    +0.219 C 
ATOM     29  O   UNL     1       2.831  -2.323   6.802  0.00  0.00    -0.275 OA
ATOM     30  H   UNL     1       3.880   0.521   6.225  0.00  0.00    +0.149 HD
BRANCH  27  31
ATOM     31  C   UNL     1       4.268  -1.082   4.888  0.00  0.00    +0.100 C 
ATOM     32  C   UNL     1       3.195  -1.118   3.797  0.00  0.00    +0.033 C 
BRANCH  31  36
ATOM     33  C   UNL     1       7.661   1.095   3.476  0.00  0.00    -0.048 A 
ATOM     34  C   UNL     1       7.672  -0.287   3.463  0.00  0.00    +0.004 A 
ATOM     35  C   UNL     1       6.574  -0.992   3.920  0.00  0.00    +0.006 A 
ATOM     36  C   UNL     1       5.465  -0.314   4.391  0.00  0.00    -0.027 A 
ATOM     37  C   UNL     1       5.454   1.068   4.404  0.00  0.00    +0.006 A 
ATOM     38  C   UNL     1       6.553   1.773   3.951  0.00  0.00    +0.004 A 
BRANCH  33  40
ATOM     39  C   UNL     1       9.824   2.110   4.137  0.00  0.00    +0.009 C 
ATOM     40  C   UNL     1       8.857   1.863   2.977  0.00  0.00    +0.032 C 
ENDBRANCH  33  40
ENDBRANCH  31  36
ENDBRANCH  27  31
ENDBRANCH   1  28
TORSDOF 6
