REMARK  Name = ZINC39727168
REMARK  12 active torsions:
REMARK  status: ('A' for Active; 'I' for Inactive)
REMARK    1  A    between atoms: C_1  and  C_2
REMARK    2  A    between atoms: C_3  and  C_35
REMARK    3  A    between atoms: C_4  and  C_34
REMARK    4  A    between atoms: C_7  and  C_8
REMARK    5  A    between atoms: C_8  and  C_10
REMARK    6  A    between atoms: C_10  and  S_11
REMARK    7  A    between atoms: S_11  and  C_12
REMARK    8  A    between atoms: C_15  and  C_25
REMARK    9  A    between atoms: N_17  and  C_18
REMARK   10  A    between atoms: C_25  and  C_27
REMARK   11  A    between atoms: C_25  and  N_28
REMARK   12  A    between atoms: C_35  and  C_37
REMARK                            x       y       z     vdW  Elec       q    Type
REMARK                         _______ _______ _______ _____ _____    ______ ____
ROOT
ATOM      1  C   UNL     1      -0.033  -2.633   5.860  0.00  0.00    +0.180 C 
ATOM      2  N   UNL     1      -0.144  -3.916   5.777  0.00  0.00    -0.162 NA
ATOM      3  N   UNL     1      -0.254  -4.505   7.043  0.00  0.00    -0.248 N 
ATOM      4  C   UNL     1      -0.199  -3.400   8.015  0.00  0.00    +0.168 C 
ATOM      5  N   UNL     1      -0.047  -2.198   7.178  0.00  0.00    -0.260 N 
ATOM      6  H   UNL     1      -0.348  -5.450   7.239  0.00  0.00    +0.170 HD
ENDROOT
BRANCH   5   7
ATOM      7  C   UNL     1       0.059  -0.876   7.623  0.00  0.00    +0.038 A 
ATOM      8  C   UNL     1       1.172  -0.474   8.349  0.00  0.00    +0.026 A 
ATOM      9  C   UNL     1       1.275   0.832   8.787  0.00  0.00    +0.040 A 
ATOM     10  C   UNL     1       0.269   1.740   8.503  0.00  0.00    +0.124 A 
ATOM     11  C   UNL     1      -0.842   1.341   7.779  0.00  0.00    +0.040 A 
ATOM     12  C   UNL     1      -0.947   0.037   7.334  0.00  0.00    +0.026 A 
ATOM     13  F   UNL     1       0.370   3.016   8.934  0.00  0.00    -0.205 F 
ENDBRANCH   5   7
BRANCH   4  14
ATOM     14  C   UNL     1      -1.492  -3.337   8.830  0.00  0.00    -0.031 C 
ATOM     15  C   UNL     1      -2.671  -3.057   7.895  0.00  0.00    -0.010 C 
BRANCH  14  16
ATOM     16  N   UNL     1      -1.391  -2.261   9.826  0.00  0.00    +0.384 N 
ATOM     17  C   UNL     1      -0.302  -2.564  10.762  0.00  0.00    -0.078 C 
ATOM     18  C   UNL     1      -0.140  -1.409  11.752  0.00  0.00    -0.019 C 
ATOM     19  C   UNL     1      -1.446  -1.223  12.530  0.00  0.00    -0.004 C 
ATOM     20  C   UNL     1      -2.588  -0.982  11.540  0.00  0.00    -0.019 C 
ATOM     21  C   UNL     1      -2.660  -2.153  10.557  0.00  0.00    -0.078 C 
ATOM     22  H   UNL     1      -1.198  -1.388   9.359  0.00  0.00    -0.081 HD
ENDBRANCH  14  16
ENDBRANCH   4  14
BRANCH   1  23
ATOM     23  S   UNL     1       0.126  -1.564   4.469  0.00  0.00    -0.081 S 
BRANCH  23  24
ATOM     24  C   UNL     1       0.080  -2.687   3.045  0.00  0.00    +0.158 C 
BRANCH  24  25
ATOM     25  C   UNL     1       0.208  -1.890   1.772  0.00  0.00    +0.190 C 
ATOM     26  O   UNL     1       0.319  -0.682   1.821  0.00  0.00    -0.290 OA
BRANCH  25  33
ATOM     27  C   UNL     1       0.456  -0.469  -0.980  0.00  0.00    +0.047 C 
ATOM     28  C   UNL     1       0.307  -1.945  -0.713  0.00  0.00    -0.012 A 
ATOM     29  C   UNL     1       0.258  -2.976  -1.679  0.00  0.00    +0.041 A 
ATOM     30  C   UNL     1       0.115  -4.173  -0.992  0.00  0.00    +0.024 A 
ATOM     31  N   UNL     1       0.076  -3.910   0.322  0.00  0.00    -0.355 N 
ATOM     32  H   UNL     1      -0.018  -4.573   1.024  0.00  0.00    +0.166 HD
ATOM     33  C   UNL     1       0.199  -2.549   0.520  0.00  0.00    +0.087 A 
ATOM     34  C   UNL     1       0.018  -5.540  -1.618  0.00  0.00    +0.064 C 
BRANCH  29  35
ATOM     35  C   UNL     1       0.341  -2.811  -3.134  0.00  0.00    +0.162 C 
ATOM     36  O   UNL     1      -0.673  -2.728  -3.794  0.00  0.00    -0.292 OA
ATOM     37  C   UNL     1       1.687  -2.745  -3.809  0.00  0.00    +0.091 C 
ENDBRANCH  29  35
ENDBRANCH  25  33
ENDBRANCH  24  25
ENDBRANCH  23  24
ENDBRANCH   1  23
TORSDOF 8
