REMARK  Name = ZINC59369246
REMARK  6 active torsions:
REMARK  status: ('A' for Active; 'I' for Inactive)
REMARK    1  A    between atoms: C_1  and  C_2
REMARK    2  A    between atoms: C_5  and  C_8
REMARK    3  A    between atoms: C_17  and  C_19
REMARK    4  A    between atoms: C_22  and  S_25
REMARK    5  A    between atoms: S_25  and  N_28
REMARK    6  A    between atoms: N_28  and  C_29
REMARK                            x       y       z     vdW  Elec       q    Type
REMARK                         _______ _______ _______ _____ _____    ______ ____
ROOT
ATOM      1  C   UNL     1       0.061  -4.255  -0.021  0.00  0.00    +0.004 A 
ATOM      2  C   UNL     1      -0.824  -4.953  -0.775  0.00  0.00    +0.056 A 
ATOM      3  S   UNL     1      -0.396  -6.652  -0.446  0.00  0.00    -0.076 S 
ATOM      4  C   UNL     1       0.947  -6.389   0.684  0.00  0.00    +0.116 A 
ATOM      5  C   UNL     1       1.036  -4.988   0.776  0.00  0.00    +0.080 A 
ATOM      6  C   UNL     1       2.062  -4.484   1.637  0.00  0.00    +0.261 A 
ATOM      7  O   UNL     1       2.211  -3.282   1.782  0.00  0.00    -0.267 OA
ATOM      8  N   UNL     1       2.859  -5.353   2.285  0.00  0.00    -0.306 N 
ATOM      9  H   UNL     1       3.555  -5.015   2.870  0.00  0.00    +0.170 HD
ATOM     10  C   UNL     1       2.705  -6.703   2.134  0.00  0.00    +0.142 A 
ATOM     11  N   UNL     1       1.763  -7.191   1.355  0.00  0.00    -0.222 NA
ENDROOT
BRANCH   1  16
ATOM     12  C   UNL     1      -0.018   1.503   0.010  0.00  0.00    +0.044 C 
ATOM     13  C   UNL     1       0.002  -0.004   0.002  0.00  0.00    -0.050 A 
ATOM     14  C   UNL     1       0.006  -0.686  -1.201  0.00  0.00    +0.004 A 
ATOM     15  C   UNL     1       0.025  -2.066  -1.215  0.00  0.00    +0.009 A 
ATOM     16  C   UNL     1       0.041  -2.772  -0.013  0.00  0.00    -0.017 A 
ATOM     17  C   UNL     1       0.037  -2.079   1.196  0.00  0.00    +0.009 A 
ATOM     18  C   UNL     1       0.023  -0.699   1.198  0.00  0.00    +0.004 A 
ENDBRANCH   1  16
BRANCH  10  19
ATOM     19  C   UNL     1       3.600  -7.625   2.862  0.00  0.00    +0.017 A 
ATOM     20  C   UNL     1       4.593  -7.120   3.704  0.00  0.00    +0.013 A 
ATOM     21  C   UNL     1       5.425  -7.987   4.381  0.00  0.00    +0.029 A 
ATOM     22  C   UNL     1       5.278  -9.354   4.228  0.00  0.00    +0.105 A 
ATOM     23  C   UNL     1       4.296  -9.861   3.396  0.00  0.00    +0.029 A 
ATOM     24  C   UNL     1       3.453  -9.006   2.717  0.00  0.00    +0.013 A 
BRANCH  22  25
ATOM     25  S   UNL     1       6.346 -10.454   5.096  0.00  0.00    +0.059 S 
ATOM     26  O   UNL     1       6.359 -11.671   4.362  0.00  0.00    -0.153 OA
ATOM     27  O   UNL     1       7.531  -9.726   5.385  0.00  0.00    -0.153 OA
BRANCH  25  28
ATOM     28  N   UNL     1       5.628 -10.787   6.551  0.00  0.00    -0.187 NA
ATOM     29  H   UNL     1       6.049 -10.499   7.377  0.00  0.00    +0.148 HD
BRANCH  28  30
ATOM     30  C   UNL     1       4.358 -11.515   6.592  0.00  0.00    +0.077 C 
ATOM     31  C   UNL     1       3.371 -11.153   7.704  0.00  0.00    +0.022 C 
ATOM     32  C   UNL     1       4.133 -12.479   7.758  0.00  0.00    +0.022 C 
ENDBRANCH  28  30
ENDBRANCH  25  28
ENDBRANCH  22  25
ENDBRANCH  10  19
TORSDOF 5
