REMARK  Name = ZINC28053092
REMARK  3 active torsions:
REMARK  status: ('A' for Active; 'I' for Inactive)
REMARK    1  A    between atoms: C_1  and  C_2
REMARK    2  A    between atoms: C_10  and  C_18
REMARK    3  A    between atoms: C_24  and  C_27
REMARK                            x       y       z     vdW  Elec       q    Type
REMARK                         _______ _______ _______ _____ _____    ______ ____
ROOT
ATOM      1  C   UNL     1       9.249   0.484   1.011  0.00  0.00    +0.044 C 
ATOM      2  C   UNL     1       8.142   1.493   1.174  0.00  0.00    -0.050 A 
ATOM      3  C   UNL     1       8.412   2.726   1.743  0.00  0.00    +0.007 A 
ATOM      4  C   UNL     1       7.406   3.663   1.898  0.00  0.00    +0.046 A 
ATOM      5  C   UNL     1       6.121   3.367   1.482  0.00  0.00    +0.131 A 
ATOM      6  C   UNL     1       5.846   2.118   0.910  0.00  0.00    +0.038 A 
ATOM      7  C   UNL     1       6.862   1.183   0.756  0.00  0.00    +0.016 A 
ATOM      8  C   UNL     1       4.456   1.830   0.481  0.00  0.00    +0.050 C 
ATOM      9  C   UNL     1       3.608   2.852   0.349  0.00  0.00    +0.025 C 
ATOM     10  C   UNL     1       2.167   2.658  -0.056  0.00  0.00    +0.174 C 
ATOM     11  N   UNL     1       1.810   1.248   0.022  0.00  0.00    -0.201 N 
ATOM     12  C   UNL     1       2.715   0.244   0.155  0.00  0.00    +0.240 A 
ATOM     13  N   UNL     1       2.053  -0.876   0.177  0.00  0.00    -0.092 NA
ATOM     14  N   UNL     1       0.788  -0.648   0.075  0.00  0.00    -0.021 NA
ATOM     15  N   UNL     1       0.565   0.623  -0.021  0.00  0.00    -0.042 NA
ATOM     16  N   UNL     1       4.073   0.505   0.244  0.00  0.00    -0.282 N 
ATOM     17  C   UNL     1       4.103   4.258   0.602  0.00  0.00    +0.234 C 
ATOM     18  O   UNL     1       5.108   4.260   1.615  0.00  0.00    -0.479 OA
ATOM     19  H   UNL     1       4.838  -0.278   0.138  0.00  0.00    +0.155 HD
ENDROOT
BRANCH  10  20
ATOM     20  C   UNL     1       1.976   3.144  -1.469  0.00  0.00    -0.019 A 
ATOM     21  C   UNL     1       2.699   2.574  -2.500  0.00  0.00    +0.006 A 
ATOM     22  C   UNL     1       2.520   3.017  -3.797  0.00  0.00    +0.000 A 
ATOM     23  C   UNL     1       1.625   4.037  -4.062  0.00  0.00    +0.000 A 
ATOM     24  C   UNL     1       0.905   4.610  -3.030  0.00  0.00    +0.000 A 
ATOM     25  C   UNL     1       1.081   4.164  -1.734  0.00  0.00    +0.006 A 
ENDBRANCH  10  20
BRANCH  17  26
ATOM     26  C   UNL     1       4.681   4.818  -0.671  0.00  0.00    -0.003 A 
ATOM     27  C   UNL     1       5.912   4.382  -1.123  0.00  0.00    +0.007 A 
ATOM     28  C   UNL     1       6.441   4.893  -2.293  0.00  0.00    +0.000 A 
ATOM     29  C   UNL     1       5.741   5.847  -3.008  0.00  0.00    +0.000 A 
ATOM     30  C   UNL     1       4.512   6.287  -2.555  0.00  0.00    +0.000 A 
ATOM     31  C   UNL     1       3.982   5.773  -1.386  0.00  0.00    +0.007 A 
ENDBRANCH  17  26
TORSDOF 2
