REMARK  Name = ZINC33444773
REMARK  12 active torsions:
REMARK  status: ('A' for Active; 'I' for Inactive)
REMARK    1  A    between atoms: C_1  and  C_2
REMARK    2  A    between atoms: C_2  and  C_3
REMARK    3  A    between atoms: C_3  and  C_4
REMARK    4  A    between atoms: C_4  and  C_5
REMARK    5  A    between atoms: C_5  and  C_7
REMARK    6  A    between atoms: C_5  and  C_9
REMARK    7  A    between atoms: C_7  and  C_8
REMARK    8  A    between atoms: C_9  and  N_10
REMARK    9  A    between atoms: C_14  and  C_15
REMARK   10  A    between atoms: C_16  and  N_26
REMARK   11  A    between atoms: C_28  and  C_35
REMARK   12  A    between atoms: C_31  and  C_34
REMARK                            x       y       z     vdW  Elec       q    Type
REMARK                         _______ _______ _______ _____ _____    ______ ____
ROOT
ATOM      1  C   UNL     1       3.590  -0.311  -0.515  0.00  0.00    +0.081 A 
ATOM      2  C   UNL     1       4.865  -0.878  -0.749  0.00  0.00    +0.136 A 
ATOM      3  N   UNL     1       4.955  -2.131  -1.171  0.00  0.00    -0.214 NA
ATOM      4  C   UNL     1       3.871  -2.877  -1.384  0.00  0.00    +0.142 A 
ATOM      5  C   UNL     1       4.029  -4.201  -1.833  0.00  0.00    +0.047 A 
ATOM      6  C   UNL     1       2.926  -4.972  -2.053  0.00  0.00    +0.005 A 
ATOM      7  C   UNL     1       1.651  -4.434  -1.830  0.00  0.00    +0.018 A 
ATOM      8  C   UNL     1       1.518  -3.160  -1.398  0.00  0.00    +0.096 A 
ATOM      9  N   UNL     1       2.614  -2.381  -1.175  0.00  0.00    -0.268 N 
ATOM     10  C   UNL     1       2.446  -1.114  -0.740  0.00  0.00    +0.267 A 
ATOM     11  O   UNL     1       1.329  -0.668  -0.547  0.00  0.00    -0.267 OA
ENDROOT
BRANCH   1  16
ATOM     12  N   UNL     1       5.237   1.238   3.134  0.00  0.00    -0.255 N 
ATOM     13  C   UNL     1       4.736   0.623   2.076  0.00  0.00    +0.258 C 
ATOM     14  O   UNL     1       4.851  -0.582   1.939  0.00  0.00    -0.269 OA
ATOM     15  C   UNL     1       4.059   1.410   1.101  0.00  0.00    +0.077 C 
ATOM     16  C   UNL     1       3.462   1.023  -0.064  0.00  0.00    +0.037 C 
ATOM     17  S   UNL     1       4.204   3.041   1.818  0.00  0.00    -0.061 S 
ATOM     18  C   UNL     1       5.109   2.575   3.286  0.00  0.00    +0.121 C 
ATOM     19  S   UNL     1       5.666   3.568   4.564  0.00  0.00    -0.027 S 
BRANCH  12  20
ATOM     20  C   UNL     1       5.939   0.458   4.157  0.00  0.00    +0.118 C 
BRANCH  20  21
ATOM     21  C   UNL     1       4.941  -0.011   5.216  0.00  0.00    +0.007 C 
BRANCH  21  22
ATOM     22  C   UNL     1       3.943  -0.982   4.582  0.00  0.00    +0.002 C 
ATOM     23  C   UNL     1       4.674  -2.255   4.150  0.00  0.00    +0.004 C 
ENDBRANCH  21  22
BRANCH  21  24
ATOM     24  C   UNL     1       5.691  -0.717   6.347  0.00  0.00    +0.005 C 
BRANCH  24  25
ATOM     25  C   UNL     1       4.706  -1.090   7.457  0.00  0.00    +0.000 C 
BRANCH  25  27
ATOM     26  C   UNL     1       4.450  -2.268   9.646  0.00  0.00    +0.004 C 
ATOM     27  C   UNL     1       5.435  -1.895   8.536  0.00  0.00    -0.003 C 
ENDBRANCH  25  27
ENDBRANCH  24  25
ENDBRANCH  21  24
ENDBRANCH  20  21
ENDBRANCH  12  20
ENDBRANCH   1  16
BRANCH   2  28
ATOM     28  N   UNL     1       6.005  -0.133  -0.539  0.00  0.00    -0.310 N 
ATOM     29  C   UNL     1       6.075   0.998  -1.475  0.00  0.00    +0.138 C 
ATOM     30  C   UNL     1       7.323   1.830  -1.169  0.00  0.00    +0.133 C 
ATOM     31  O   UNL     1       8.479   0.993  -1.243  0.00  0.00    -0.371 OA
ATOM     32  C   UNL     1       8.445  -0.119  -0.344  0.00  0.00    +0.133 C 
ATOM     33  C   UNL     1       7.208  -0.971  -0.642  0.00  0.00    +0.138 C 
ATOM     34  C   UNL     1       9.706  -0.965  -0.529  0.00  0.00    +0.039 C 
ATOM     35  C   UNL     1       7.445   2.963  -2.190  0.00  0.00    +0.039 C 
ENDBRANCH   2  28
TORSDOF 8
