REMARK  Name = ZINC02394066
REMARK  7 active torsions:
REMARK  status: ('A' for Active; 'I' for Inactive)
REMARK    1  A    between atoms: C_1  and  C_2
REMARK    2  A    between atoms: C_2  and  C_3
REMARK    3  A    between atoms: C_2  and  O_4
REMARK    4  A    between atoms: O_4  and  C_5
REMARK    5  A    between atoms: C_8  and  C_11
REMARK    6  A    between atoms: C_21  and  C_23
REMARK    7  A    between atoms: C_21  and  C_24
REMARK                            x       y       z     vdW  Elec       q    Type
REMARK                         _______ _______ _______ _____ _____    ______ ____
ROOT
ATOM      1  C   UNL     1       6.287  -0.831  -0.944  0.00  0.00    +0.190 C 
ATOM      2  N   UNL     1       6.748  -1.811  -1.943  0.00  0.00    -0.316 N 
ATOM      3  C   UNL     1       6.688  -3.135  -1.581  0.00  0.00    +0.080 A 
ATOM      4  C   UNL     1       6.708  -3.550  -0.240  0.00  0.00    +0.068 A 
ATOM      5  C   UNL     1       6.624  -4.982  -0.029  0.00  0.00    -0.018 A 
ATOM      6  C   UNL     1       6.546  -5.716  -1.164  0.00  0.00    +0.021 A 
ATOM      7  S   UNL     1       6.581  -4.529  -2.475  0.00  0.00    -0.075 S 
ATOM      8  C   UNL     1       6.452  -7.207  -1.241  0.00  0.00    +0.203 C 
ATOM      9  O   UNL     1       6.780  -7.738   0.053  0.00  0.00    -0.368 OA
ATOM     10  C   UNL     1       6.087  -7.098   1.128  0.00  0.00    +0.068 C 
ATOM     11  C   UNL     1       6.618  -5.675   1.327  0.00  0.00    +0.071 C 
ATOM     12  C   UNL     1       6.294  -7.901   2.414  0.00  0.00    +0.041 C 
ATOM     13  C   UNL     1       4.592  -7.042   0.805  0.00  0.00    +0.041 C 
ATOM     14  C   UNL     1       6.818  -2.503   0.801  0.00  0.00    +0.248 C 
ATOM     15  O   UNL     1       7.021  -2.788   1.967  0.00  0.00    -0.270 OA
ATOM     16  N   UNL     1       6.685  -1.221   0.405  0.00  0.00    -0.289 N 
ATOM     17  H   UNL     1       7.077  -1.535  -2.812  0.00  0.00    +0.149 HD
ATOM     18  H   UNL     1       6.864  -0.520   1.052  0.00  0.00    +0.151 HD
ENDROOT
BRANCH   1  22
ATOM     19  C   UNL     1       2.026  -0.553  -1.118  0.00  0.00    +0.121 A 
ATOM     20  C   UNL     1       2.690  -0.309   0.075  0.00  0.00    +0.046 A 
ATOM     21  C   UNL     1       4.067  -0.400   0.129  0.00  0.00    +0.010 A 
ATOM     22  C   UNL     1       4.784  -0.733  -1.005  0.00  0.00    -0.009 A 
ATOM     23  C   UNL     1       4.125  -0.976  -2.196  0.00  0.00    +0.010 A 
ATOM     24  C   UNL     1       2.747  -0.893  -2.253  0.00  0.00    +0.046 A 
BRANCH  19  25
ATOM     25  O   UNL     1       0.671  -0.465  -1.174  0.00  0.00    -0.489 OA
BRANCH  25  27
ATOM     26  C   UNL     1      -0.044   1.273   0.345  0.00  0.00    +0.051 C 
ATOM     27  C   UNL     1      -0.015  -0.229   0.058  0.00  0.00    +0.167 C 
ATOM     28  C   UNL     1      -1.447  -0.757  -0.047  0.00  0.00    +0.051 C 
ENDBRANCH  25  27
ENDBRANCH  19  25
ENDBRANCH   1  22
TORSDOF 3
