REMARK  Name = ZINC43024198
REMARK  7 active torsions:
REMARK  status: ('A' for Active; 'I' for Inactive)
REMARK    1  A    between atoms: C_1  and  C_2
REMARK    2  A    between atoms: C_2  and  C_4
REMARK    3  A    between atoms: C_2  and  N_20
REMARK    4  A    between atoms: C_4  and  C_6
REMARK    5  A    between atoms: C_4  and  S_13
REMARK    6  A    between atoms: S_13  and  C_14
REMARK    7  A    between atoms: N_18  and  C_19
REMARK                            x       y       z     vdW  Elec       q    Type
REMARK                         _______ _______ _______ _____ _____    ______ ____
ROOT
ATOM      1  C   UNL     1       0.580  -0.471  -1.372  0.00  0.00    +0.070 C 
ENDROOT
BRANCH   1   2
ATOM      2  C   UNL     1       2.007  -0.009  -1.516  0.00  0.00    -0.035 A 
ATOM      3  C   UNL     1       2.985  -0.512  -0.678  0.00  0.00    +0.005 A 
ATOM      4  C   UNL     1       4.294  -0.088  -0.809  0.00  0.00    +0.001 A 
ATOM      5  C   UNL     1       4.626   0.840  -1.779  0.00  0.00    +0.015 A 
ATOM      6  C   UNL     1       3.649   1.343  -2.618  0.00  0.00    +0.018 A 
ATOM      7  C   UNL     1       2.340   0.914  -2.489  0.00  0.00    +0.020 A 
ATOM      8 BR   UNL     1       4.102   2.612  -3.944  0.00  0.00    -0.050 Br
ENDBRANCH   1   2
BRANCH   1  10
ATOM      9  C   UNL     1      -0.058   1.655  -0.226  0.00  0.00    -0.013 C 
ATOM     10  C   UNL     1      -0.025   0.130  -0.102  0.00  0.00    -0.060 C 
BRANCH  10  11
ATOM     11  N   UNL     1       0.792  -0.250   1.058  0.00  0.00    +0.381 N 
ATOM     12  H   UNL     1       0.332   0.047   1.905  0.00  0.00    -0.090 HD
ATOM     13  H   UNL     1       0.909  -1.252   1.072  0.00  0.00    -0.090 HD
ATOM     14  H   UNL     1       1.696   0.194   0.992  0.00  0.00    -0.090 HD
ENDBRANCH  10  11
ENDBRANCH   1  10
BRANCH   1  15
ATOM     15  S   UNL     1       0.540  -2.282  -1.262  0.00  0.00    -0.078 S 
BRANCH  15  16
ATOM     16  C   UNL     1      -1.179  -2.670  -1.249  0.00  0.00    +0.210 A 
ATOM     17  N   UNL     1      -2.174  -1.812  -1.312  0.00  0.00    -0.102 NA
ATOM     18  N   UNL     1      -3.301  -2.427  -1.280  0.00  0.00    -0.022 NA
ATOM     19  N   UNL     1      -3.114  -3.700  -1.194  0.00  0.00    -0.043 NA
ATOM     20  N   UNL     1      -1.724  -3.907  -1.177  0.00  0.00    -0.223 N 
ATOM     21  C   UNL     1      -1.016  -5.187  -1.095  0.00  0.00    +0.177 C 
ENDBRANCH  15  16
ENDBRANCH   1  15
TORSDOF 5
