REMARK  Name = ZINC39666217
REMARK  10 active torsions:
REMARK  status: ('A' for Active; 'I' for Inactive)
REMARK    1  A    between atoms: C_1  and  C_2
REMARK    2  A    between atoms: C_5  and  O_8
REMARK    3  A    between atoms: O_8  and  C_9
REMARK    4  A    between atoms: C_9  and  C_11
REMARK    5  A    between atoms: C_9  and  C_12
REMARK    6  A    between atoms: C_12  and  N_13
REMARK    7  A    between atoms: C_14  and  C_16
REMARK    8  A    between atoms: C_27  and  C_29
REMARK    9  A    between atoms: C_32  and  O_35
REMARK   10  A    between atoms: O_35  and  C_36
REMARK                            x       y       z     vdW  Elec       q    Type
REMARK                         _______ _______ _______ _____ _____    ______ ____
ROOT
ATOM      1  C   UNL     1      -3.992  -6.694   0.567  0.00  0.00    +0.100 C 
ATOM      2  C   UNL     1      -4.654  -5.800   1.640  0.00  0.00    +0.121 C 
ATOM      3  N   UNL     1      -6.045  -6.302   1.739  0.00  0.00    -0.296 N 
ATOM      4  C   UNL     1      -5.914  -7.775   1.632  0.00  0.00    +0.115 C 
ATOM      5  C   UNL     1      -4.822  -7.989   0.566  0.00  0.00    -0.004 C 
ATOM      6  C   UNL     1      -5.457  -8.208  -0.804  0.00  0.00    -0.010 C 
ATOM      7  C   UNL     1      -6.230  -9.530  -0.797  0.00  0.00    -0.082 C 
ATOM      8  N   UNL     1      -5.315 -10.632  -0.478  0.00  0.00    +0.379 N 
ATOM      9  C   UNL     1      -4.779 -10.462   0.878  0.00  0.00    -0.082 C 
ATOM     10  C   UNL     1      -3.945  -9.180   0.942  0.00  0.00    -0.010 C 
ATOM     11  C   UNL     1      -7.174  -5.581   1.892  0.00  0.00    +0.248 C 
ATOM     12  O   UNL     1      -7.112  -4.374   2.022  0.00  0.00    -0.270 OA
ATOM     13  H   UNL     1      -5.813 -11.508  -0.534  0.00  0.00    -0.086 HD
ATOM     14  H   UNL     1      -4.554 -10.638  -1.141  0.00  0.00    -0.086 HD
ENDROOT
BRANCH  11  15
ATOM     15  C   UNL     1      -8.485  -6.258   1.902  0.00  0.00    +0.055 A 
ATOM     16  C   UNL     1      -8.618  -7.545   2.444  0.00  0.00    +0.020 A 
ATOM     17  C   UNL     1      -9.865  -8.137   2.430  0.00  0.00    +0.068 A 
ATOM     18  C   UNL     1     -10.941  -7.443   1.883  0.00  0.00    +0.220 A 
ATOM     19  N   UNL     1     -10.783  -6.229   1.379  0.00  0.00    -0.220 NA
ATOM     20  C   UNL     1      -9.613  -5.625   1.377  0.00  0.00    +0.127 A 
BRANCH  18  21
ATOM     21  O   UNL     1     -12.167  -8.019   1.867  0.00  0.00    -0.438 OA
BRANCH  21  22
ATOM     22  C   UNL     1     -13.172  -7.360   1.232  0.00  0.00    +0.130 A 
ATOM     23  C   UNL     1     -13.227  -7.345  -0.154  0.00  0.00    +0.046 A 
ATOM     24  C   UNL     1     -14.250  -6.675  -0.796  0.00  0.00    +0.004 A 
ATOM     25  C   UNL     1     -15.219  -6.020  -0.059  0.00  0.00    +0.000 A 
ATOM     26  C   UNL     1     -15.167  -6.034   1.323  0.00  0.00    +0.004 A 
ATOM     27  C   UNL     1     -14.149  -6.707   1.970  0.00  0.00    +0.046 A 
ENDBRANCH  21  22
ENDBRANCH  18  21
ENDBRANCH  11  15
BRANCH   1  29
ATOM     28  N   UNL     1      -1.642  -7.188  -0.026  0.00  0.00    -0.312 N 
ATOM     29  C   UNL     1      -2.562  -6.988   0.939  0.00  0.00    +0.218 C 
ATOM     30  O   UNL     1      -2.237  -7.044   2.106  0.00  0.00    -0.275 OA
ATOM     31  H   UNL     1      -1.901  -7.143  -0.960  0.00  0.00    +0.149 HD
BRANCH  28  32
ATOM     32  C   UNL     1      -0.251  -7.474   0.335  0.00  0.00    +0.148 C 
BRANCH  32  33
ATOM     33  C   UNL     1       0.578  -7.658  -0.937  0.00  0.00    +0.187 C 
ATOM     34  C   UNL     1       2.031  -7.956  -0.560  0.00  0.00    +0.053 C 
BRANCH  33  35
ATOM     35  O   UNL     1       0.050  -8.747  -1.697  0.00  0.00    -0.488 OA
BRANCH  35  40
ATOM     36  C   UNL     1       1.099  -8.751  -7.231  0.00  0.00    +0.044 C 
ATOM     37  C   UNL     1       0.819  -8.750  -5.750  0.00  0.00    -0.050 A 
ATOM     38  C   UNL     1       0.160  -9.820  -5.171  0.00  0.00    +0.007 A 
ATOM     39  C   UNL     1      -0.099  -9.821  -3.814  0.00  0.00    +0.046 A 
ATOM     40  C   UNL     1       0.304  -8.748  -3.032  0.00  0.00    +0.121 A 
ATOM     41  C   UNL     1       0.965  -7.677  -3.615  0.00  0.00    +0.046 A 
ATOM     42  C   UNL     1       1.226  -7.683  -4.971  0.00  0.00    +0.007 A 
ENDBRANCH  35  40
ENDBRANCH  33  35
ENDBRANCH  32  33
ENDBRANCH  28  32
ENDBRANCH   1  29
TORSDOF 8
