REMARK  Name = ZINC39981054
REMARK  7 active torsions:
REMARK  status: ('A' for Active; 'I' for Inactive)
REMARK    1  A    between atoms: C_1  and  C_2
REMARK    2  A    between atoms: C_14  and  S_16
REMARK    3  A    between atoms: S_16  and  C_17
REMARK    4  A    between atoms: C_17  and  C_18
REMARK    5  A    between atoms: N_20  and  C_21
REMARK    6  A    between atoms: C_26  and  O_27
REMARK    7  A    between atoms: O_27  and  C_28
REMARK                            x       y       z     vdW  Elec       q    Type
REMARK                         _______ _______ _______ _____ _____    ______ ____
ROOT
ATOM      1  C   UNL     1      -0.107   1.475   0.044  0.00  0.00    +0.044 C 
ATOM      2  C   UNL     1      -0.075  -0.032   0.033  0.00  0.00    -0.050 A 
ATOM      3  C   UNL     1      -0.071  -0.698  -1.201  0.00  0.00    +0.005 A 
ATOM      4  C   UNL     1      -0.050  -2.047  -1.281  0.00  0.00    +0.026 A 
ATOM      5  C   UNL     1      -0.029  -2.840  -0.045  0.00  0.00    +0.046 A 
ATOM      6  N   UNL     1       0.025  -4.134   0.163  0.00  0.00    -0.358 N 
ATOM      7  C   UNL     1      -0.105  -4.385   1.588  0.00  0.00    +0.252 C 
ATOM      8  C   UNL     1       0.017  -3.030   2.260  0.00  0.00    +0.117 C 
ATOM      9  C   UNL     1      -0.021  -2.104   1.245  0.00  0.00    +0.025 A 
ATOM     10  C   UNL     1      -0.046  -0.691   1.213  0.00  0.00    +0.015 A 
ATOM     11  N   UNL     1       0.258  -2.913   3.568  0.00  0.00    -0.147 NA
ATOM     12  N   UNL     1       0.896  -3.907   4.110  0.00  0.00    -0.122 NA
ATOM     13  C   UNL     1       1.345  -4.957   3.380  0.00  0.00    +0.208 C 
ATOM     14  N   UNL     1       0.941  -5.230   2.161  0.00  0.00    -0.227 NA
ATOM     15  H   UNL     1       0.135  -4.811  -0.523  0.00  0.00    +0.162 HD
ENDROOT
BRANCH  13  16
ATOM     16  S   UNL     1       2.540  -6.025   4.113  0.00  0.00    -0.075 S 
BRANCH  16  17
ATOM     17  C   UNL     1       2.862  -7.268   2.833  0.00  0.00    +0.173 C 
BRANCH  17  18
ATOM     18  C   UNL     1       3.882  -8.257   3.337  0.00  0.00    +0.228 C 
ATOM     19  O   UNL     1       4.346  -8.134   4.451  0.00  0.00    -0.275 OA
ATOM     20  N   UNL     1       4.279  -9.277   2.551  0.00  0.00    -0.282 N 
ATOM     21  H   UNL     1       3.861  -9.413   1.686  0.00  0.00    +0.155 HD
BRANCH  20  22
ATOM     22  C   UNL     1       5.294 -10.141   2.982  0.00  0.00    +0.077 A 
ATOM     23  C   UNL     1       5.408 -10.463   4.327  0.00  0.00    +0.047 A 
ATOM     24  C   UNL     1       6.410 -11.316   4.751  0.00  0.00    +0.043 A 
ATOM     25  C   UNL     1       7.301 -11.850   3.836  0.00  0.00    +0.024 A 
ATOM     26  C   UNL     1       7.193 -11.533   2.495  0.00  0.00    +0.049 A 
ATOM     27  C   UNL     1       6.187 -10.683   2.062  0.00  0.00    +0.141 A 
ATOM     28 CL   UNL     1       6.551 -11.718   6.434  0.00  0.00    -0.083 Cl
BRANCH  27  29
ATOM     29  O   UNL     1       6.077 -10.375   0.742  0.00  0.00    -0.493 OA
ATOM     30  C   UNL     1       7.028 -10.968  -0.144  0.00  0.00    +0.277 C 
ENDBRANCH  27  29
ENDBRANCH  20  22
ENDBRANCH  17  18
ENDBRANCH  16  17
ENDBRANCH  13  16
TORSDOF 5
