REMARK  Name = ZINC36628639
REMARK  9 active torsions:
REMARK  status: ('A' for Active; 'I' for Inactive)
REMARK    1  A    between atoms: C_1  and  C_2
REMARK    2  A    between atoms: C_2  and  N_3
REMARK    3  A    between atoms: C_9  and  N_16
REMARK    4  A    between atoms: C_10  and  C_11
REMARK    5  A    between atoms: C_11  and  O_13
REMARK    6  A    between atoms: O_13  and  C_14
REMARK    7  A    between atoms: C_14  and  C_15
REMARK    8  A    between atoms: C_17  and  C_19
REMARK    9  A    between atoms: C_20  and  C_21
REMARK                            x       y       z     vdW  Elec       q    Type
REMARK                         _______ _______ _______ _____ _____    ______ ____
ROOT
ATOM      1  N   UNL     1      -1.376  -0.512   0.012  0.00  0.00    +0.383 N 
ATOM      2  C   UNL     1      -1.356  -1.976   0.129  0.00  0.00    -0.074 C 
ATOM      3  C   UNL     1      -2.759  -2.500   0.455  0.00  0.00    +0.018 C 
ATOM      4  C   UNL     1      -3.725  -1.914  -0.566  0.00  0.00    -0.025 A 
ATOM      5  C   UNL     1      -3.362  -0.844  -1.309  0.00  0.00    -0.021 A 
ATOM      6  S   UNL     1      -4.761  -0.518  -2.337  0.00  0.00    -0.079 S 
ATOM      7  C   UNL     1      -5.792  -1.737  -1.814  0.00  0.00    +0.086 A 
ATOM      8  C   UNL     1      -5.061  -2.406  -0.841  0.00  0.00    +0.091 A 
ATOM      9  C   UNL     1      -2.052  -0.124  -1.239  0.00  0.00    -0.035 C 
ATOM     10  H   UNL     1      -1.873  -0.120   0.798  0.00  0.00    -0.081 HD
ENDROOT
BRANCH   7  11
ATOM     11  N   UNL     1      -7.076  -2.012  -2.252  0.00  0.00    -0.276 N 
ATOM     12  C   UNL     1      -7.637  -1.252  -3.214  0.00  0.00    +0.241 C 
ATOM     13  O   UNL     1      -7.014  -0.325  -3.698  0.00  0.00    -0.270 OA
ATOM     14  H   UNL     1      -7.573  -2.751  -1.867  0.00  0.00    +0.156 HD
BRANCH  12  15
ATOM     15  C   UNL     1      -8.993  -1.542  -3.677  0.00  0.00    +0.068 C 
ATOM     16  C   UNL     1      -9.555  -0.781  -4.640  0.00  0.00    +0.013 C 
BRANCH  16  17
ATOM     17  C   UNL     1     -10.918  -1.073  -5.105  0.00  0.00    -0.021 A 
ATOM     18  C   UNL     1     -11.639  -2.135  -4.547  0.00  0.00    +0.012 A 
ATOM     19  C   UNL     1     -12.916  -2.406  -4.985  0.00  0.00    +0.050 A 
ATOM     20  C   UNL     1     -13.494  -1.628  -5.980  0.00  0.00    +0.166 A 
ATOM     21  C   UNL     1     -12.782  -0.568  -6.542  0.00  0.00    +0.167 A 
ATOM     22  C   UNL     1     -11.503  -0.286  -6.104  0.00  0.00    +0.057 A 
ATOM     23  O   UNL     1     -13.565   0.030  -7.487  0.00  0.00    -0.453 OA
ATOM     24  C   UNL     1     -14.602  -0.923  -7.785  0.00  0.00    +0.466 C 
ATOM     25  O   UNL     1     -14.720  -1.691  -6.574  0.00  0.00    -0.453 OA
ENDBRANCH  16  17
ENDBRANCH  12  15
ENDBRANCH   7  11
BRANCH   1  27
ATOM     26  C   UNL     1      -0.019   1.526   0.010  0.00  0.00    -0.017 C 
ATOM     27  C   UNL     1       0.002  -0.004   0.002  0.00  0.00    -0.082 C 
ENDBRANCH   1  27
BRANCH   8  28
ATOM     28  C   UNL     1      -5.614  -3.557  -0.125  0.00  0.00    +0.342 C 
ATOM     29  O   UNL     1      -6.234  -3.389   0.908  0.00  0.00    -0.245 OA
BRANCH  28  30
ATOM     30  O   UNL     1      -5.437  -4.802  -0.611  0.00  0.00    -0.461 OA
BRANCH  30  31
ATOM     31  C   UNL     1      -6.005  -5.878   0.139  0.00  0.00    +0.229 C 
ATOM     32  C   UNL     1      -5.703  -7.204  -0.563  0.00  0.00    +0.048 C 
ENDBRANCH  30  31
ENDBRANCH  28  30
ENDBRANCH   8  28
TORSDOF 7
