REMARK  Name = ZINC49234491
REMARK  8 active torsions:
REMARK  status: ('A' for Active; 'I' for Inactive)
REMARK    1  A    between atoms: C_1  and  C_2
REMARK    2  A    between atoms: C_2  and  C_3
REMARK    3  A    between atoms: C_6  and  N_21
REMARK    4  A    between atoms: C_8  and  S_9
REMARK    5  A    between atoms: S_9  and  N_12
REMARK    6  A    between atoms: C_15  and  C_18
REMARK    7  A    between atoms: C_18  and  C_19
REMARK    8  A    between atoms: C_18  and  C_20
REMARK                            x       y       z     vdW  Elec       q    Type
REMARK                         _______ _______ _______ _____ _____    ______ ____
ROOT
ATOM      1  S   UNL     1       3.014  -0.178   0.188  0.00  0.00    +0.101 S 
ATOM      2  O   UNL     1       2.393  -0.838   1.283  0.00  0.00    -0.146 OA
ATOM      3  O   UNL     1       4.383  -0.372  -0.141  0.00  0.00    -0.146 OA
ENDROOT
BRANCH   1   4
ATOM      4  N   UNL     1       2.813   1.446   0.438  0.00  0.00    -0.103 NA
ATOM      5  C   UNL     1       3.402   2.031   1.452  0.00  0.00    +0.192 A 
ATOM      6  N   UNL     1       3.364   3.352   1.842  0.00  0.00    -0.336 N 
ATOM      7  C   UNL     1       4.070   3.725   2.948  0.00  0.00    +0.027 A 
ATOM      8  C   UNL     1       4.777   2.823   3.628  0.00  0.00    +0.070 A 
ATOM      9  S   UNL     1       4.462   1.327   2.705  0.00  0.00    -0.057 S 
ATOM     10  H   UNL     1       2.847   4.003   1.340  0.00  0.00    +0.168 HD
BRANCH   7  11
ATOM     11  C   UNL     1       4.051   5.162   3.402  0.00  0.00    +0.030 C 
ATOM     12  C   UNL     1       4.604   6.056   2.290  0.00  0.00    +0.013 C 
ATOM     13  C   UNL     1       2.613   5.577   3.722  0.00  0.00    +0.013 C 
ENDBRANCH   7  11
ENDBRANCH   1   4
BRANCH   1  19
ATOM     14  C   UNL     1       0.707  -0.490  -1.238  0.00  0.00    -0.021 A 
ATOM     15  C   UNL     1      -0.025  -0.817  -2.365  0.00  0.00    +0.007 A 
ATOM     16  C   UNL     1       0.619  -1.263  -3.503  0.00  0.00    +0.023 A 
ATOM     17  C   UNL     1       2.003  -1.382  -3.514  0.00  0.00    +0.026 A 
ATOM     18  C   UNL     1       2.735  -1.053  -2.381  0.00  0.00    +0.052 A 
ATOM     19  C   UNL     1       2.085  -0.603  -1.248  0.00  0.00    +0.117 A 
BRANCH  17  20
ATOM     20  N   UNL     1       2.656  -1.833  -4.663  0.00  0.00    -0.358 N 
ATOM     21  H   UNL     1       2.144  -2.063  -5.454  0.00  0.00    +0.142 HD
ATOM     22  H   UNL     1       3.623  -1.917  -4.670  0.00  0.00    +0.142 HD
ENDBRANCH  17  20
BRANCH  14  24
ATOM     23  C   UNL     1      -0.019   1.526   0.010  0.00  0.00    +0.009 C 
ATOM     24  C   UNL     1       0.002  -0.004   0.002  0.00  0.00    +0.034 C 
ENDBRANCH  14  24
ENDBRANCH   1  19
TORSDOF 5
