REMARK  Name = ZINC38685783
REMARK  14 active torsions:
REMARK  status: ('A' for Active; 'I' for Inactive)
REMARK    1  A    between atoms: C_1  and  C_2
REMARK    2  A    between atoms: C_2  and  O_3
REMARK    3  A    between atoms: O_3  and  C_4
REMARK    4  A    between atoms: C_7  and  C_10
REMARK    5  A    between atoms: C_15  and  O_24
REMARK    6  A    between atoms: C_19  and  N_23
REMARK    7  A    between atoms: C_20  and  C_21
REMARK    8  A    between atoms: O_24  and  C_25
REMARK    9  A    between atoms: C_25  and  C_27
REMARK   10  A    between atoms: C_28  and  C_29
REMARK   11  A    between atoms: C_32  and  C_35
REMARK   12  A    between atoms: C_35  and  C_36
REMARK   13  A    between atoms: C_35  and  C_37
REMARK   14  A    between atoms: C_35  and  C_38
REMARK                            x       y       z     vdW  Elec       q    Type
REMARK                         _______ _______ _______ _____ _____    ______ ____
ROOT
ATOM      1  C   UNL     1       1.140  -6.080   1.703  0.00  0.00    +0.098 C 
ATOM      2  C   UNL     1       2.598  -6.456   1.754  0.00  0.00    +0.008 A 
ATOM      3  C   UNL     1       3.310  -6.579   0.574  0.00  0.00    +0.012 A 
ATOM      4  C   UNL     1       4.647  -6.923   0.602  0.00  0.00    +0.047 A 
ATOM      5  C   UNL     1       5.281  -7.146   1.816  0.00  0.00    +0.135 A 
ATOM      6  C   UNL     1       4.571  -7.022   2.999  0.00  0.00    +0.093 A 
ATOM      7  C   UNL     1       3.226  -6.676   2.969  0.00  0.00    +0.138 A 
ATOM      8  O   UNL     1       2.545  -6.560   4.136  0.00  0.00    -0.441 OA
ATOM      9  C   UNL     1       1.202  -6.613   4.136  0.00  0.00    +0.199 C 
ATOM     10  C   UNL     1       0.480  -6.395   3.015  0.00  0.00    +0.098 C 
ENDROOT
BRANCH   1  14
ATOM     11  C   UNL     1       0.782  -1.898   0.904  0.00  0.00    +0.121 A 
ATOM     12  C   UNL     1       0.233  -2.822   0.027  0.00  0.00    +0.046 A 
ATOM     13  C   UNL     1       0.350  -4.173   0.288  0.00  0.00    +0.008 A 
ATOM     14  C   UNL     1       1.014  -4.605   1.421  0.00  0.00    -0.034 A 
ATOM     15  C   UNL     1       1.562  -3.686   2.297  0.00  0.00    +0.008 A 
ATOM     16  C   UNL     1       1.453  -2.334   2.038  0.00  0.00    +0.046 A 
BRANCH  11  17
ATOM     17  O   UNL     1       0.668  -0.567   0.650  0.00  0.00    -0.492 OA
BRANCH  17  19
ATOM     18  C   UNL     1      -0.060   1.334  -0.651  0.00  0.00    +0.048 C 
ATOM     19  C   UNL     1      -0.035  -0.191  -0.535  0.00  0.00    +0.225 C 
ENDBRANCH  17  19
ENDBRANCH  11  17
ENDBRANCH   1  14
BRANCH   9  20
ATOM     20  N   UNL     1       0.547  -6.897   5.308  0.00  0.00    -0.328 N 
ATOM     21  H   UNL     1       1.053  -7.056   6.120  0.00  0.00    +0.145 HD
ATOM     22  H   UNL     1      -0.422  -6.940   5.324  0.00  0.00    +0.145 HD
ENDBRANCH   9  20
BRANCH  10  23
ATOM     23  C   UNL     1      -0.949  -6.465   3.083  0.00  0.00    +0.101 C 
ATOM     24  N   UNL     1      -2.083  -6.521   3.136  0.00  0.00    -0.191 NA
ENDBRANCH  10  23
BRANCH   5  25
ATOM     25  O   UNL     1       6.597  -7.485   1.845  0.00  0.00    -0.423 OA
BRANCH  25  26
ATOM     26  C   UNL     1       7.501  -6.548   1.491  0.00  0.00    +0.337 C 
ATOM     27  O   UNL     1       7.138  -5.410   1.260  0.00  0.00    -0.245 OA
BRANCH  26  28
ATOM     28  C   UNL     1       8.916  -6.900   1.384  0.00  0.00    +0.092 C 
ATOM     29  C   UNL     1       9.819  -5.963   1.030  0.00  0.00    +0.015 C 
BRANCH  29  30
ATOM     30  C   UNL     1      11.244  -6.318   0.923  0.00  0.00    -0.025 A 
ATOM     31  C   UNL     1      11.664  -7.626   1.181  0.00  0.00    +0.008 A 
ATOM     32  C   UNL     1      13.000  -7.951   1.079  0.00  0.00    +0.005 A 
ATOM     33  C   UNL     1      13.925  -6.985   0.721  0.00  0.00    -0.042 A 
ATOM     34  C   UNL     1      13.517  -5.688   0.464  0.00  0.00    +0.005 A 
ATOM     35  C   UNL     1      12.184  -5.349   0.556  0.00  0.00    +0.008 A 
BRANCH  33  36
ATOM     36  C   UNL     1      15.383  -7.348   0.611  0.00  0.00    -0.013 C 
ATOM     37  C   UNL     1      15.559  -8.441  -0.445  0.00  0.00    +0.015 C 
ATOM     38  C   UNL     1      16.187  -6.112   0.205  0.00  0.00    +0.015 C 
ATOM     39  C   UNL     1      15.884  -7.860   1.963  0.00  0.00    +0.015 C 
ENDBRANCH  33  36
ENDBRANCH  29  30
ENDBRANCH  26  28
ENDBRANCH  25  26
ENDBRANCH   5  25
TORSDOF 10
