REMARK  Name = ZINC35688191
REMARK  8 active torsions:
REMARK  status: ('A' for Active; 'I' for Inactive)
REMARK    1  A    between atoms: C_1  and  C_2
REMARK    2  A    between atoms: C_9  and  C_11
REMARK    3  A    between atoms: C_17  and  C_19
REMARK    4  A    between atoms: C_19  and  C_21
REMARK    5  A    between atoms: C_19  and  N_28
REMARK    6  A    between atoms: C_21  and  C_22
REMARK    7  A    between atoms: N_31  and  C_32
REMARK    8  A    between atoms: C_35  and  N_38
REMARK                            x       y       z     vdW  Elec       q    Type
REMARK                         _______ _______ _______ _____ _____    ______ ____
ROOT
ATOM      1  C   UNL     1       0.730  -2.797  -3.699  0.00  0.00    +0.165 C 
ENDROOT
BRANCH   1  11
ATOM      2  C   UNL     1      -0.516   1.510   0.506  0.00  0.00    +0.029 C 
ATOM      3  C   UNL     1      -0.359   0.150  -0.179  0.00  0.00    +0.090 C 
ATOM      4  C   UNL     1       0.433   0.319  -1.482  0.00  0.00    +0.130 C 
ATOM      5  N   UNL     1       0.795  -1.013  -1.986  0.00  0.00    -0.297 N 
ATOM      6  C   UNL     1       1.532  -1.929  -1.103  0.00  0.00    +0.127 C 
ATOM      7  C   UNL     1       0.740  -2.097   0.199  0.00  0.00    +0.127 C 
ATOM      8  N   UNL     1       0.373  -0.766   0.705  0.00  0.00    -0.295 N 
ATOM      9  C   UNL     1       0.708  -0.392   1.956  0.00  0.00    +0.219 C 
ATOM     10  O   UNL     1       0.307   0.663   2.401  0.00  0.00    -0.275 OA
ATOM     11  C   UNL     1       0.459  -1.388  -3.236  0.00  0.00    +0.236 C 
ATOM     12  O   UNL     1      -0.062  -0.592  -3.989  0.00  0.00    -0.274 OA
BRANCH   9  13
ATOM     13  C   UNL     1       1.580  -1.284   2.802  0.00  0.00    +0.075 C 
ATOM     14  C   UNL     1       0.739  -2.431   3.367  0.00  0.00    +0.013 C 
ATOM     15  C   UNL     1       1.624  -3.336   4.226  0.00  0.00    +0.001 C 
ATOM     16  C   UNL     1       2.219  -2.524   5.378  0.00  0.00    +0.000 C 
ATOM     17  C   UNL     1       3.060  -1.377   4.813  0.00  0.00    +0.001 C 
ATOM     18  C   UNL     1       2.175  -0.471   3.954  0.00  0.00    +0.013 C 
ENDBRANCH   9  13
ENDBRANCH   1  11
BRANCH   1  19
ATOM     19  N   UNL     1       0.118  -3.005  -5.013  0.00  0.00    -0.288 N 
ATOM     20  C   UNL     1      -0.222  -4.247  -5.410  0.00  0.00    +0.304 C 
ATOM     21  O   UNL     1      -0.021  -5.196  -4.676  0.00  0.00    -0.252 OA
ATOM     22  N   UNL     1      -0.785  -4.439  -6.619  0.00  0.00    -0.269 N 
ATOM     23  H   UNL     1      -0.043  -2.248  -5.599  0.00  0.00    +0.151 HD
ATOM     24  H   UNL     1      -0.880  -3.694  -7.233  0.00  0.00    +0.156 HD
BRANCH  22  25
ATOM     25  C   UNL     1      -1.232  -5.712  -6.989  0.00  0.00    +0.035 A 
ATOM     26  C   UNL     1      -1.151  -6.121  -8.314  0.00  0.00    +0.025 A 
ATOM     27  C   UNL     1      -1.593  -7.378  -8.676  0.00  0.00    +0.034 A 
ATOM     28  C   UNL     1      -2.115  -8.231  -7.720  0.00  0.00    +0.126 A 
ATOM     29  C   UNL     1      -2.198  -7.827  -6.400  0.00  0.00    +0.034 A 
ATOM     30  C   UNL     1      -1.752  -6.573  -6.031  0.00  0.00    +0.025 A 
BRANCH  28  31
ATOM     31  N   UNL     1      -2.587  -9.578  -8.112  0.00  0.00    +0.056 N 
ATOM     32  O   UNL     1      -2.516  -9.932  -9.265  0.00  0.00    -0.126 OA
ATOM     33  O   UNL     1      -3.045 -10.324  -7.277  0.00  0.00    -0.126 OA
ENDBRANCH  28  31
ENDBRANCH  22  25
ENDBRANCH   1  19
BRANCH   1  34
ATOM     34  C   UNL     1       2.240  -3.019  -3.798  0.00  0.00    +0.067 C 
BRANCH  34  35
ATOM     35  C   UNL     1       2.513  -4.457  -4.157  0.00  0.00    -0.045 A 
ATOM     36  C   UNL     1       2.668  -5.401  -3.158  0.00  0.00    +0.004 A 
ATOM     37  C   UNL     1       2.918  -6.720  -3.487  0.00  0.00    +0.000 A 
ATOM     38  C   UNL     1       3.014  -7.096  -4.814  0.00  0.00    +0.000 A 
ATOM     39  C   UNL     1       2.859  -6.152  -5.812  0.00  0.00    +0.000 A 
ATOM     40  C   UNL     1       2.604  -4.834  -5.484  0.00  0.00    +0.004 A 
ENDBRANCH  34  35
ENDBRANCH   1  34
TORSDOF 7
