REMARK  Name = ZINC52432384
REMARK  7 active torsions:
REMARK  status: ('A' for Active; 'I' for Inactive)
REMARK    1  A    between atoms: C_1  and  C_2
REMARK    2  A    between atoms: C_3  and  C_24
REMARK    3  A    between atoms: C_7  and  C_8
REMARK    4  A    between atoms: N_10  and  C_11
REMARK    5  A    between atoms: C_11  and  C_13
REMARK    6  A    between atoms: C_11  and  C_14
REMARK    7  A    between atoms: C_15  and  C_23
REMARK                            x       y       z     vdW  Elec       q    Type
REMARK                         _______ _______ _______ _____ _____    ______ ____
ROOT
ATOM      1  C   UNL     1      -0.018   1.503   0.010  0.00  0.00    +0.047 C 
ATOM      2  C   UNL     1       0.002  -0.004   0.002  0.00  0.00    -0.007 A 
ATOM      3  C   UNL     1       0.006  -0.712  -1.188  0.00  0.00    +0.065 A 
ATOM      4  N   UNL     1       0.025  -2.030  -1.175  0.00  0.00    -0.152 NA
ATOM      5  N   UNL     1       0.039  -2.712  -0.089  0.00  0.00    -0.133 NA
ATOM      6  C   UNL     1       0.037  -2.138   1.105  0.00  0.00    +0.160 A 
ATOM      7  C   UNL     1       0.023  -0.733   1.198  0.00  0.00    +0.098 A 
ATOM      8  N   UNL     1       0.053  -2.913   2.253  0.00  0.00    -0.317 N 
ATOM      9  C   UNL     1      -0.011   0.026  -2.502  0.00  0.00    +0.068 C 
ATOM     10  H   UNL     1       0.051  -2.489   3.125  0.00  0.00    +0.148 HD
ENDROOT
BRANCH   7  11
ATOM     11  C   UNL     1       0.026  -0.073   2.469  0.00  0.00    +0.103 C 
ATOM     12  N   UNL     1       0.029   0.450   3.477  0.00  0.00    -0.191 NA
ENDBRANCH   7  11
BRANCH   8  13
ATOM     13  C   UNL     1       0.072  -4.374   2.149  0.00  0.00    +0.135 C 
ATOM     14  C   UNL     1      -1.359  -4.894   1.995  0.00  0.00    +0.036 C 
BRANCH  13  15
ATOM     15  C   UNL     1       0.686  -4.958   3.396  0.00  0.00    +0.129 A 
ATOM     16  C   UNL     1       1.604  -5.934   3.414  0.00  0.00    +0.000 A 
ATOM     17  C   UNL     1       1.911  -6.181   4.828  0.00  0.00    +0.023 A 
ATOM     18  C   UNL     1       2.765  -7.052   5.502  0.00  0.00    +0.012 A 
ATOM     19  C   UNL     1       2.816  -7.029   6.869  0.00  0.00    +0.001 A 
ATOM     20  C   UNL     1       2.023  -6.145   7.586  0.00  0.00    +0.004 A 
ATOM     21  C   UNL     1       1.173  -5.276   6.936  0.00  0.00    +0.047 A 
ATOM     22  C   UNL     1       1.106  -5.283   5.549  0.00  0.00    +0.136 A 
ATOM     23  O   UNL     1       0.397  -4.571   4.650  0.00  0.00    -0.458 OA
ATOM     24  C   UNL     1       2.201  -6.638   2.222  0.00  0.00    +0.048 C 
ENDBRANCH  13  15
ENDBRANCH   8  13
TORSDOF 3
