REMARK  Name = ZINC07344454
REMARK  4 active torsions:
REMARK  status: ('A' for Active; 'I' for Inactive)
REMARK    1  A    between atoms: C_6  and  N_7
REMARK    2  A    between atoms: C_8  and  C_10
REMARK    3  A    between atoms: C_10  and  S_11
REMARK    4  A    between atoms: S_11  and  C_12
REMARK                            x       y       z     vdW  Elec       q    Type
REMARK                         _______ _______ _______ _____ _____    ______ ____
ROOT
ATOM      1  N   UNL     1      -1.202  -0.720   0.010  0.00  0.00    -0.285 N 
ATOM      2  C   UNL     1      -2.374  -0.065   0.127  0.00  0.00    +0.227 C 
ATOM      3  O   UNL     1      -2.393   1.148   0.134  0.00  0.00    -0.275 OA
ATOM      4  H   UNL     1      -1.192  -1.687  -0.063  0.00  0.00    +0.155 HD
ENDROOT
BRANCH   1  10
ATOM      5  C   UNL     1       1.138  -0.544   0.583  0.00  0.00    +0.025 A 
ATOM      6  C   UNL     1       2.328   0.156   0.570  0.00  0.00    +0.029 A 
ATOM      7  C   UNL     1       2.390   1.403  -0.033  0.00  0.00    +0.067 A 
ATOM      8  C   UNL     1       1.249   1.950  -0.626  0.00  0.00    +0.069 A 
ATOM      9  C   UNL     1       0.057   1.244  -0.610  0.00  0.00    +0.051 A 
ATOM     10  C   UNL     1       0.002  -0.003  -0.006  0.00  0.00    +0.035 A 
ATOM     11  N   UNL     1       1.618   3.191  -1.139  0.00  0.00    -0.306 N 
ATOM     12  C   UNL     1       2.922   3.391  -0.872  0.00  0.00    +0.325 A 
ATOM     13  N   UNL     1       3.417   2.331  -0.205  0.00  0.00    -0.306 N 
ATOM     14  H   UNL     1       4.331   2.231   0.103  0.00  0.00    +0.170 HD
ATOM     15  O   UNL     1       3.557   4.381  -1.185  0.00  0.00    -0.247 OA
ATOM     16  H   UNL     1       1.034   3.806  -1.611  0.00  0.00    +0.170 HD
ENDBRANCH   1  10
BRANCH   2  17
ATOM     17  C   UNL     1      -3.661  -0.839   0.249  0.00  0.00    +0.173 C 
BRANCH  17  18
ATOM     18  S   UNL     1      -5.052   0.317   0.390  0.00  0.00    -0.079 S 
BRANCH  18  19
ATOM     19  C   UNL     1      -6.464  -0.728   0.523  0.00  0.00    +0.168 A 
ATOM     20  N   UNL     1      -7.754  -0.294   0.645  0.00  0.00    -0.333 N 
ATOM     21  H   UNL     1      -8.050   0.629   0.673  0.00  0.00    +0.168 HD
ATOM     22  C   UNL     1      -8.560  -1.419   0.721  0.00  0.00    +0.067 A 
ATOM     23  C   UNL     1      -9.926  -1.614   0.850  0.00  0.00    +0.029 A 
ATOM     24  C   UNL     1     -10.436  -2.896   0.898  0.00  0.00    +0.022 A 
ATOM     25  C   UNL     1      -9.588  -3.992   0.818  0.00  0.00    +0.043 A 
ATOM     26  C   UNL     1      -8.228  -3.816   0.689  0.00  0.00    +0.050 A 
ATOM     27  C   UNL     1      -7.697  -2.524   0.639  0.00  0.00    +0.091 A 
ATOM     28  N   UNL     1      -6.434  -2.038   0.514  0.00  0.00    -0.222 NA
ATOM     29 CL   UNL     1     -10.247  -5.597   0.880  0.00  0.00    -0.083 Cl
ENDBRANCH  18  19
ENDBRANCH  17  18
ENDBRANCH   2  17
TORSDOF 4
