REMARK  Name = ZINC15969754
REMARK  5 active torsions:
REMARK  status: ('A' for Active; 'I' for Inactive)
REMARK    1  A    between atoms: C_2  and  C_3
REMARK    2  A    between atoms: C_3  and  N_4
REMARK    3  A    between atoms: C_5  and  C_7
REMARK    4  A    between atoms: C_12  and  N_13
REMARK    5  A    between atoms: C_29  and  C_34
REMARK                            x       y       z     vdW  Elec       q    Type
REMARK                         _______ _______ _______ _____ _____    ______ ____
ROOT
ATOM      1  N   UNL     1       1.262  -2.076  -0.021  0.00  0.00    -0.192 N 
ATOM      2  C   UNL     1       1.291  -2.839   1.091  0.00  0.00    +0.248 C 
ATOM      3  O   UNL     1       1.277  -2.455   2.241  0.00  0.00    -0.273 OA
ATOM      4  C   UNL     1       1.343  -4.274   0.608  0.00  0.00    +0.170 C 
ATOM      5  C   UNL     1       0.085  -5.019   1.070  0.00  0.00    +0.069 C 
ATOM      6  C   UNL     1      -0.194  -6.163   0.127  0.00  0.00    -0.015 A 
ATOM      7  C   UNL     1      -1.023  -7.328   0.375  0.00  0.00    +0.003 A 
ATOM      8  C   UNL     1      -1.763  -7.743   1.487  0.00  0.00    +0.010 A 
ATOM      9  C   UNL     1      -2.448  -8.927   1.369  0.00  0.00    +0.001 A 
ATOM     10  C   UNL     1      -2.418  -9.683   0.209  0.00  0.00    +0.002 A 
ATOM     11  C   UNL     1      -1.694  -9.296  -0.906  0.00  0.00    +0.026 A 
ATOM     12  C   UNL     1      -0.987  -8.099  -0.815  0.00  0.00    +0.047 A 
ATOM     13  N   UNL     1      -0.189  -7.437  -1.702  0.00  0.00    -0.356 N 
ATOM     14  H   UNL     1       0.015  -7.737  -2.602  0.00  0.00    +0.166 HD
ATOM     15  C   UNL     1       0.282  -6.286  -1.130  0.00  0.00    +0.046 A 
ATOM     16  C   UNL     1       1.204  -5.274  -1.781  0.00  0.00    +0.155 C 
ATOM     17  N   UNL     1       1.274  -4.130  -0.863  0.00  0.00    -0.260 N 
ATOM     18  C   UNL     1       1.263  -2.824  -1.134  0.00  0.00    +0.317 C 
ATOM     19  O   UNL     1       1.258  -2.364  -2.259  0.00  0.00    -0.252 OA
ENDROOT
BRANCH  16  20
ATOM     20  C   UNL     1       0.639  -4.838  -3.109  0.00  0.00    -0.021 A 
ATOM     21  C   UNL     1      -0.413  -3.943  -3.151  0.00  0.00    +0.008 A 
ATOM     22  C   UNL     1      -0.928  -3.538  -4.368  0.00  0.00    +0.038 A 
ATOM     23  C   UNL     1      -0.397  -4.039  -5.545  0.00  0.00    +0.123 A 
ATOM     24  C   UNL     1       0.654  -4.940  -5.501  0.00  0.00    +0.038 A 
ATOM     25  C   UNL     1       1.171  -5.339  -4.283  0.00  0.00    +0.008 A 
ATOM     26  F   UNL     1      -0.903  -3.648  -6.735  0.00  0.00    -0.205 F 
ENDBRANCH  16  20
BRANCH   1  32
ATOM     27  C   UNL     1       0.002  -0.004   0.002  0.00  0.00    +0.059 A 
ATOM     28  C   UNL     1      -0.017   1.392   0.010  0.00  0.00    +0.015 A 
ATOM     29  C   UNL     1       1.168   2.096   0.002  0.00  0.00    +0.001 A 
ATOM     30  C   UNL     1       2.380   1.425  -0.013  0.00  0.00    +0.002 A 
ATOM     31  C   UNL     1       2.414   0.044  -0.021  0.00  0.00    +0.025 A 
ATOM     32  C   UNL     1       1.230  -0.680  -0.013  0.00  0.00    +0.058 A 
BRANCH  27  34
ATOM     33  N   UNL     1      -2.442  -0.110   0.026  0.00  0.00    -0.308 N 
ATOM     34  C   UNL     1      -1.263  -0.763   0.011  0.00  0.00    +0.246 C 
ATOM     35  O   UNL     1      -1.243  -1.979   0.004  0.00  0.00    -0.270 OA
ATOM     36  H   UNL     1      -2.458   0.860   0.031  0.00  0.00    +0.149 HD
BRANCH  33  37
ATOM     37  C   UNL     1      -3.698  -0.864   0.034  0.00  0.00    +0.131 C 
BRANCH  37  39
ATOM     38  C   UNL     1      -5.788   0.017  -0.870  0.00  0.00    +0.005 C 
ATOM     39  C   UNL     1      -4.859   0.096   0.051  0.00  0.00    -0.016 C 
ENDBRANCH  37  39
ENDBRANCH  33  37
ENDBRANCH  27  34
ENDBRANCH   1  32
TORSDOF 5
