REMARK  Name = ZINC04391172
REMARK  12 active torsions:
REMARK  status: ('A' for Active; 'I' for Inactive)
REMARK    1  A    between atoms: C_1  and  C_2
REMARK    2  A    between atoms: C_2  and  C_3
REMARK    3  A    between atoms: C_2  and  C_4
REMARK    4  A    between atoms: C_4  and  C_6
REMARK    5  A    between atoms: C_4  and  N_66
REMARK    6  A    between atoms: N_10  and  C_11
REMARK    7  A    between atoms: C_11  and  C_12
REMARK    8  A    between atoms: C_19  and  C_20
REMARK    9  A    between atoms: C_19  and  N_66
REMARK   10  A    between atoms: C_20  and  O_21
REMARK   11  A    between atoms: C_22  and  C_23
REMARK   12  A    between atoms: C_22  and  N_66
REMARK                            x       y       z     vdW  Elec       q    Type
REMARK                         _______ _______ _______ _____ _____    ______ ____
ROOT
ATOM      1  N   UNL     1      -6.149   3.078  -2.082  0.00  0.00    +0.391 N 
ATOM      2  H   UNL     1      -6.466   2.163  -2.423  0.00  0.00    -0.080 HD
ENDROOT
BRANCH   1   3
ATOM      3  C   UNL     1      -6.806   4.139  -2.873  0.00  0.00    +0.006 C 
BRANCH   3   4
ATOM      4  C   UNL     1      -6.984   3.645  -4.286  0.00  0.00    +0.139 A 
ATOM      5  N   UNL     1      -6.048   3.524  -5.196  0.00  0.00    -0.115 NA
ATOM      6  N   UNL     1      -6.594   3.068  -6.270  0.00  0.00    -0.023 NA
ATOM      7  N   UNL     1      -7.856   2.903  -6.072  0.00  0.00    -0.044 NA
ATOM      8  N   UNL     1      -8.134   3.248  -4.860  0.00  0.00    -0.226 N 
BRANCH   8   9
ATOM      9  C   UNL     1      -9.456   3.213  -4.228  0.00  0.00    +0.182 C 
BRANCH   9  10
ATOM     10  C   UNL     1     -10.268   4.391  -4.698  0.00  0.00    -0.026 A 
ATOM     11  C   UNL     1     -10.323   5.542  -3.934  0.00  0.00    +0.008 A 
ATOM     12  C   UNL     1     -11.064   6.625  -4.367  0.00  0.00    +0.038 A 
ATOM     13  C   UNL     1     -11.761   6.554  -5.561  0.00  0.00    +0.123 A 
ATOM     14  C   UNL     1     -11.710   5.399  -6.323  0.00  0.00    +0.038 A 
ATOM     15  C   UNL     1     -10.964   4.319  -5.891  0.00  0.00    +0.008 A 
ATOM     16  F   UNL     1     -12.490   7.610  -5.983  0.00  0.00    -0.205 F 
ENDBRANCH   9  10
ENDBRANCH   8   9
ENDBRANCH   3   4
BRANCH   3  18
ATOM     17  C   UNL     1      -6.657   6.495  -3.692  0.00  0.00    +0.006 C 
ATOM     18  C   UNL     1      -5.950   5.407  -2.881  0.00  0.00    -0.024 C 
ATOM     19  C   UNL     1      -5.747   5.893  -1.444  0.00  0.00    +0.006 C 
ENDBRANCH   3  18
ENDBRANCH   1   3
BRANCH   1  20
ATOM     20  C   UNL     1      -4.682   3.166  -2.238  0.00  0.00    -0.049 C 
BRANCH  20  21
ATOM     21  C   UNL     1      -4.100   1.753  -2.167  0.00  0.00    +0.137 C 
BRANCH  21  22
ATOM     22  O   UNL     1      -4.657   0.955  -3.213  0.00  0.00    -0.397 OA
ATOM     23  H   UNL     1      -4.332   0.044  -3.228  0.00  0.00    +0.209 HD
ENDBRANCH  21  22
ENDBRANCH  20  21
ENDBRANCH   1  20
BRANCH   1  24
ATOM     24  C   UNL     1      -6.515   3.212  -0.656  0.00  0.00    -0.036 C 
BRANCH  24  25
ATOM     25  C   UNL     1      -6.161   1.932   0.057  0.00  0.00    +0.001 A 
ATOM     26  C   UNL     1      -5.061   1.882   0.851  0.00  0.00    +0.017 A 
ATOM     27  C   UNL     1      -4.741   0.624   1.524  0.00  0.00    +0.002 A 
ATOM     28  C   UNL     1      -3.609   0.508   2.340  0.00  0.00    +0.059 A 
ATOM     29  C   UNL     1      -3.332  -0.692   2.960  0.00  0.00    +0.163 A 
ATOM     30  C   UNL     1      -4.177  -1.790   2.778  0.00  0.00    +0.164 A 
ATOM     31  C   UNL     1      -5.299  -1.685   1.973  0.00  0.00    +0.075 A 
ATOM     32  C   UNL     1      -5.588  -0.485   1.336  0.00  0.00    +0.053 A 
ATOM     33  N   UNL     1      -6.698  -0.365   0.525  0.00  0.00    -0.322 N 
ATOM     34  H   UNL     1      -7.302  -1.151   0.395  0.00  0.00    +0.169 HD
ATOM     35  C   UNL     1      -6.980   0.795  -0.094  0.00  0.00    +0.251 A 
ATOM     36  O   UNL     1      -7.969   0.865  -0.804  0.00  0.00    -0.268 OA
ATOM     37  O   UNL     1      -3.913  -2.976   3.390  0.00  0.00    -0.485 OA
ATOM     38  C   UNL     1      -2.584  -3.162   3.887  0.00  0.00    +0.270 C 
ATOM     39  C   UNL     1      -2.175  -1.897   4.653  0.00  0.00    +0.270 C 
ATOM     40  O   UNL     1      -2.224  -0.789   3.747  0.00  0.00    -0.485 OA
ENDBRANCH  24  25
ENDBRANCH   1  24
TORSDOF 10
