REMARK  Name = ZINC19831996
REMARK  12 active torsions:
REMARK  status: ('A' for Active; 'I' for Inactive)
REMARK    1  A    between atoms: C_1  and  C_2
REMARK    2  A    between atoms: C_2  and  C_3
REMARK    3  A    between atoms: C_3  and  C_4
REMARK    4  A    between atoms: C_4  and  C_5
REMARK    5  A    between atoms: C_5  and  S_6
REMARK    6  A    between atoms: S_6  and  C_7
REMARK    7  A    between atoms: C_20  and  C_23
REMARK    8  A    between atoms: C_25  and  N_33
REMARK    9  A    between atoms: C_26  and  O_32
REMARK   10  A    between atoms: C_27  and  O_29
REMARK   11  A    between atoms: O_29  and  C_30
REMARK   12  A    between atoms: C_30  and  C_31
REMARK                            x       y       z     vdW  Elec       q    Type
REMARK                         _______ _______ _______ _____ _____    ______ ____
ROOT
ATOM      1  C   UNL     1      -4.340  -3.269   2.095  0.00  0.00    +0.212 A 
ATOM      2  N   UNL     1      -3.092  -2.883   1.840  0.00  0.00    -0.184 NA
ATOM      3  C   UNL     1      -2.847  -1.606   1.600  0.00  0.00    +0.248 A 
ATOM      4  C   UNL     1      -3.925  -0.692   1.617  0.00  0.00    +0.156 A 
ATOM      5  N   UNL     1      -5.142  -1.141   1.881  0.00  0.00    -0.141 NA
ATOM      6  N   UNL     1      -5.337  -2.393   2.112  0.00  0.00    -0.122 NA
ATOM      7  C   UNL     1      -3.674   0.738   1.342  0.00  0.00    +0.028 A 
ATOM      8  C   UNL     1      -4.206   1.738   2.145  0.00  0.00    +0.012 A 
ATOM      9  C   UNL     1      -3.974   3.064   1.835  0.00  0.00    +0.001 A 
ATOM     10  C   UNL     1      -3.214   3.402   0.729  0.00  0.00    +0.002 A 
ATOM     11  C   UNL     1      -2.673   2.416  -0.076  0.00  0.00    +0.024 A 
ATOM     12  C   UNL     1      -2.891   1.085   0.224  0.00  0.00    +0.039 A 
ATOM     13  N   UNL     1      -2.347   0.062  -0.558  0.00  0.00    -0.305 N 
ATOM     14  C   UNL     1      -1.294  -0.774   0.010  0.00  0.00    +0.294 C 
ATOM     15  O   UNL     1      -1.592  -1.165   1.346  0.00  0.00    -0.449 OA
ATOM     16  H   UNL     1      -2.698  -0.118  -1.585  0.00  0.00    +0.150 HD
ENDROOT
BRANCH  14  17
ATOM     17  C   UNL     1       0.002  -0.004   0.002  0.00  0.00    +0.017 A 
ATOM     18  C   UNL     1       0.316   0.807  -1.073  0.00  0.00    +0.045 A 
ATOM     19  C   UNL     1       1.503   1.515  -1.085  0.00  0.00    +0.171 A 
ATOM     20  C   UNL     1       2.382   1.413  -0.019  0.00  0.00    +0.189 A 
ATOM     21  C   UNL     1       2.066   0.596   1.063  0.00  0.00    +0.164 A 
ATOM     22  C   UNL     1       0.874  -0.111   1.069  0.00  0.00    +0.058 A 
BRANCH  19  23
ATOM     23  N   UNL     1       1.836   2.382  -2.237  0.00  0.00    +0.060 N 
ATOM     24  O   UNL     1       1.063   2.472  -3.175  0.00  0.00    -0.126 OA
ATOM     25  O   UNL     1       2.882   3.006  -2.248  0.00  0.00    -0.126 OA
ENDBRANCH  19  23
BRANCH  20  26
ATOM     26  O   UNL     1       3.550   2.109  -0.029  0.00  0.00    -0.502 OA
ATOM     27  H   UNL     1       4.247   2.026   0.818  0.00  0.00    +0.292 HD
ENDBRANCH  20  26
BRANCH  21  28
ATOM     28  O   UNL     1       2.925   0.493   2.112  0.00  0.00    -0.488 OA
BRANCH  28  29
ATOM     29  C   UNL     1       2.535  -0.363   3.188  0.00  0.00    +0.226 C 
ATOM     30  C   UNL     1       3.619  -0.351   4.268  0.00  0.00    +0.048 C 
ENDBRANCH  28  29
ENDBRANCH  21  28
ENDBRANCH  14  17
BRANCH   1  31
ATOM     31  S   UNL     1      -4.673  -4.969   2.416  0.00  0.00    -0.084 S 
BRANCH  31  32
ATOM     32  C   UNL     1      -6.461  -4.894   2.682  0.00  0.00    +0.077 C 
BRANCH  32  33
ATOM     33  C   UNL     1      -6.991  -6.297   2.986  0.00  0.00    +0.011 C 
BRANCH  33  34
ATOM     34  C   UNL     1      -8.503  -6.233   3.211  0.00  0.00    +0.001 C 
BRANCH  34  36
ATOM     35  C   UNL     1     -10.545  -7.572   3.741  0.00  0.00    +0.004 C 
ATOM     36  C   UNL     1      -9.033  -7.636   3.515  0.00  0.00    -0.003 C 
ENDBRANCH  34  36
ENDBRANCH  33  34
ENDBRANCH  32  33
ENDBRANCH  31  32
ENDBRANCH   1  31
TORSDOF 10
