REMARK  Name = ZINC01737609
REMARK  7 active torsions:
REMARK  status: ('A' for Active; 'I' for Inactive)
REMARK    1  A    between atoms: C_4  and  C_7
REMARK    2  A    between atoms: C_9  and  C_26
REMARK    3  A    between atoms: C_11  and  N_13
REMARK    4  A    between atoms: N_13  and  C_14
REMARK    5  A    between atoms: C_14  and  C_15
REMARK    6  A    between atoms: C_15  and  C_16
REMARK    7  A    between atoms: C_28  and  C_32
REMARK                            x       y       z     vdW  Elec       q    Type
REMARK                         _______ _______ _______ _____ _____    ______ ____
ROOT
ATOM      1  C   UNL     1      -3.084  -3.652   0.013  0.00  0.00    +0.162 A 
ATOM      2  N   UNL     1      -2.099  -4.537  -0.001  0.00  0.00    -0.227 NA
ATOM      3  C   UNL     1      -0.827  -4.141  -0.012  0.00  0.00    +0.078 A 
ATOM      4  C   UNL     1      -0.542  -2.777  -0.008  0.00  0.00    +0.072 A 
ATOM      5  C   UNL     1      -1.607  -1.877   0.007  0.00  0.00    +0.123 A 
ATOM      6  N   UNL     1      -2.850  -2.347   0.022  0.00  0.00    -0.213 NA
ENDROOT
BRANCH   1  10
ATOM      7  C   UNL     1      -7.105  -5.033   0.044  0.00  0.00    +0.000 A 
ATOM      8  C   UNL     1      -6.843  -3.675   0.049  0.00  0.00    +0.001 A 
ATOM      9  C   UNL     1      -5.540  -3.221   0.039  0.00  0.00    +0.011 A 
ATOM     10  C   UNL     1      -4.487  -4.134   0.024  0.00  0.00    +0.019 A 
ATOM     11  C   UNL     1      -4.757  -5.501   0.014  0.00  0.00    +0.011 A 
ATOM     12  C   UNL     1      -6.064  -5.944   0.030  0.00  0.00    +0.001 A 
ENDBRANCH   1  10
BRANCH   3  13
ATOM     13  C   UNL     1       0.271  -5.139  -0.028  0.00  0.00    +0.019 A 
ATOM     14  C   UNL     1      -0.012  -6.502  -0.131  0.00  0.00    +0.021 A 
ATOM     15  C   UNL     1       1.057  -7.398  -0.147  0.00  0.00    +0.001 A 
ATOM     16  C   UNL     1       2.356  -6.904  -0.050  0.00  0.00    +0.119 A 
ATOM     17  N   UNL     1       2.581  -5.609   0.051  0.00  0.00    -0.262 NA
ATOM     18  C   UNL     1       1.600  -4.729   0.065  0.00  0.00    +0.120 A 
BRANCH  15  19
ATOM     19  C   UNL     1       0.814  -8.858  -0.262  0.00  0.00    -0.016 A 
ATOM     20  C   UNL     1      -0.489  -9.344  -0.353  0.00  0.00    +0.011 A 
ATOM     21  C   UNL     1      -0.710 -10.701  -0.465  0.00  0.00    +0.039 A 
ATOM     22  C   UNL     1       0.360 -11.581  -0.475  0.00  0.00    +0.123 A 
ATOM     23  C   UNL     1       1.657 -11.102  -0.378  0.00  0.00    +0.039 A 
ATOM     24  C   UNL     1       1.887  -9.746  -0.272  0.00  0.00    +0.011 A 
ATOM     25  F   UNL     1       0.139 -12.910  -0.580  0.00  0.00    -0.205 F 
ENDBRANCH  15  19
ENDBRANCH   3  13
BRANCH   5  26
ATOM     26  N   UNL     1      -1.372  -0.511   0.012  0.00  0.00    -0.329 N 
ATOM     27  H   UNL     1      -2.118   0.109   0.023  0.00  0.00    +0.147 HD
BRANCH  26  28
ATOM     28  C   UNL     1       0.002  -0.004   0.002  0.00  0.00    +0.107 C 
BRANCH  28  29
ATOM     29  C   UNL     1      -0.019   1.526   0.010  0.00  0.00    +0.056 C 
BRANCH  29  30
ATOM     30  C   UNL     1       1.395   2.047  -0.000  0.00  0.00    -0.021 A 
ATOM     31  C   UNL     1       2.120   2.412   1.069  0.00  0.00    +0.087 A 
ATOM     32  N   UNL     1       3.360   2.832   0.671  0.00  0.00    -0.360 N 
ATOM     33  H   UNL     1       4.061   3.141   1.266  0.00  0.00    +0.165 HD
ATOM     34  C   UNL     1       3.463   2.754  -0.699  0.00  0.00    +0.047 A 
ATOM     35  C   UNL     1       2.237   2.259  -1.180  0.00  0.00    +0.003 A 
ATOM     36  C   UNL     1       2.050   2.073  -2.551  0.00  0.00    +0.010 A 
ATOM     37  C   UNL     1       3.062   2.373  -3.420  0.00  0.00    +0.001 A 
ATOM     38  C   UNL     1       4.273   2.862  -2.951  0.00  0.00    +0.002 A 
ATOM     39  C   UNL     1       4.478   3.053  -1.602  0.00  0.00    +0.026 A 
ENDBRANCH  29  30
ENDBRANCH  28  29
ENDBRANCH  26  28
ENDBRANCH   5  26
TORSDOF 7
