REMARK  Name = ZINC63281452
REMARK  7 active torsions:
REMARK  status: ('A' for Active; 'I' for Inactive)
REMARK    1  A    between atoms: C_4  and  C_7
REMARK    2  A    between atoms: C_7  and  C_8
REMARK    3  A    between atoms: N_17  and  C_18
REMARK    4  A    between atoms: C_18  and  C_19
REMARK    5  A    between atoms: N_21  and  C_22
REMARK    6  A    between atoms: C_22  and  C_23
REMARK    7  A    between atoms: C_23  and  C_24
REMARK                            x       y       z     vdW  Elec       q    Type
REMARK                         _______ _______ _______ _____ _____    ______ ____
ROOT
ATOM      1  C   UNL     1       4.171  -0.963   1.399  0.00  0.00    +0.163 C 
ATOM      2  N   UNL     1       4.399   0.310   2.093  0.00  0.00    -0.324 N 
ATOM      3  C   UNL     1       5.748   0.345   2.470  0.00  0.00    +0.050 A 
ATOM      4  C   UNL     1       6.472   1.319   3.147  0.00  0.00    +0.025 A 
ATOM      5  C   UNL     1       7.814   1.129   3.411  0.00  0.00    +0.002 A 
ATOM      6  C   UNL     1       8.444  -0.032   3.002  0.00  0.00    +0.002 A 
ATOM      7  C   UNL     1       7.734  -1.006   2.329  0.00  0.00    +0.025 A 
ATOM      8  C   UNL     1       6.383  -0.824   2.058  0.00  0.00    +0.053 A 
ATOM      9  N   UNL     1       5.465  -1.657   1.400  0.00  0.00    -0.301 N 
ATOM     10  H   UNL     1       3.738   1.000   2.259  0.00  0.00    +0.148 HD
ENDROOT
BRANCH   1  11
ATOM     11  C   UNL     1       3.711  -0.707  -0.038  0.00  0.00    +0.077 C 
BRANCH  11  15
ATOM     12  C   UNL     1      -0.017   1.378   0.010  0.00  0.00    +0.000 A 
ATOM     13  C   UNL     1       1.171   2.086   0.002  0.00  0.00    +0.000 A 
ATOM     14  C   UNL     1       2.377   1.411  -0.013  0.00  0.00    +0.004 A 
ATOM     15  C   UNL     1       2.396   0.029  -0.020  0.00  0.00    -0.044 A 
ATOM     16  C   UNL     1       1.208  -0.679  -0.012  0.00  0.00    +0.004 A 
ATOM     17  C   UNL     1       0.002  -0.004   0.002  0.00  0.00    +0.000 A 
ENDBRANCH  11  15
ENDBRANCH   1  11
BRANCH   9  18
ATOM     18  C   UNL     1       5.745  -2.974   0.822  0.00  0.00    +0.202 C 
BRANCH  18  19
ATOM     19  C   UNL     1       6.171  -2.811  -0.614  0.00  0.00    +0.230 C 
ATOM     20  O   UNL     1       6.235  -1.705  -1.106  0.00  0.00    -0.274 OA
ATOM     21  N   UNL     1       6.481  -3.896  -1.351  0.00  0.00    -0.314 N 
ATOM     22  H   UNL     1       6.430  -4.781  -0.958  0.00  0.00    +0.149 HD
BRANCH  21  23
ATOM     23  C   UNL     1       6.896  -3.738  -2.748  0.00  0.00    +0.108 C 
BRANCH  23  24
ATOM     24  C   UNL     1       7.188  -5.113  -3.352  0.00  0.00    +0.052 C 
BRANCH  24  25
ATOM     25  C   UNL     1       7.614  -4.951  -4.788  0.00  0.00    -0.040 C 
ATOM     26  C   UNL     1       8.881  -4.882  -5.257  0.00  0.00    -0.001 A 
ATOM     27  C   UNL     1      10.190  -4.934  -4.596  0.00  0.00    +0.010 A 
ATOM     28  C   UNL     1      11.309  -4.836  -5.349  0.00  0.00    +0.001 A 
ATOM     29  C   UNL     1      11.250  -4.686  -6.742  0.00  0.00    +0.002 A 
ATOM     30  C   UNL     1      10.084  -4.629  -7.420  0.00  0.00    +0.026 A 
ATOM     31  C   UNL     1       8.845  -4.723  -6.729  0.00  0.00    +0.043 A 
ATOM     32  N   UNL     1       7.605  -4.695  -7.152  0.00  0.00    -0.380 N 
ATOM     33  C   UNL     1       6.712  -4.839  -5.997  0.00  0.00    +0.144 C 
ATOM     34  H   UNL     1       7.324  -4.599  -8.076  0.00  0.00    +0.160 HD
ENDBRANCH  24  25
ENDBRANCH  23  24
ENDBRANCH  21  23
ENDBRANCH  18  19
ENDBRANCH   9  18
TORSDOF 7
