REMARK  Name = ZINC28053044
REMARK  7 active torsions:
REMARK  status: ('A' for Active; 'I' for Inactive)
REMARK    1  A    between atoms: C_1  and  C_2
REMARK    2  A    between atoms: C_10  and  C_12
REMARK    3  A    between atoms: C_15  and  C_18
REMARK    4  A    between atoms: C_18  and  C_19
REMARK    5  A    between atoms: C_18  and  C_20
REMARK    6  A    between atoms: C_24  and  C_27
REMARK    7  A    between atoms: C_30  and  O_33
REMARK                            x       y       z     vdW  Elec       q    Type
REMARK                         _______ _______ _______ _____ _____    ______ ____
ROOT
ATOM      1  C   UNL     1      -7.670   5.748  -0.836  0.00  0.00    +0.069 C 
ATOM      2  C   UNL     1      -6.544   5.237  -1.698  0.00  0.00    +0.087 A 
ATOM      3  C   UNL     1      -5.261   4.893  -1.281  0.00  0.00    +0.049 A 
ATOM      4  C   UNL     1      -4.624   4.489  -2.426  0.00  0.00    +0.226 A 
ATOM      5  O   UNL     1      -5.511   4.610  -3.408  0.00  0.00    -0.339 OA
ATOM      6  N   UNL     1      -6.575   5.026  -2.990  0.00  0.00    -0.081 NA
ATOM      7  N   UNL     1      -3.312   4.063  -2.401  0.00  0.00    -0.286 N 
ATOM      8  C   UNL     1      -2.738   3.771  -1.186  0.00  0.00    +0.019 C 
ATOM      9  C   UNL     1      -3.299   4.132  -0.013  0.00  0.00    +0.024 C 
ATOM     10  C   UNL     1      -4.598   4.909   0.059  0.00  0.00    +0.091 C 
ATOM     11  C   UNL     1      -2.695   3.794   1.212  0.00  0.00    +0.162 C 
ATOM     12  O   UNL     1      -3.216   4.152   2.250  0.00  0.00    -0.292 OA
ATOM     13  C   UNL     1      -1.420   2.998   1.268  0.00  0.00    +0.088 C 
ATOM     14  C   UNL     1      -1.333   2.113   0.020  0.00  0.00    +0.032 C 
ATOM     15  C   UNL     1      -1.432   3.010  -1.215  0.00  0.00    +0.059 C 
ATOM     16  H   UNL     1      -2.748   3.963  -3.340  0.00  0.00    +0.155 HD
ENDROOT
BRANCH  10  17
ATOM     17  C   UNL     1      -4.311   6.333   0.461  0.00  0.00    -0.035 A 
ATOM     18  C   UNL     1      -3.489   7.120  -0.324  0.00  0.00    +0.005 A 
ATOM     19  C   UNL     1      -3.229   8.428   0.042  0.00  0.00    +0.004 A 
ATOM     20  C   UNL     1      -3.783   8.945   1.198  0.00  0.00    -0.045 A 
ATOM     21  C   UNL     1      -4.601   8.156   1.986  0.00  0.00    +0.004 A 
ATOM     22  C   UNL     1      -4.864   6.850   1.617  0.00  0.00    +0.005 A 
BRANCH  20  23
ATOM     23  C   UNL     1      -3.496  10.369   1.600  0.00  0.00    +0.013 C 
ATOM     24  C   UNL     1      -1.990  10.548   1.799  0.00  0.00    +0.012 C 
ATOM     25  C   UNL     1      -3.982  11.316   0.501  0.00  0.00    +0.012 C 
ENDBRANCH  20  23
ENDBRANCH  10  17
BRANCH  14  26
ATOM     26  C   UNL     1      -0.017   1.378   0.010  0.00  0.00    -0.043 A 
ATOM     27  C   UNL     1       1.170   2.088   0.002  0.00  0.00    +0.007 A 
ATOM     28  C   UNL     1       2.377   1.417  -0.013  0.00  0.00    +0.045 A 
ATOM     29  C   UNL     1       2.399   0.030  -0.021  0.00  0.00    +0.117 A 
ATOM     30  C   UNL     1       1.207  -0.680  -0.014  0.00  0.00    +0.045 A 
ATOM     31  C   UNL     1       0.002  -0.004   0.002  0.00  0.00    +0.007 A 
BRANCH  29  32
ATOM     32  O   UNL     1       3.586  -0.632  -0.037  0.00  0.00    -0.507 OA
ATOM     33  H   UNL     1       3.601  -1.732  -0.043  0.00  0.00    +0.292 HD
ENDBRANCH  29  32
ENDBRANCH  14  26
TORSDOF 4
