REMARK  Name = ZINC39687301
REMARK  8 active torsions:
REMARK  status: ('A' for Active; 'I' for Inactive)
REMARK    1  A    between atoms: C_1  and  C_2
REMARK    2  A    between atoms: C_5  and  C_9
REMARK    3  A    between atoms: C_6  and  C_8
REMARK    4  A    between atoms: C_13  and  C_22
REMARK    5  A    between atoms: N_24  and  C_25
REMARK    6  A    between atoms: C_25  and  C_27
REMARK    7  A    between atoms: C_25  and  C_34
REMARK    8  A    between atoms: C_27  and  C_28
REMARK                            x       y       z     vdW  Elec       q    Type
REMARK                         _______ _______ _______ _____ _____    ______ ____
ROOT
ATOM      1  C   UNL     1       0.848  -4.513   1.363  0.00  0.00    +0.247 C 
ATOM      2  O   UNL     1       1.037  -5.093   2.414  0.00  0.00    -0.270 OA
ATOM      3  N   UNL     1       0.773  -5.210   0.212  0.00  0.00    -0.296 N 
ATOM      4  C   UNL     1       0.669  -4.678  -1.167  0.00  0.00    +0.121 C 
ATOM      5  C   UNL     1       1.568  -5.607  -2.013  0.00  0.00    +0.100 C 
ATOM      6  C   UNL     1       1.633  -6.922  -1.216  0.00  0.00    -0.004 C 
ATOM      7  C   UNL     1       0.783  -6.682   0.040  0.00  0.00    +0.115 C 
ATOM      8  C   UNL     1       3.074  -7.229  -0.820  0.00  0.00    -0.010 C 
ATOM      9  C   UNL     1       3.120  -8.568  -0.079  0.00  0.00    -0.082 C 
ATOM     10  N   UNL     1       2.594  -9.628  -0.948  0.00  0.00    +0.379 N 
ATOM     11  C   UNL     1       1.180  -9.373  -1.249  0.00  0.00    -0.082 C 
ATOM     12  C   UNL     1       1.051  -8.068  -2.039  0.00  0.00    -0.010 C 
ATOM     13  H   UNL     1       3.121  -9.649  -1.808  0.00  0.00    -0.086 HD
ATOM     14  H   UNL     1       2.681 -10.518  -0.481  0.00  0.00    -0.086 HD
ENDROOT
BRANCH   1  19
ATOM     15  C   UNL     1       0.272   1.213   1.302  0.00  0.00    +0.044 C 
ATOM     16  C   UNL     1       0.423  -0.287   1.318  0.00  0.00    -0.050 A 
ATOM     17  C   UNL     1      -0.499  -1.079   0.656  0.00  0.00    +0.004 A 
ATOM     18  C   UNL     1      -0.366  -2.452   0.667  0.00  0.00    +0.013 A 
ATOM     19  C   UNL     1       0.700  -3.042   1.347  0.00  0.00    +0.040 A 
ATOM     20  C   UNL     1       1.626  -2.237   2.013  0.00  0.00    -0.038 A 
ATOM     21  C   UNL     1       1.485  -0.865   1.990  0.00  0.00    +0.007 A 
ATOM     22  C   UNL     1       2.781  -2.865   2.750  0.00  0.00    +0.044 C 
ENDBRANCH   1  19
BRANCH   5  23
ATOM     23  C   UNL     1       2.945  -5.013  -2.162  0.00  0.00    +0.219 C 
ATOM     24  O   UNL     1       3.399  -4.308  -1.285  0.00  0.00    -0.275 OA
ATOM     25  N   UNL     1       3.671  -5.264  -3.269  0.00  0.00    -0.303 N 
ATOM     26  H   UNL     1       3.308  -5.828  -3.970  0.00  0.00    +0.149 HD
BRANCH  25  27
ATOM     27  C   UNL     1       5.010  -4.686  -3.413  0.00  0.00    +0.163 C 
BRANCH  27  28
ATOM     28  C   UNL     1       4.897  -3.294  -3.979  0.00  0.00    +0.236 C 
ATOM     29  O   UNL     1       3.921  -2.980  -4.627  0.00  0.00    -0.274 OA
ATOM     30  N   UNL     1       5.881  -2.398  -3.764  0.00  0.00    -0.300 N 
ATOM     31  C   UNL     1       7.124  -2.798  -3.092  0.00  0.00    +0.108 C 
ATOM     32  C   UNL     1       8.312  -2.399  -3.973  0.00  0.00    +0.019 C 
ATOM     33  C   UNL     1       8.224  -0.906  -4.295  0.00  0.00    +0.003 C 
ATOM     34  C   UNL     1       6.933  -0.624  -5.068  0.00  0.00    +0.019 C 
ATOM     35  C   UNL     1       5.732  -1.004  -4.204  0.00  0.00    +0.108 C 
ENDBRANCH  27  28
BRANCH  27  36
ATOM     36  C   UNL     1       5.841  -5.555  -4.360  0.00  0.00    +0.067 C 
BRANCH  36  37
ATOM     37  C   UNL     1       6.044  -6.916  -3.744  0.00  0.00    -0.045 A 
ATOM     38  C   UNL     1       7.138  -7.150  -2.932  0.00  0.00    +0.004 A 
ATOM     39  C   UNL     1       7.324  -8.398  -2.367  0.00  0.00    +0.000 A 
ATOM     40  C   UNL     1       6.417  -9.411  -2.614  0.00  0.00    +0.000 A 
ATOM     41  C   UNL     1       5.323  -9.176  -3.425  0.00  0.00    +0.000 A 
ATOM     42  C   UNL     1       5.134  -7.927  -3.987  0.00  0.00    +0.004 A 
ENDBRANCH  36  37
ENDBRANCH  27  36
ENDBRANCH  25  27
ENDBRANCH   5  23
TORSDOF 6
