REMARK  Name = ZINC39529459
REMARK  8 active torsions:
REMARK  status: ('A' for Active; 'I' for Inactive)
REMARK    1  A    between atoms: C_1  and  C_2
REMARK    2  A    between atoms: C_2  and  C_3
REMARK    3  A    between atoms: C_2  and  C_4
REMARK    4  A    between atoms: C_4  and  C_5
REMARK    5  A    between atoms: C_10  and  N_11
REMARK    6  A    between atoms: C_15  and  S_18
REMARK    7  A    between atoms: S_18  and  O_21
REMARK    8  A    between atoms: O_21  and  C_22
REMARK                            x       y       z     vdW  Elec       q    Type
REMARK                         _______ _______ _______ _____ _____    ______ ____
ROOT
ATOM      1  N   UNL     1      -1.392  -2.107   2.237  0.00  0.00    -0.331 N 
ATOM      2  C   UNL     1      -0.756  -3.390   2.575  0.00  0.00    +0.086 C 
ATOM      3  C   UNL     1      -1.855  -4.442   2.763  0.00  0.00    -0.061 C 
ATOM      4  N   UNL     1      -2.702  -4.483   1.564  0.00  0.00    +0.398 N 
ATOM      5  C   UNL     1      -3.404  -3.203   1.404  0.00  0.00    +0.133 C 
ATOM      6  C   UNL     1      -2.386  -2.091   1.152  0.00  0.00    +0.115 C 
ATOM      7  H   UNL     1      -2.127  -4.654   0.753  0.00  0.00    -0.083 HD
ATOM      8  H   UNL     1      -3.378  -5.226   1.657  0.00  0.00    -0.083 HD
ENDROOT
BRANCH   1  14
ATOM      9  C   UNL     1      -0.030  -0.130   2.478  0.00  0.00    -0.025 A 
ATOM     10  C   UNL     1       0.287   1.028   3.162  0.00  0.00    +0.020 A 
ATOM     11  C   UNL     1      -0.420   1.379   4.297  0.00  0.00    +0.018 A 
ATOM     12  C   UNL     1      -1.448   0.572   4.752  0.00  0.00    +0.017 A 
ATOM     13  C   UNL     1      -1.770  -0.587   4.073  0.00  0.00    +0.024 A 
ATOM     14  C   UNL     1      -1.065  -0.939   2.929  0.00  0.00    +0.033 A 
ATOM     15 BR   UNL     1       0.018   2.964   5.231  0.00  0.00    -0.050 Br
BRANCH   9  16
ATOM     16  C   UNL     1       0.742  -0.511   1.242  0.00  0.00    +0.040 C 
BRANCH  16  18
ATOM     17  C   UNL     1      -0.019   1.526   0.010  0.00  0.00    +0.007 C 
ATOM     18  C   UNL     1       0.002  -0.004   0.002  0.00  0.00    -0.013 C 
ATOM     19  C   UNL     1       0.718  -0.497  -1.257  0.00  0.00    +0.007 C 
ENDBRANCH  16  18
ENDBRANCH   9  16
ENDBRANCH   1  14
BRANCH   5  20
ATOM     20  S   UNL     1      -4.544  -3.310  -0.003  0.00  0.00    +0.109 S 
ATOM     21  O   UNL     1      -5.358  -2.147  -0.063  0.00  0.00    -0.138 OA
ATOM     22  O   UNL     1      -3.857  -3.774  -1.156  0.00  0.00    -0.138 OA
BRANCH  20  23
ATOM     23  O   UNL     1      -5.503  -4.436   0.357  0.00  0.00    -0.347 OA
BRANCH  23  24
ATOM     24  C   UNL     1      -6.425  -4.098   1.296  0.00  0.00    +0.156 A 
ATOM     25  C   UNL     1      -6.145  -4.282   2.643  0.00  0.00    +0.048 A 
ATOM     26  C   UNL     1      -7.084  -3.937   3.596  0.00  0.00    +0.004 A 
ATOM     27  C   UNL     1      -8.302  -3.410   3.209  0.00  0.00    +0.000 A 
ATOM     28  C   UNL     1      -8.584  -3.227   1.868  0.00  0.00    +0.004 A 
ATOM     29  C   UNL     1      -7.646  -3.564   0.911  0.00  0.00    +0.048 A 
ENDBRANCH  23  24
ENDBRANCH  20  23
ENDBRANCH   5  20
TORSDOF 6
