REMARK  Name = ZINC40992943
REMARK  10 active torsions:
REMARK  status: ('A' for Active; 'I' for Inactive)
REMARK    1  A    between atoms: C_1  and  C_2
REMARK    2  A    between atoms: C_5  and  C_31
REMARK    3  A    between atoms: C_6  and  O_8
REMARK    4  A    between atoms: O_8  and  C_9
REMARK    5  A    between atoms: C_9  and  C_11
REMARK    6  A    between atoms: C_9  and  C_12
REMARK    7  A    between atoms: C_17  and  C_20
REMARK    8  A    between atoms: C_23  and  N_26
REMARK    9  A    between atoms: C_31  and  C_32
REMARK   10  A    between atoms: C_31  and  C_33
REMARK                            x       y       z     vdW  Elec       q    Type
REMARK                         _______ _______ _______ _____ _____    ______ ____
ROOT
ATOM      1  C   UNL     1       0.976  -2.768   4.570  0.00  0.00    +0.259 C 
ATOM      2  O   UNL     1       1.425  -3.860   4.290  0.00  0.00    -0.271 OA
ATOM      3  N   UNL     1       1.210  -2.235   5.786  0.00  0.00    -0.262 N 
ATOM      4  C   UNL     1       1.966  -2.936   6.718  0.00  0.00    +0.165 A 
ATOM      5  N   UNL     1       2.299  -2.595   7.949  0.00  0.00    -0.225 NA
ATOM      6  C   UNL     1       3.034  -3.394   8.708  0.00  0.00    +0.080 A 
ATOM      7  C   UNL     1       3.455  -4.595   8.208  0.00  0.00    +0.076 A 
ATOM      8  S   UNL     1       2.737  -4.542   6.571  0.00  0.00    -0.060 S 
ATOM      9  H   UNL     1       0.851  -1.363   6.010  0.00  0.00    +0.157 HD
ENDROOT
BRANCH   6  10
ATOM     10  C   UNL     1       3.397  -2.989  10.088  0.00  0.00    +0.001 A 
ATOM     11  C   UNL     1       4.176  -3.831  10.881  0.00  0.00    +0.012 A 
ATOM     12  C   UNL     1       4.512  -3.453  12.163  0.00  0.00    +0.028 A 
ATOM     13  C   UNL     1       4.075  -2.233  12.666  0.00  0.00    +0.069 A 
ATOM     14  C   UNL     1       3.299  -1.392  11.878  0.00  0.00    +0.028 A 
ATOM     15  C   UNL     1       2.965  -1.764  10.593  0.00  0.00    +0.012 A 
BRANCH  13  16
ATOM     16  N   UNL     1       4.418  -1.851  13.970  0.00  0.00    -0.200 N 
ATOM     17  C   UNL     1       4.073  -0.711  14.608  0.00  0.00    +0.250 A 
ATOM     18  N   UNL     1       4.601  -0.761  15.803  0.00  0.00    -0.116 NA
ATOM     19  N   UNL     1       5.255  -1.854  15.965  0.00  0.00    -0.023 NA
ATOM     20  N   UNL     1       5.188  -2.574  14.898  0.00  0.00    -0.039 NA
ENDBRANCH  13  16
ENDBRANCH   6  10
BRANCH   1  21
ATOM     21  C   UNL     1       0.156  -2.008   3.559  0.00  0.00    +0.256 C 
ATOM     22  C   UNL     1      -1.242  -1.751   4.126  0.00  0.00    +0.062 C 
BRANCH  21  23
ATOM     23  O   UNL     1       0.050  -2.776   2.358  0.00  0.00    -0.480 OA
BRANCH  23  29
ATOM     24  C   UNL     1      -0.901   1.454   0.116  0.00  0.00    +0.044 C 
ATOM     25  C   UNL     1      -0.644  -0.030   0.074  0.00  0.00    -0.047 A 
ATOM     26  C   UNL     1      -0.641  -0.697  -1.137  0.00  0.00    +0.004 A 
ATOM     27  C   UNL     1      -0.405  -2.058  -1.179  0.00  0.00    +0.008 A 
ATOM     28  C   UNL     1      -0.174  -2.757  -0.010  0.00  0.00    -0.003 A 
ATOM     29  C   UNL     1      -0.177  -2.091   1.207  0.00  0.00    +0.125 A 
ATOM     30  C   UNL     1      -0.408  -0.723   1.246  0.00  0.00    +0.049 A 
BRANCH  28  31
ATOM     31  C   UNL     1       0.081  -4.241  -0.056  0.00  0.00    +0.016 C 
ATOM     32  C   UNL     1      -1.127  -4.947  -0.675  0.00  0.00    +0.012 C 
ATOM     33  C   UNL     1       1.324  -4.519  -0.904  0.00  0.00    +0.012 C 
ENDBRANCH  28  31
ENDBRANCH  23  29
ENDBRANCH  21  23
ENDBRANCH   1  21
TORSDOF 6
