REMARK  Name = ZINC35747236
REMARK  13 active torsions:
REMARK  status: ('A' for Active; 'I' for Inactive)
REMARK    1  A    between atoms: C_1  and  C_2
REMARK    2  A    between atoms: C_7  and  C_8
REMARK    3  A    between atoms: C_17  and  C_19
REMARK    4  A    between atoms: C_19  and  N_20
REMARK    5  A    between atoms: N_20  and  C_21
REMARK    6  A    between atoms: N_20  and  C_33
REMARK    7  A    between atoms: C_21  and  C_22
REMARK    8  A    between atoms: C_22  and  C_24
REMARK    9  A    between atoms: C_22  and  O_32
REMARK   10  A    between atoms: C_24  and  O_25
REMARK   11  A    between atoms: O_25  and  C_26
REMARK   12  A    between atoms: C_33  and  C_34
REMARK   13  A    between atoms: C_33  and  C_35
REMARK                            x       y       z     vdW  Elec       q    Type
REMARK                         _______ _______ _______ _____ _____    ______ ____
ROOT
ATOM      1  C   UNL     1      -0.235  -0.829   3.560  0.00  0.00    +0.004 A 
ATOM      2  C   UNL     1       0.660  -0.957   4.570  0.00  0.00    +0.056 A 
ATOM      3  S   UNL     1       0.111   0.248   5.763  0.00  0.00    -0.076 S 
ATOM      4  C   UNL     1      -1.293   0.889   4.887  0.00  0.00    +0.116 A 
ATOM      5  C   UNL     1      -1.300   0.157   3.688  0.00  0.00    +0.080 A 
ATOM      6  C   UNL     1      -2.350   0.481   2.771  0.00  0.00    +0.260 A 
ATOM      7  O   UNL     1      -2.443  -0.103   1.705  0.00  0.00    -0.267 OA
ATOM      8  N   UNL     1      -3.235   1.440   3.103  0.00  0.00    -0.312 N 
ATOM      9  H   UNL     1      -3.948   1.663   2.485  0.00  0.00    +0.170 HD
ATOM     10  C   UNL     1      -3.148   2.100   4.286  0.00  0.00    +0.094 A 
ATOM     11  N   UNL     1      -2.206   1.821   5.148  0.00  0.00    -0.229 NA
ENDROOT
BRANCH   1  18
ATOM     12  C   UNL     1       0.346   0.401   1.007  0.00  0.00    +0.044 C 
ATOM     13  C   UNL     1       0.151  -1.090   1.111  0.00  0.00    -0.043 A 
ATOM     14  C   UNL     1       0.254  -1.881  -0.015  0.00  0.00    +0.004 A 
ATOM     15  C   UNL     1       0.075  -3.249   0.079  0.00  0.00    +0.000 A 
ATOM     16  C   UNL     1      -0.208  -3.833   1.301  0.00  0.00    +0.001 A 
ATOM     17  C   UNL     1      -0.314  -3.052   2.434  0.00  0.00    +0.009 A 
ATOM     18  C   UNL     1      -0.129  -1.673   2.346  0.00  0.00    -0.014 A 
ENDBRANCH   1  18
BRANCH  10  19
ATOM     19  C   UNL     1      -4.161   3.166   4.616  0.00  0.00    -0.003 C 
BRANCH  19  20
ATOM     20  N   UNL     1      -3.766   3.851   5.854  0.00  0.00    +0.388 N 
ATOM     21  H   UNL     1      -3.349   3.186   6.488  0.00  0.00    -0.081 HD
BRANCH  20  22
ATOM     22  C   UNL     1      -2.791   4.905   5.541  0.00  0.00    -0.074 C 
ATOM     23  C   UNL     1      -1.601   4.295   4.798  0.00  0.00    -0.014 C 
ATOM     24  C   UNL     1      -3.453   5.966   4.658  0.00  0.00    -0.014 C 
ENDBRANCH  20  22
BRANCH  20  25
ATOM     25  C   UNL     1      -4.951   4.451   6.481  0.00  0.00    -0.043 C 
BRANCH  25  26
ATOM     26  C   UNL     1      -4.572   5.012   7.853  0.00  0.00    +0.135 C 
BRANCH  26  27
ATOM     27  O   UNL     1      -3.700   6.131   7.686  0.00  0.00    -0.390 OA
ATOM     28  H   UNL     1      -4.112   6.889   7.247  0.00  0.00    +0.210 HD
ENDBRANCH  26  27
BRANCH  26  29
ATOM     29  C   UNL     1      -5.838   5.457   8.589  0.00  0.00    +0.258 C 
BRANCH  29  30
ATOM     30  O   UNL     1      -5.498   5.873   9.913  0.00  0.00    -0.489 OA
BRANCH  30  31
ATOM     31  C   UNL     1      -6.516   6.301  10.706  0.00  0.00    +0.121 A 
ATOM     32  C   UNL     1      -7.815   6.316  10.220  0.00  0.00    +0.045 A 
ATOM     33  C   UNL     1      -8.848   6.752  11.028  0.00  0.00    +0.004 A 
ATOM     34  C   UNL     1      -8.587   7.173  12.319  0.00  0.00    +0.000 A 
ATOM     35  C   UNL     1      -7.292   7.160  12.804  0.00  0.00    +0.004 A 
ATOM     36  C   UNL     1      -6.257   6.720  12.003  0.00  0.00    +0.045 A 
ENDBRANCH  30  31
ENDBRANCH  29  30
ENDBRANCH  26  29
ENDBRANCH  25  26
ENDBRANCH  20  25
ENDBRANCH  19  20
ENDBRANCH  10  19
TORSDOF 10
