REMARK  Name = ZINC09586254
REMARK  4 active torsions:
REMARK  status: ('A' for Active; 'I' for Inactive)
REMARK    1  A    between atoms: C_12  and  C_13
REMARK    2  A    between atoms: C_12  and  N_52
REMARK    3  A    between atoms: N_15  and  C_16
REMARK    4  A    between atoms: C_17  and  C_24
REMARK                            x       y       z     vdW  Elec       q    Type
REMARK                         _______ _______ _______ _____ _____    ______ ____
ROOT
ATOM      1  C   UNL     1       3.128  -2.006  -2.072  0.00  0.00    +0.201 C 
ATOM      2  O   UNL     1       2.633  -2.543  -1.103  0.00  0.00    -0.278 OA
ATOM      3  N   UNL     1       3.838  -2.733  -2.956  0.00  0.00    -0.281 N 
ATOM      4  H   UNL     1       4.234  -2.304  -3.730  0.00  0.00    +0.155 HD
ENDROOT
BRANCH   3   5
ATOM      5  C   UNL     1       4.004  -4.096  -2.759  0.00  0.00    +0.084 A 
ATOM      6  C   UNL     1       4.688  -5.003  -3.550  0.00  0.00    +0.068 A 
ATOM      7  C   UNL     1       4.716  -6.398  -3.111  0.00  0.00    -0.023 A 
ATOM      8  C   UNL     1       4.050  -6.652  -1.970  0.00  0.00    -0.004 A 
ATOM      9  S   UNL     1       3.399  -5.077  -1.468  0.00  0.00    -0.077 S 
ATOM     10  C   UNL     1       4.115  -8.106  -1.590  0.00  0.00    +0.043 C 
ATOM     11  C   UNL     1       4.559  -8.826  -2.882  0.00  0.00    +0.010 C 
ATOM     12  C   UNL     1       5.321  -7.707  -3.620  0.00  0.00    +0.037 C 
BRANCH   6  13
ATOM     13  C   UNL     1       5.362  -4.580  -4.781  0.00  0.00    +0.244 C 
ATOM     14  O   UNL     1       6.524  -4.218  -4.745  0.00  0.00    -0.270 OA
ATOM     15  N   UNL     1       4.696  -4.592  -5.953  0.00  0.00    -0.325 N 
ATOM     16  H   UNL     1       3.771  -4.881  -5.982  0.00  0.00    +0.145 HD
ATOM     17  H   UNL     1       5.143  -4.312  -6.767  0.00  0.00    +0.145 HD
ENDBRANCH   6  13
ENDBRANCH   3   5
BRANCH   1  18
ATOM     18  C   UNL     1       2.948  -0.525  -2.286  0.00  0.00    +0.019 C 
BRANCH  18  28
ATOM     19  C   UNL     1       2.855   4.091  -0.063  0.00  0.00    +0.000 C 
ATOM     20  C   UNL     1       3.584   3.542  -1.291  0.00  0.00    -0.002 C 
ATOM     21  C   UNL     1       3.587   2.013  -1.240  0.00  0.00    -0.015 C 
ATOM     22  C   UNL     1       2.146   1.501  -1.233  0.00  0.00    -0.065 C 
ATOM     23  C   UNL     1       1.421   2.047  -0.001  0.00  0.00    -0.025 C 
ATOM     24  C   UNL     1       1.414   3.576  -0.051  0.00  0.00    +0.002 C 
ATOM     25  C   UNL     1      -0.019   1.527   0.010  0.00  0.00    +0.000 C 
ATOM     26  C   UNL     1       0.002  -0.004   0.002  0.00  0.00    -0.018 C 
ATOM     27  C   UNL     1       0.771  -0.493  -1.227  0.00  0.00    -0.078 C 
ATOM     28  N   UNL     1       2.154   0.025  -1.168  0.00  0.00    +0.387 N 
ATOM     29  H   UNL     1       2.581  -0.267  -0.281  0.00  0.00    -0.081 HD
ENDBRANCH  18  28
ENDBRANCH   1  18
TORSDOF 4
