REMARK  Name = ZINC50031948
REMARK  8 active torsions:
REMARK  status: ('A' for Active; 'I' for Inactive)
REMARK    1  A    between atoms: C_1  and  C_2
REMARK    2  A    between atoms: C_4  and  C_8
REMARK    3  A    between atoms: C_5  and  C_7
REMARK    4  A    between atoms: C_8  and  C_10
REMARK    5  A    between atoms: C_8  and  N_11
REMARK    6  A    between atoms: N_11  and  C_12
REMARK    7  A    between atoms: C_14  and  C_20
REMARK    8  A    between atoms: C_15  and  N_19
REMARK                            x       y       z     vdW  Elec       q    Type
REMARK                         _______ _______ _______ _____ _____    ______ ____
ROOT
ATOM      1  C   UNL     1      -4.189  -3.295  -1.176  0.00  0.00    +0.064 A 
ATOM      2  C   UNL     1      -3.907  -4.647  -1.167  0.00  0.00    +0.042 A 
ATOM      3  C   UNL     1      -4.805  -5.550  -1.750  0.00  0.00    +0.086 A 
ATOM      4  C   UNL     1      -5.987  -5.072  -2.341  0.00  0.00    +0.042 A 
ATOM      5  C   UNL     1      -6.256  -3.710  -2.341  0.00  0.00    +0.063 A 
ATOM      6  C   UNL     1      -5.367  -2.827  -1.758  0.00  0.00    +0.146 A 
ATOM      7  F   UNL     1      -5.638  -1.504  -1.758  0.00  0.00    -0.203 F 
ENDROOT
BRANCH   4   8
ATOM      8  N   UNL     1      -6.884  -5.960  -2.923  0.00  0.00    -0.357 N 
ATOM      9  H   UNL     1      -6.737  -6.916  -2.849  0.00  0.00    +0.142 HD
ATOM     10  H   UNL     1      -7.657  -5.624  -3.403  0.00  0.00    +0.142 HD
ENDBRANCH   4   8
BRANCH   3  11
ATOM     11  C   UNL     1      -4.511  -6.989  -1.746  0.00  0.00    +0.388 C 
ATOM     12  O   UNL     1      -3.431  -7.392  -1.336  0.00  0.00    -0.241 OA
ATOM     13  O   UNL     1      -5.347  -7.785  -2.152  0.00  0.00    -0.241 OA
ENDBRANCH   3  11
BRANCH   1  14
ATOM     14  N   UNL     1      -3.292  -2.390  -0.592  0.00  0.00    -0.335 N 
ATOM     15  H   UNL     1      -3.491  -1.441  -0.593  0.00  0.00    +0.147 HD
BRANCH  14  16
ATOM     16  C   UNL     1      -2.054  -2.878   0.021  0.00  0.00    +0.098 C 
ATOM     17  C   UNL     1      -2.333  -3.306   1.463  0.00  0.00    +0.033 C 
BRANCH  16  21
ATOM     18  C   UNL     1      -0.622   2.008  -0.058  0.00  0.00    +0.051 C 
ATOM     19  C   UNL     1      -0.457   0.510  -0.025  0.00  0.00    -0.013 A 
ATOM     20  C   UNL     1      -1.411  -0.454  -0.019  0.00  0.00    +0.016 A 
ATOM     21  C   UNL     1      -1.023  -1.780   0.014  0.00  0.00    -0.017 A 
ATOM     22  C   UNL     1       0.299  -2.078   0.040  0.00  0.00    -0.008 A 
ATOM     23  S   UNL     1       1.044  -0.455   0.011  0.00  0.00    -0.098 S 
ATOM     24  C   UNL     1       0.967  -3.428   0.078  0.00  0.00    +0.052 C 
ENDBRANCH  16  21
ENDBRANCH  14  16
ENDBRANCH   1  14
TORSDOF 5
