REMARK  Name = ZINC09007558
REMARK  10 active torsions:
REMARK  status: ('A' for Active; 'I' for Inactive)
REMARK    1  A    between atoms: C_1  and  C_2
REMARK    2  A    between atoms: C_2  and  N_54
REMARK    3  A    between atoms: C_3  and  C_4
REMARK    4  A    between atoms: C_3  and  N_54
REMARK    5  A    between atoms: C_5  and  C_6
REMARK    6  A    between atoms: C_5  and  N_54
REMARK    7  A    between atoms: C_6  and  N_7
REMARK    8  A    between atoms: C_8  and  C_24
REMARK    9  A    between atoms: C_11  and  C_12
REMARK   10  A    between atoms: C_11  and  O_19
REMARK                            x       y       z     vdW  Elec       q    Type
REMARK                         _______ _______ _______ _____ _____    ______ ____
ROOT
ATOM      1  N   UNL     1      -6.128   2.374   0.314  0.00  0.00    -0.285 N 
ATOM      2  C   UNL     1      -5.058   1.372   0.314  0.00  0.00    +0.144 C 
ATOM      3  C   UNL     1      -3.758   2.128   0.171  0.00  0.00    +0.071 C 
ATOM      4  C   UNL     1      -2.487   1.591   0.124  0.00  0.00    +0.133 C 
ATOM      5  C   UNL     1      -4.102   3.487   0.102  0.00  0.00    +0.249 C 
ATOM      6  O   UNL     1      -3.323   4.416  -0.011  0.00  0.00    -0.282 OA
ATOM      7  C   UNL     1      -5.583   3.595   0.190  0.00  0.00    +0.288 C 
ATOM      8  O   UNL     1      -6.208   4.636   0.157  0.00  0.00    -0.266 OA
ENDROOT
BRANCH   2   9
ATOM      9  C   UNL     1      -5.236   0.428  -0.847  0.00  0.00    -0.021 A 
ATOM     10  C   UNL     1      -4.970  -0.920  -0.688  0.00  0.00    +0.007 A 
ATOM     11  C   UNL     1      -5.133  -1.787  -1.752  0.00  0.00    +0.022 A 
ATOM     12  C   UNL     1      -5.562  -1.307  -2.977  0.00  0.00    +0.059 A 
ATOM     13  C   UNL     1      -5.829   0.042  -3.135  0.00  0.00    +0.060 A 
ATOM     14  C   UNL     1      -5.671   0.908  -2.068  0.00  0.00    +0.027 A 
ATOM     15 CL   UNL     1      -6.368   0.646  -4.671  0.00  0.00    -0.082 Cl
ATOM     16 CL   UNL     1      -5.766  -2.396  -4.313  0.00  0.00    -0.082 Cl
ENDBRANCH   2   9
BRANCH   4  17
ATOM     17  C   UNL     1      -1.333   2.455  -0.176  0.00  0.00    +0.017 A 
ATOM     18  C   UNL     1      -1.306   3.206  -1.357  0.00  0.00    +0.014 A 
ATOM     19  C   UNL     1      -0.226   4.016  -1.629  0.00  0.00    +0.039 A 
ATOM     20  C   UNL     1       0.835   4.085  -0.739  0.00  0.00    +0.123 A 
ATOM     21  C   UNL     1       0.817   3.339   0.431  0.00  0.00    +0.039 A 
ATOM     22  C   UNL     1      -0.256   2.524   0.715  0.00  0.00    +0.014 A 
ATOM     23  F   UNL     1       1.891   4.882  -1.012  0.00  0.00    -0.205 F 
ENDBRANCH   4  17
BRANCH   4  24
ATOM     24  O   UNL     1      -2.302   0.273   0.353  0.00  0.00    -0.506 OA
ATOM     25  H   UNL     1      -1.329   0.056   0.281  0.00  0.00    +0.292 HD
ENDBRANCH   4  24
BRANCH   1  26
ATOM     26  C   UNL     1      -7.561   2.089   0.432  0.00  0.00    +0.090 C 
BRANCH  26  27
ATOM     27  C   UNL     1      -7.962   2.093   1.909  0.00  0.00    -0.060 C 
BRANCH  27  28
ATOM     28  N   UNL     1      -9.403   1.784   2.012  0.00  0.00    +0.380 N 
ATOM     29  H   UNL     1      -9.599   0.926   1.482  0.00  0.00    -0.082 HD
BRANCH  28  31
ATOM     30  C   UNL     1      -9.317   0.170   3.846  0.00  0.00    -0.017 C 
ATOM     31  C   UNL     1      -9.774   1.569   3.426  0.00  0.00    -0.082 C 
ENDBRANCH  28  31
BRANCH  28  32
ATOM     32  C   UNL     1     -10.200   2.891   1.444  0.00  0.00    -0.082 C 
ATOM     33  C   UNL     1     -11.631   2.400   1.214  0.00  0.00    -0.017 C 
ENDBRANCH  28  32
ENDBRANCH  27  28
ENDBRANCH  26  27
ENDBRANCH   1  26
TORSDOF 8
