REMARK  Name = ZINC21918973
REMARK  3 active torsions:
REMARK  status: ('A' for Active; 'I' for Inactive)
REMARK    1  A    between atoms: C_1  and  C_2
REMARK    2  A    between atoms: N_15  and  C_18
REMARK    3  A    between atoms: N_23  and  C_24
REMARK                            x       y       z     vdW  Elec       q    Type
REMARK                         _______ _______ _______ _____ _____    ______ ____
ROOT
ATOM      1  C   UNL     1       3.170   2.359  -1.178  0.00  0.00    +0.035 C 
ATOM      2  C   UNL     1       2.514   1.537  -0.067  0.00  0.00    +0.122 C 
ATOM      3  C   UNL     1       1.057   1.884   0.002  0.00  0.00    +0.044 A 
ATOM      4  C   UNL     1      -0.013   1.076   0.008  0.00  0.00    +0.025 A 
ATOM      5  C   UNL     1      -1.162   1.896   0.017  0.00  0.00    +0.020 A 
ATOM      6  C   UNL     1      -0.744   3.182   0.036  0.00  0.00    +0.092 A 
ATOM      7  N   UNL     1       0.609   3.183   0.056  0.00  0.00    -0.312 N 
ATOM      8  C   UNL     1       1.526   4.221   0.154  0.00  0.00    +0.090 A 
ATOM      9  C   UNL     1       2.599   4.215   0.990  0.00  0.00    +0.004 A 
ATOM     10  C   UNL     1       3.454   5.332   0.933  0.00  0.00    -0.034 A 
ATOM     11  C   UNL     1       3.133   6.331   0.068  0.00  0.00    -0.021 A 
ATOM     12  S   UNL     1       1.644   5.760  -0.707  0.00  0.00    -0.077 S 
ATOM     13  C   UNL     1       3.882   7.604  -0.152  0.00  0.00    -0.036 C 
ATOM     14  N   UNL     1       4.840   7.771   0.959  0.00  0.00    +0.381 N 
ATOM     15  C   UNL     1       5.605   6.535   1.173  0.00  0.00    -0.074 C 
ATOM     16  C   UNL     1       4.710   5.458   1.791  0.00  0.00    +0.018 C 
ATOM     17  C   UNL     1       5.735   8.910   0.716  0.00  0.00    -0.096 C 
ATOM     18  C   UNL     1       2.826   3.046   1.924  0.00  0.00    +0.148 C 
ATOM     19  N   UNL     1       3.209   1.813   1.213  0.00  0.00    -0.273 N 
ATOM     20  C   UNL     1       4.147   0.978   1.703  0.00  0.00    +0.303 C 
ATOM     21  O   UNL     1       4.440  -0.031   1.091  0.00  0.00    -0.253 OA
ATOM     22  N   UNL     1       4.758   1.261   2.870  0.00  0.00    -0.296 N 
ATOM     23  H   UNL     1       4.492   2.174   3.423  0.00  0.00    +0.151 HD
ATOM     24  H   UNL     1       4.273   7.984   1.877  0.00  0.00    -0.082 HD
ENDROOT
BRANCH  22  25
ATOM     25  C   UNL     1       5.777   0.353   3.402  0.00  0.00    +0.074 C 
ATOM     26  C   UNL     1       5.099  -0.765   4.197  0.00  0.00    +0.022 C 
ATOM     27  C   UNL     1       6.163  -1.713   4.753  0.00  0.00    +0.002 C 
ATOM     28  C   UNL     1       7.109  -0.936   5.671  0.00  0.00    +0.000 C 
ATOM     29  C   UNL     1       7.787   0.181   4.876  0.00  0.00    +0.002 C 
ATOM     30  C   UNL     1       6.723   1.129   4.320  0.00  0.00    +0.022 C 
ENDBRANCH  22  25
TORSDOF 1
