REMARK  Name = ZINC38651362
REMARK  12 active torsions:
REMARK  status: ('A' for Active; 'I' for Inactive)
REMARK    1  A    between atoms: C_1  and  C_2
REMARK    2  A    between atoms: C_2  and  C_3
REMARK    3  A    between atoms: C_3  and  C_4
REMARK    4  A    between atoms: C_4  and  C_5
REMARK    5  A    between atoms: C_5  and  O_6
REMARK    6  A    between atoms: O_6  and  C_7
REMARK    7  A    between atoms: C_10  and  C_13
REMARK    8  A    between atoms: C_13  and  O_15
REMARK    9  A    between atoms: O_15  and  C_16
REMARK   10  A    between atoms: C_23  and  N_36
REMARK   11  A    between atoms: C_24  and  C_34
REMARK   12  A    between atoms: C_25  and  C_27
REMARK                            x       y       z     vdW  Elec       q    Type
REMARK                         _______ _______ _______ _____ _____    ______ ____
ROOT
ATOM      1  C   UNL     1       4.775  -8.335   7.909  0.00  0.00    +0.135 A 
ATOM      2  C   UNL     1       5.238  -7.459   8.881  0.00  0.00    +0.047 A 
ATOM      3  C   UNL     1       5.870  -7.949  10.007  0.00  0.00    +0.012 A 
ATOM      4  C   UNL     1       6.045  -9.312  10.171  0.00  0.00    +0.008 A 
ATOM      5  C   UNL     1       5.585 -10.191   9.203  0.00  0.00    +0.138 A 
ATOM      6  C   UNL     1       4.944  -9.700   8.072  0.00  0.00    +0.093 A 
ATOM      7  O   UNL     1       5.747 -11.530   9.345  0.00  0.00    -0.441 OA
ATOM      8  C   UNL     1       5.994 -12.049  10.559  0.00  0.00    +0.199 C 
ATOM      9  C   UNL     1       6.464 -11.294  11.580  0.00  0.00    +0.098 C 
ATOM     10  C   UNL     1       6.736  -9.826  11.405  0.00  0.00    +0.098 C 
ENDROOT
BRANCH  10  11
ATOM     11  C   UNL     1       8.221  -9.607  11.273  0.00  0.00    -0.035 A 
ATOM     12  C   UNL     1       8.915 -10.186  10.228  0.00  0.00    +0.006 A 
ATOM     13  C   UNL     1      10.277  -9.985  10.106  0.00  0.00    +0.020 A 
ATOM     14  C   UNL     1      10.946  -9.204  11.032  0.00  0.00    +0.041 A 
ATOM     15  C   UNL     1      10.251  -8.624  12.078  0.00  0.00    +0.020 A 
ATOM     16  C   UNL     1       8.888  -8.821  12.195  0.00  0.00    +0.006 A 
ATOM     17 CL   UNL     1      12.657  -8.951  10.880  0.00  0.00    -0.084 Cl
ENDBRANCH  10  11
BRANCH   8  18
ATOM     18  N   UNL     1       5.762 -13.386  10.771  0.00  0.00    -0.328 N 
ATOM     19  H   UNL     1       5.425 -13.940  10.050  0.00  0.00    +0.145 HD
ATOM     20  H   UNL     1       5.935 -13.776  11.643  0.00  0.00    +0.145 HD
ENDBRANCH   8  18
BRANCH   9  21
ATOM     21  C   UNL     1       6.707 -11.906  12.852  0.00  0.00    +0.101 C 
ATOM     22  N   UNL     1       6.900 -12.392  13.860  0.00  0.00    -0.191 NA
ENDBRANCH   9  21
BRANCH   1  23
ATOM     23  O   UNL     1       4.153  -7.854   6.800  0.00  0.00    -0.422 OA
BRANCH  23  24
ATOM     24  C   UNL     1       2.809  -7.942   6.741  0.00  0.00    +0.344 C 
ATOM     25  O   UNL     1       2.199  -8.519   7.619  0.00  0.00    -0.245 OA
BRANCH  24  29
ATOM     26  C   UNL     1       0.710  -6.202   3.487  0.00  0.00    +0.121 A 
ATOM     27  C   UNL     1       0.009  -6.863   4.490  0.00  0.00    +0.046 A 
ATOM     28  C   UNL     1       0.686  -7.428   5.547  0.00  0.00    +0.018 A 
ATOM     29  C   UNL     1       2.080  -7.338   5.611  0.00  0.00    +0.060 A 
ATOM     30  C   UNL     1       2.780  -6.673   4.600  0.00  0.00    +0.018 A 
ATOM     31  C   UNL     1       2.096  -6.115   3.543  0.00  0.00    +0.046 A 
BRANCH  26  32
ATOM     32  O   UNL     1       0.038  -5.646   2.447  0.00  0.00    -0.492 OA
BRANCH  32  33
ATOM     33  C   UNL     1      -1.385  -5.772   2.452  0.00  0.00    +0.229 C 
BRANCH  33  34
ATOM     34  C   UNL     1      -1.962  -5.089   1.210  0.00  0.00    +0.041 C 
BRANCH  34  35
ATOM     35  C   UNL     1      -3.486  -5.224   1.215  0.00  0.00    +0.003 C 
BRANCH  35  37
ATOM     36  C   UNL     1      -5.586  -4.676  -0.021  0.00  0.00    +0.004 C 
ATOM     37  C   UNL     1      -4.062  -4.540  -0.026  0.00  0.00    -0.003 C 
ENDBRANCH  35  37
ENDBRANCH  34  35
ENDBRANCH  33  34
ENDBRANCH  32  33
ENDBRANCH  26  32
ENDBRANCH  24  29
ENDBRANCH  23  24
ENDBRANCH   1  23
TORSDOF 11
