REMARK  Name = ZINC20550086
REMARK  11 active torsions:
REMARK  status: ('A' for Active; 'I' for Inactive)
REMARK    1  A    between atoms: C_1  and  C_2
REMARK    2  A    between atoms: C_2  and  C_3
REMARK    3  A    between atoms: C_2  and  C_4
REMARK    4  A    between atoms: C_6  and  C_29
REMARK    5  A    between atoms: C_7  and  N_9
REMARK    6  A    between atoms: C_10  and  C_12
REMARK    7  A    between atoms: C_12  and  C_27
REMARK    8  A    between atoms: C_13  and  C_14
REMARK    9  A    between atoms: C_19  and  C_20
REMARK   10  A    between atoms: C_29  and  O_31
REMARK   11  A    between atoms: O_31  and  C_32
REMARK                            x       y       z     vdW  Elec       q    Type
REMARK                         _______ _______ _______ _____ _____    ______ ____
ROOT
ATOM      1  C   UNL     1       2.252  -0.692   6.754  0.00  0.00    +0.114 C 
ATOM      2  C   UNL     1       2.716  -0.812   8.049  0.00  0.00    +0.035 C 
ENDROOT
BRANCH   2   3
ATOM      3  C   UNL     1       3.825  -1.715   8.346  0.00  0.00    +0.021 A 
ATOM      4  C   UNL     1       4.302  -2.741   7.545  0.00  0.00    +0.113 A 
ATOM      5  N   UNL     1       5.325  -3.321   8.187  0.00  0.00    -0.284 N 
ATOM      6  H   UNL     1       5.856  -4.168   7.726  0.00  0.00    +0.188 HD
ATOM      7  N   UNL     1       5.534  -2.687   9.415  0.00  0.00    -0.173 NA
ATOM      8  C   UNL     1       4.664  -1.714   9.553  0.00  0.00    +0.100 A 
BRANCH   8   9
ATOM      9  C   UNL     1       4.547  -0.792  10.707  0.00  0.00    +0.003 A 
ATOM     10  C   UNL     1       4.177   0.537  10.507  0.00  0.00    +0.011 A 
ATOM     11  C   UNL     1       4.064   1.390  11.586  0.00  0.00    +0.016 A 
ATOM     12  C   UNL     1       4.329   0.930  12.865  0.00  0.00    +0.018 A 
ATOM     13  C   UNL     1       4.702  -0.387  13.069  0.00  0.00    +0.016 A 
ATOM     14  C   UNL     1       4.812  -1.249  11.998  0.00  0.00    +0.011 A 
ATOM     15 BR   UNL     1       4.180   2.107  14.338  0.00  0.00    -0.050 Br
ENDBRANCH   8   9
ENDBRANCH   2   3
BRANCH   1  17
ATOM     16  N   UNL     1       0.592   0.216   5.212  0.00  0.00    -0.275 N 
ATOM     17  C   UNL     1       1.045   0.099   6.476  0.00  0.00    +0.259 C 
ATOM     18  O   UNL     1       0.454   0.647   7.388  0.00  0.00    -0.269 OA
ATOM     19  H   UNL     1       1.126  -0.281   4.388  0.00  0.00    +0.156 HD
BRANCH  16  23
ATOM     20  C   UNL     1      -2.758   2.479   4.940  0.00  0.00    -0.005 A 
ATOM     21  C   UNL     1      -2.352   2.014   3.745  0.00  0.00    +0.028 A 
ATOM     22  C   UNL     1      -1.162   1.196   3.725  0.00  0.00    +0.088 A 
ATOM     23  C   UNL     1      -0.546   0.961   4.951  0.00  0.00    +0.086 A 
ATOM     24  S   UNL     1      -1.545   1.826   6.068  0.00  0.00    -0.077 S 
BRANCH  20  26
ATOM     25  C   UNL     1      -4.882   2.604   6.214  0.00  0.00    +0.013 C 
ATOM     26  C   UNL     1      -3.953   3.344   5.249  0.00  0.00    +0.020 C 
ATOM     27  C   UNL     1      -3.484   4.650   5.893  0.00  0.00    +0.013 C 
ENDBRANCH  20  26
BRANCH  22  28
ATOM     28  C   UNL     1      -0.633   0.638   2.479  0.00  0.00    +0.341 C 
ATOM     29  O   UNL     1       0.372  -0.047   2.498  0.00  0.00    -0.245 OA
BRANCH  28  30
ATOM     30  O   UNL     1      -1.260   0.884   1.311  0.00  0.00    -0.464 OA
ATOM     31  C   UNL     1      -0.680   0.299   0.116  0.00  0.00    +0.280 C 
ENDBRANCH  28  30
ENDBRANCH  22  28
ENDBRANCH  16  23
ENDBRANCH   1  17
BRANCH   1  32
ATOM     32  C   UNL     1       2.947  -1.338   5.682  0.00  0.00    +0.104 C 
ATOM     33  N   UNL     1       3.499  -1.850   4.831  0.00  0.00    -0.191 NA
ENDBRANCH   1  32
TORSDOF 8
