REMARK  Name = ZINC59759619
REMARK  8 active torsions:
REMARK  status: ('A' for Active; 'I' for Inactive)
REMARK    1  A    between atoms: C_1  and  C_2
REMARK    2  A    between atoms: C_2  and  N_3
REMARK    3  A    between atoms: N_3  and  C_4
REMARK    4  A    between atoms: C_4  and  C_5
REMARK    5  A    between atoms: C_11  and  C_14
REMARK    6  A    between atoms: N_16  and  C_17
REMARK    7  A    between atoms: C_20  and  S_23
REMARK    8  A    between atoms: S_23  and  N_26
REMARK                            x       y       z     vdW  Elec       q    Type
REMARK                         _______ _______ _______ _____ _____    ______ ____
ROOT
ATOM      1  C   UNL     1       3.338   0.831   5.848  0.00  0.00    +0.034 A 
ATOM      2  C   UNL     1       3.064   0.088   6.989  0.00  0.00    +0.025 A 
ATOM      3  C   UNL     1       4.081  -0.218   7.872  0.00  0.00    +0.030 A 
ATOM      4  C   UNL     1       5.371   0.214   7.621  0.00  0.00    +0.109 A 
ATOM      5  C   UNL     1       5.646   0.954   6.485  0.00  0.00    +0.030 A 
ATOM      6  C   UNL     1       4.635   1.258   5.595  0.00  0.00    +0.025 A 
ENDROOT
BRANCH   1   9
ATOM      7  C   UNL     1       2.565   1.209   3.630  0.00  0.00    +0.220 C 
ATOM      8  O   UNL     1       3.661   0.905   3.208  0.00  0.00    -0.275 OA
ATOM      9  N   UNL     1       2.310   1.143   4.951  0.00  0.00    -0.285 N 
ATOM     10  H   UNL     1       1.414   1.312   5.281  0.00  0.00    +0.155 HD
BRANCH   7  17
ATOM     11  N   UNL     1      -2.057   0.136  -0.422  0.00  0.00    -0.286 N 
ATOM     12  C   UNL     1      -0.843   0.702  -0.568  0.00  0.00    +0.305 C 
ATOM     13  O   UNL     1      -0.275   0.654  -1.642  0.00  0.00    -0.252 OA
ATOM     14  N   UNL     1      -0.257   1.321   0.477  0.00  0.00    -0.285 N 
ATOM     15  C   UNL     1       0.950   2.135   0.284  0.00  0.00    +0.110 C 
ATOM     16  C   UNL     1       2.036   1.644   1.246  0.00  0.00    +0.032 C 
ATOM     17  C   UNL     1       1.489   1.659   2.676  0.00  0.00    +0.078 C 
ATOM     18  C   UNL     1       0.291   0.713   2.776  0.00  0.00    +0.032 C 
ATOM     19  C   UNL     1      -0.818   1.198   1.829  0.00  0.00    +0.110 C 
BRANCH  11  21
ATOM     20  C   UNL     1      -3.393  -0.128  -2.454  0.00  0.00    +0.024 C 
ATOM     21  C   UNL     1      -2.534  -0.839  -1.405  0.00  0.00    +0.106 C 
ENDBRANCH  11  21
BRANCH  11  22
ATOM     22  C   UNL     1      -2.901   0.497   0.721  0.00  0.00    +0.106 C 
ATOM     23  C   UNL     1      -3.060  -0.716   1.639  0.00  0.00    +0.024 C 
ENDBRANCH  11  22
ENDBRANCH   7  17
ENDBRANCH   1   9
BRANCH   4  24
ATOM     24  S   UNL     1       6.665  -0.179   8.750  0.00  0.00    +0.075 S 
ATOM     25  O   UNL     1       7.675   0.803   8.567  0.00  0.00    -0.150 OA
ATOM     26  O   UNL     1       6.049  -0.414  10.008  0.00  0.00    -0.150 OA
BRANCH  24  27
ATOM     27  N   UNL     1       7.316  -1.623   8.265  0.00  0.00    -0.203 N 
ATOM     28  C   UNL     1       6.851  -2.886   8.854  0.00  0.00    +0.132 C 
ATOM     29  C   UNL     1       8.088  -3.737   9.174  0.00  0.00    +0.025 C 
ATOM     30  C   UNL     1       8.813  -4.066   7.869  0.00  0.00    +0.038 C 
ATOM     31  C   UNL     1       9.057  -2.812   7.072  0.00  0.00    -0.025 A 
ATOM     32  C   UNL     1       8.313  -1.660   7.284  0.00  0.00    +0.054 A 
ATOM     33  C   UNL     1       8.557  -0.522   6.524  0.00  0.00    +0.025 A 
ATOM     34  C   UNL     1       9.539  -0.537   5.553  0.00  0.00    +0.002 A 
ATOM     35  C   UNL     1      10.279  -1.685   5.338  0.00  0.00    +0.000 A 
ATOM     36  C   UNL     1      10.045  -2.817   6.101  0.00  0.00    +0.005 A 
ENDBRANCH  24  27
ENDBRANCH   4  24
TORSDOF 6
