REMARK  Name = ZINC13148507
REMARK  13 active torsions:
REMARK  status: ('A' for Active; 'I' for Inactive)
REMARK    1  A    between atoms: C_1  and  C_2
REMARK    2  A    between atoms: C_9  and  N_17
REMARK    3  A    between atoms: C_10  and  C_11
REMARK    4  A    between atoms: C_11  and  O_13
REMARK    5  A    between atoms: O_13  and  C_14
REMARK    6  A    between atoms: C_14  and  C_15
REMARK    7  A    between atoms: C_14  and  C_16
REMARK    8  A    between atoms: C_18  and  C_20
REMARK    9  A    between atoms: C_20  and  N_63
REMARK   10  A    between atoms: C_21  and  N_63
REMARK   11  A    between atoms: C_22  and  C_23
REMARK   12  A    between atoms: C_22  and  N_63
REMARK   13  A    between atoms: N_25  and  C_26
REMARK                            x       y       z     vdW  Elec       q    Type
REMARK                         _______ _______ _______ _____ _____    ______ ____
ROOT
ATOM      1  N   UNL     1      -2.304  -5.914   0.750  0.00  0.00    -0.281 N 
ATOM      2  C   UNL     1      -3.570  -6.202   0.389  0.00  0.00    +0.201 C 
ATOM      3  O   UNL     1      -4.302  -5.322  -0.011  0.00  0.00    -0.278 OA
ATOM      4  H   UNL     1      -1.719  -6.618   1.070  0.00  0.00    +0.155 HD
ENDROOT
BRANCH   1  12
ATOM      5  C   UNL     1      -0.034   1.535   0.017  0.00  0.00    +0.008 C 
ATOM      6  C   UNL     1      -0.010   0.005   0.002  0.00  0.00    -0.009 C 
ATOM      7  C   UNL     1       0.738  -0.509   1.235  0.00  0.00    +0.008 C 
ATOM      8  C   UNL     1       0.982  -2.014   1.106  0.00  0.00    +0.037 C 
ATOM      9  C   UNL     1      -0.343  -2.700   0.799  0.00  0.00    -0.021 A 
ATOM     10  C   UNL     1      -1.397  -2.000   0.326  0.00  0.00    -0.004 A 
ATOM     11  S   UNL     1      -2.684  -3.199   0.126  0.00  0.00    -0.077 S 
ATOM     12  C   UNL     1      -1.837  -4.612   0.662  0.00  0.00    +0.086 A 
ATOM     13  C   UNL     1      -0.578  -4.123   0.984  0.00  0.00    +0.091 A 
ATOM     14  C   UNL     1      -1.448  -0.532   0.036  0.00  0.00    +0.046 C 
BRANCH  13  15
ATOM     15  C   UNL     1       0.474  -5.007   1.490  0.00  0.00    +0.342 C 
ATOM     16  O   UNL     1       0.589  -5.193   2.687  0.00  0.00    -0.245 OA
BRANCH  15  17
ATOM     17  O   UNL     1       1.315  -5.615   0.629  0.00  0.00    -0.458 OA
BRANCH  17  18
ATOM     18  C   UNL     1       2.333  -6.478   1.202  0.00  0.00    +0.171 C 
ATOM     19  C   UNL     1       2.669  -7.597   0.213  0.00  0.00    +0.052 C 
ATOM     20  C   UNL     1       3.593  -5.658   1.491  0.00  0.00    +0.052 C 
ENDBRANCH  17  18
ENDBRANCH  15  17
ENDBRANCH  13  15
ENDBRANCH   1  12
BRANCH   2  21
ATOM     21  C   UNL     1      -4.077  -7.618   0.484  0.00  0.00    +0.019 C 
BRANCH  21  23
ATOM     22  C   UNL     1      -6.349  -6.922   0.953  0.00  0.00    -0.095 C 
ATOM     23  N   UNL     1      -5.477  -7.656   0.011  0.00  0.00    +0.389 N 
ATOM     24  H   UNL     1      -5.530  -7.207  -0.910  0.00  0.00    -0.081 HD
BRANCH  23  25
ATOM     25  C   UNL     1      -5.931  -9.057  -0.111  0.00  0.00    +0.019 C 
BRANCH  25  26
ATOM     26  C   UNL     1      -7.272  -9.075  -0.798  0.00  0.00    +0.201 C 
ATOM     27  O   UNL     1      -7.796  -8.034  -1.133  0.00  0.00    -0.278 OA
ATOM     28  N   UNL     1      -7.889 -10.249  -1.042  0.00  0.00    -0.287 N 
ATOM     29  H   UNL     1      -7.441 -11.084  -0.836  0.00  0.00    +0.155 HD
BRANCH  28  30
ATOM     30  C   UNL     1      -9.176 -10.262  -1.593  0.00  0.00    +0.033 A 
ATOM     31  C   UNL     1     -10.083 -11.245  -1.217  0.00  0.00    +0.026 A 
ATOM     32  C   UNL     1     -11.354 -11.253  -1.757  0.00  0.00    +0.040 A 
ATOM     33  C   UNL     1     -11.721 -10.289  -2.681  0.00  0.00    +0.124 A 
ATOM     34  C   UNL     1     -10.816  -9.311  -3.061  0.00  0.00    +0.040 A 
ATOM     35  C   UNL     1      -9.546  -9.296  -2.519  0.00  0.00    +0.026 A 
ATOM     36  F   UNL     1     -12.963 -10.301  -3.212  0.00  0.00    -0.205 F 
ENDBRANCH  28  30
ENDBRANCH  25  26
ENDBRANCH  23  25
ENDBRANCH  21  23
ENDBRANCH   2  21
TORSDOF 9
