REMARK  Name = ZINC01382032
REMARK  2 active torsions:
REMARK  status: ('A' for Active; 'I' for Inactive)
REMARK    1  A    between atoms: C_10  and  C_18
REMARK    2  A    between atoms: C_12  and  C_14
REMARK                            x       y       z     vdW  Elec       q    Type
REMARK                         _______ _______ _______ _____ _____    ______ ____
ROOT
ATOM      1  C   UNL     1       1.286  -0.708  -0.014  0.00  0.00    +0.016 A 
ATOM      2  C   UNL     1       2.431   0.012  -0.020  0.00  0.00    +0.049 A 
ATOM      3  C   UNL     1       2.383   1.427  -0.013  0.00  0.00    +0.164 A 
ATOM      4  N   UNL     1       3.329   2.348  -0.016  0.00  0.00    -0.128 NA
ATOM      5  N   UNL     1       2.799   3.518  -0.006  0.00  0.00    -0.113 NA
ATOM      6  C   UNL     1       1.488   3.423   0.006  0.00  0.00    +0.220 A 
ATOM      7  N   UNL     1       1.179   2.095   0.002  0.00  0.00    -0.247 N 
ATOM      8  C   UNL     1      -0.017   1.403   0.010  0.00  0.00    +0.150 A 
ATOM      9  C   UNL     1       0.002  -0.004   0.002  0.00  0.00    +0.030 A 
ATOM     10  C   UNL     1      -1.208  -0.707   0.010  0.00  0.00    +0.067 A 
ATOM     11  C   UNL     1      -2.383   0.023   0.025  0.00  0.00    +0.045 A 
ATOM     12  C   UNL     1      -2.325   1.407   0.032  0.00  0.00    +0.146 A 
ATOM     13  N   UNL     1      -1.173   2.048   0.030  0.00  0.00    -0.225 NA
ATOM     14  N   UNL     1       0.587   4.478   0.020  0.00  0.00    -0.327 N 
ATOM     15  H   UNL     1      -0.367   4.300   0.028  0.00  0.00    +0.145 HD
ATOM     16  H   UNL     1       0.910   5.392   0.022  0.00  0.00    +0.145 HD
ENDROOT
BRANCH  12  17
ATOM     17  C   UNL     1      -3.607   2.198   0.048  0.00  0.00    +0.434 C 
ATOM     18  F   UNL     1      -3.991   2.436   1.372  0.00  0.00    -0.164 F 
ATOM     19  F   UNL     1      -3.411   3.418  -0.607  0.00  0.00    -0.164 F 
ATOM     20  F   UNL     1      -4.610   1.474  -0.606  0.00  0.00    -0.164 F 
ENDBRANCH  12  17
BRANCH  10  21
ATOM     21  C   UNL     1      -1.231  -2.213   0.002  0.00  0.00    +0.418 C 
ATOM     22  F   UNL     1      -2.556  -2.660   0.013  0.00  0.00    -0.166 F 
ATOM     23  F   UNL     1      -0.589  -2.684  -1.148  0.00  0.00    -0.166 F 
ATOM     24  F   UNL     1      -0.568  -2.695   1.136  0.00  0.00    -0.166 F 
ENDBRANCH  10  21
TORSDOF 2
