REMARK  Name = ZINC13552948
REMARK  4 active torsions:
REMARK  status: ('A' for Active; 'I' for Inactive)
REMARK    1  A    between atoms: C_10  and  C_11
REMARK    2  A    between atoms: C_11  and  N_12
REMARK    3  A    between atoms: N_20  and  N_21
REMARK    4  A    between atoms: C_22  and  C_24
REMARK                            x       y       z     vdW  Elec       q    Type
REMARK                         _______ _______ _______ _____ _____    ______ ____
ROOT
ATOM      1  N   UNL     1       5.328   0.507   1.329  0.00  0.00    -0.261 N 
ATOM      2  C   UNL     1       4.903   1.656   1.988  0.00  0.00    +0.046 A 
ATOM      3  C   UNL     1       4.089   2.707   1.579  0.00  0.00    +0.024 A 
ATOM      4  C   UNL     1       3.817   3.748   2.443  0.00  0.00    +0.002 A 
ATOM      5  C   UNL     1       4.348   3.761   3.722  0.00  0.00    +0.001 A 
ATOM      6  C   UNL     1       5.158   2.726   4.145  0.00  0.00    +0.012 A 
ATOM      7  C   UNL     1       5.438   1.673   3.282  0.00  0.00    +0.028 A 
ATOM      8  C   UNL     1       6.248   0.440   3.416  0.00  0.00    +0.153 C 
ATOM      9  N   UNL     1       6.931   0.043   4.462  0.00  0.00    -0.174 NA
ATOM     10  C   UNL     1       6.114  -0.248   2.116  0.00  0.00    +0.272 C 
ATOM     11  O   UNL     1       6.626  -1.308   1.810  0.00  0.00    -0.268 OA
ENDROOT
BRANCH   9  12
ATOM     12  N   UNL     1       7.647  -1.160   4.416  0.00  0.00    -0.203 N 
ATOM     13  C   UNL     1       8.349  -1.569   5.492  0.00  0.00    +0.276 C 
ATOM     14  O   UNL     1       8.361  -0.894   6.499  0.00  0.00    -0.270 OA
ATOM     15  H   UNL     1       7.638  -1.700   3.610  0.00  0.00    +0.177 HD
BRANCH  13  16
ATOM     16  C   UNL     1       9.120  -2.863   5.442  0.00  0.00    +0.297 C 
ATOM     17  C   UNL     1      10.258  -2.748   4.419  0.00  0.00    +0.283 C 
ATOM     18  O   UNL     1      10.976  -3.987   4.407  0.00  0.00    -0.484 OA
ATOM     19  C   UNL     1      11.300  -4.517   5.618  0.00  0.00    +0.162 A 
ATOM     20  C   UNL     1      12.283  -5.492   5.693  0.00  0.00    +0.049 A 
ATOM     21  C   UNL     1      12.620  -6.043   6.915  0.00  0.00    +0.004 A 
ATOM     22  C   UNL     1      11.979  -5.624   8.065  0.00  0.00    +0.004 A 
ATOM     23  C   UNL     1      10.999  -4.652   7.998  0.00  0.00    +0.049 A 
ATOM     24  C   UNL     1      10.657  -4.094   6.775  0.00  0.00    +0.163 A 
ATOM     25  O   UNL     1       9.695  -3.132   6.725  0.00  0.00    -0.472 OA
ENDBRANCH  13  16
ENDBRANCH   9  12
BRANCH   1  26
ATOM     26  C   UNL     1       4.960   0.161  -0.046  0.00  0.00    +0.149 C 
BRANCH  26  36
ATOM     27  C   UNL     1       5.885  -0.287  -5.060  0.00  0.00    +0.001 A 
ATOM     28  C   UNL     1       4.885  -0.743  -4.203  0.00  0.00    +0.001 A 
ATOM     29  C   UNL     1       4.914  -0.451  -2.874  0.00  0.00    +0.009 A 
ATOM     30  C   UNL     1       5.968   0.321  -2.355  0.00  0.00    -0.013 A 
ATOM     31  C   UNL     1       6.986   0.783  -3.227  0.00  0.00    -0.018 A 
ATOM     32  C   UNL     1       6.921   0.462  -4.593  0.00  0.00    +0.008 A 
ATOM     33  C   UNL     1       8.039   1.554  -2.708  0.00  0.00    +0.008 A 
ATOM     34  C   UNL     1       8.069   1.846  -1.378  0.00  0.00    +0.001 A 
ATOM     35  C   UNL     1       7.069   1.391  -0.522  0.00  0.00    +0.006 A 
ATOM     36  C   UNL     1       6.033   0.642  -0.989  0.00  0.00    -0.022 A 
ENDBRANCH  26  36
ENDBRANCH   1  26
TORSDOF 4
