REMARK  Name = ZINC14545443
REMARK  9 active torsions:
REMARK  status: ('A' for Active; 'I' for Inactive)
REMARK    1  A    between atoms: C_1  and  C_2
REMARK    2  A    between atoms: C_2  and  O_3
REMARK    3  A    between atoms: O_3  and  C_4
REMARK    4  A    between atoms: C_9  and  C_10
REMARK    5  A    between atoms: C_21  and  S_26
REMARK    6  A    between atoms: S_26  and  N_29
REMARK    7  A    between atoms: N_29  and  C_30
REMARK    8  A    between atoms: C_33  and  C_37
REMARK    9  A    between atoms: C_35  and  C_36
REMARK                            x       y       z     vdW  Elec       q    Type
REMARK                         _______ _______ _______ _____ _____    ______ ____
ROOT
ATOM      1  C   UNL     1       3.757   3.274   0.468  0.00  0.00    +0.108 C 
ATOM      2  C   UNL     1       2.525   3.736   1.225  0.00  0.00    +0.029 C 
ATOM      3  C   UNL     1       2.284   5.247   1.268  0.00  0.00    +0.033 C 
ATOM      4  C   UNL     1       0.761   5.295   1.402  0.00  0.00    -0.030 C 
ATOM      5  C   UNL     1       0.225   4.201   0.873  0.00  0.00    -0.023 C 
ATOM      6  C   UNL     1       1.315   3.358   0.320  0.00  0.00    +0.049 C 
ATOM      7  C   UNL     1       1.221   1.883   0.276  0.00  0.00    -0.018 A 
ATOM      8  C   UNL     1       0.015   1.220   0.204  0.00  0.00    +0.034 A 
ATOM      9  C   UNL     1      -0.018  -0.160   0.128  0.00  0.00    +0.109 A 
ATOM     10  C   UNL     1       1.162  -0.881   0.124  0.00  0.00    +0.030 A 
ATOM     11  C   UNL     1       2.374  -0.227   0.203  0.00  0.00    +0.025 A 
ATOM     12  C   UNL     1       2.419   1.160   0.287  0.00  0.00    +0.031 A 
ATOM     13  N   UNL     1       3.659   1.800   0.402  0.00  0.00    -0.336 N 
ATOM     14  H   UNL     1       4.468   1.266   0.441  0.00  0.00    +0.147 HD
ENDROOT
BRANCH   1  20
ATOM     15  C   UNL     1       4.278   5.125  -1.141  0.00  0.00    +0.125 A 
ATOM     16  C   UNL     1       4.282   5.659  -2.422  0.00  0.00    +0.046 A 
ATOM     17  C   UNL     1       3.773   4.925  -3.476  0.00  0.00    +0.004 A 
ATOM     18  C   UNL     1       3.260   3.660  -3.255  0.00  0.00    +0.001 A 
ATOM     19  C   UNL     1       3.260   3.124  -1.980  0.00  0.00    +0.009 A 
ATOM     20  C   UNL     1       3.763   3.856  -0.922  0.00  0.00    +0.015 A 
BRANCH  15  21
ATOM     21  O   UNL     1       4.778   5.846  -0.102  0.00  0.00    -0.492 OA
BRANCH  21  23
ATOM     22  C   UNL     1       5.807   7.798   0.882  0.00  0.00    +0.048 C 
ATOM     23  C   UNL     1       5.292   7.145  -0.402  0.00  0.00    +0.225 C 
ENDBRANCH  21  23
ENDBRANCH  15  21
ENDBRANCH   1  20
BRANCH   9  24
ATOM     24  S   UNL     1      -1.565  -1.000   0.036  0.00  0.00    +0.072 S 
ATOM     25  O   UNL     1      -1.341  -2.316   0.523  0.00  0.00    -0.150 OA
ATOM     26  O   UNL     1      -2.534  -0.131   0.605  0.00  0.00    -0.150 OA
BRANCH  24  27
ATOM     27  N   UNL     1      -1.946  -1.148  -1.569  0.00  0.00    -0.216 N 
ATOM     28  H   UNL     1      -2.758  -0.745  -1.913  0.00  0.00    +0.174 HD
BRANCH  27  29
ATOM     29  C   UNL     1      -1.099  -1.853  -2.426  0.00  0.00    +0.051 A 
ATOM     30  C   UNL     1      -0.424  -2.978  -1.968  0.00  0.00    +0.025 A 
ATOM     31  C   UNL     1       0.413  -3.673  -2.818  0.00  0.00    +0.005 A 
ATOM     32  C   UNL     1       0.580  -3.251  -4.125  0.00  0.00    -0.050 A 
ATOM     33  C   UNL     1      -0.090  -2.132  -4.584  0.00  0.00    +0.008 A 
ATOM     34  C   UNL     1      -0.933  -1.435  -3.740  0.00  0.00    -0.028 A 
ATOM     35  C   UNL     1      -1.667  -0.219  -4.243  0.00  0.00    +0.046 C 
ATOM     36  C   UNL     1       1.493  -4.013  -5.051  0.00  0.00    +0.044 C 
ENDBRANCH  27  29
ENDBRANCH  24  27
ENDBRANCH   9  24
TORSDOF 6
