REMARK  Name = ZINC65265798
REMARK  7 active torsions:
REMARK  status: ('A' for Active; 'I' for Inactive)
REMARK    1  A    between atoms: C_1  and  O_2
REMARK    2  A    between atoms: O_2  and  C_3
REMARK    3  A    between atoms: C_3  and  C_4
REMARK    4  A    between atoms: C_4  and  N_5
REMARK    5  A    between atoms: C_21  and  C_23
REMARK    6  A    between atoms: C_23  and  C_24
REMARK    7  A    between atoms: C_24  and  C_25
REMARK                            x       y       z     vdW  Elec       q    Type
REMARK                         _______ _______ _______ _____ _____    ______ ____
ROOT
ATOM      1  N   UNL     1       1.401  -2.532  -0.162  0.00  0.00    -0.373 N 
ATOM      2  C   UNL     1       1.501  -3.788  -0.450  0.00  0.00    +0.095 C 
ATOM      3  N   UNL     1       0.896  -4.756   0.316  0.00  0.00    -0.303 N 
ATOM      4  C   UNL     1      -0.394  -5.162  -0.010  0.00  0.00    +0.037 A 
ATOM      5  C   UNL     1      -1.349  -5.305   0.987  0.00  0.00    +0.023 A 
ATOM      6  C   UNL     1      -2.626  -5.722   0.670  0.00  0.00    +0.002 A 
ATOM      7  C   UNL     1      -2.943  -5.997  -0.647  0.00  0.00    +0.000 A 
ATOM      8  C   UNL     1      -1.997  -5.849  -1.638  0.00  0.00    +0.007 A 
ATOM      9  C   UNL     1      -0.707  -5.422  -1.338  0.00  0.00    -0.012 A 
ATOM     10  C   UNL     1       0.243  -5.258  -2.497  0.00  0.00    +0.119 C 
ATOM     11  N   UNL     1       1.642  -5.505  -2.123  0.00  0.00    -0.299 NA
ATOM     12  C   UNL     1       2.273  -4.263  -1.634  0.00  0.00    +0.091 C 
ATOM     13  C   UNL     1       3.753  -4.511  -1.296  0.00  0.00    +0.050 C 
ATOM     14  C   UNL     1       4.450  -4.345  -2.665  0.00  0.00    +0.110 C 
ATOM     15  N   UNL     1       3.549  -3.557  -3.522  0.00  0.00    -0.299 N 
ATOM     16  C   UNL     1       2.341  -3.209  -2.747  0.00  0.00    +0.137 C 
ATOM     17  C   UNL     1       3.788  -3.211  -4.802  0.00  0.00    +0.216 C 
ATOM     18  O   UNL     1       2.971  -2.557  -5.416  0.00  0.00    -0.276 OA
ATOM     19  H   UNL     1       1.835  -1.870  -0.723  0.00  0.00    +0.161 HD
ATOM     20  H   UNL     1       1.709  -6.242  -1.438  0.00  0.00    +0.123 HD
ATOM     21  H   UNL     1       1.362  -5.149   1.070  0.00  0.00    +0.153 HD
ENDROOT
BRANCH   1  22
ATOM     22  C   UNL     1       0.633  -2.108   1.011  0.00  0.00    +0.141 C 
BRANCH  22  23
ATOM     23  C   UNL     1       0.673  -0.582   1.123  0.00  0.00    +0.180 C 
BRANCH  23  25
ATOM     24  C   UNL     1      -0.017   1.425   0.010  0.00  0.00    +0.194 C 
ATOM     25  O   UNL     1       0.002  -0.004   0.002  0.00  0.00    -0.381 OA
ENDBRANCH  23  25
ENDBRANCH  22  23
ENDBRANCH   1  22
BRANCH  17  26
ATOM     26  C   UNL     1       5.068  -3.638  -5.472  0.00  0.00    +0.100 C 
BRANCH  26  27
ATOM     27  C   UNL     1       5.089  -3.119  -6.911  0.00  0.00    +0.044 C 
BRANCH  27  28
ATOM     28  C   UNL     1       6.370  -3.546  -7.581  0.00  0.00    -0.047 A 
ATOM     29  C   UNL     1       7.488  -2.736  -7.513  0.00  0.00    +0.003 A 
ATOM     30  C   UNL     1       8.663  -3.127  -8.127  0.00  0.00    +0.000 A 
ATOM     31  C   UNL     1       8.720  -4.328  -8.809  0.00  0.00    +0.000 A 
ATOM     32  C   UNL     1       7.601  -5.138  -8.877  0.00  0.00    +0.000 A 
ATOM     33  C   UNL     1       6.428  -4.749  -8.259  0.00  0.00    +0.003 A 
ENDBRANCH  27  28
ENDBRANCH  26  27
ENDBRANCH  17  26
TORSDOF 6
