REMARK  Name = ZINC40703175
REMARK  5 active torsions:
REMARK  status: ('A' for Active; 'I' for Inactive)
REMARK    1  A    between atoms: C_1  and  C_2
REMARK    2  A    between atoms: C_7  and  N_8
REMARK    3  A    between atoms: C_10  and  N_23
REMARK    4  A    between atoms: C_11  and  N_15
REMARK    5  A    between atoms: C_20  and  C_22
REMARK                            x       y       z     vdW  Elec       q    Type
REMARK                         _______ _______ _______ _____ _____    ______ ____
ROOT
ATOM      1  N   UNL     1       0.149   0.062   2.422  0.00  0.00    -0.298 N 
ATOM      2  C   UNL     1       0.009  -0.655   3.605  0.00  0.00    +0.149 A 
ATOM      3  C   UNL     1      -0.116   0.010   4.827  0.00  0.00    +0.106 A 
ATOM      4  C   UNL     1      -0.254  -0.758   5.984  0.00  0.00    +0.147 A 
ATOM      5  N   UNL     1      -0.261  -2.085   5.880  0.00  0.00    -0.219 NA
ATOM      6  C   UNL     1      -0.141  -2.673   4.707  0.00  0.00    +0.225 A 
ATOM      7  N   UNL     1      -0.013  -1.986   3.590  0.00  0.00    -0.219 NA
ATOM      8  H   UNL     1       0.066   1.029   2.428  0.00  0.00    +0.154 HD
ENDROOT
BRANCH   1  15
ATOM      9  C   UNL     1      -0.699   1.274  -0.008  0.00  0.00    +0.046 C 
ATOM     10  C   UNL     1       0.013  -0.054   0.015  0.00  0.00    -0.028 A 
ATOM     11  C   UNL     1       0.276  -0.718  -1.168  0.00  0.00    +0.025 A 
ATOM     12  C   UNL     1       0.929  -1.937  -1.148  0.00  0.00    +0.041 A 
ATOM     13  C   UNL     1       1.321  -2.496   0.057  0.00  0.00    +0.022 A 
ATOM     14  C   UNL     1       1.061  -1.837   1.242  0.00  0.00    +0.025 A 
ATOM     15  C   UNL     1       0.409  -0.610   1.224  0.00  0.00    +0.035 A 
ATOM     16 CL   UNL     1       1.258  -2.768  -2.636  0.00  0.00    -0.084 Cl
ENDBRANCH   1  15
BRANCH   4  17
ATOM     17  N   UNL     1      -0.382  -0.147   7.226  0.00  0.00    -0.311 N 
ATOM     18  C   UNL     1      -1.701   0.264   7.726  0.00  0.00    +0.107 C 
ATOM     19  C   UNL     1      -1.913  -0.347   9.115  0.00  0.00    +0.019 C 
ATOM     20  C   UNL     1      -0.747   0.045  10.024  0.00  0.00    +0.003 C 
ATOM     21  C   UNL     1       0.559  -0.508   9.448  0.00  0.00    +0.022 C 
ATOM     22  C   UNL     1       0.799   0.096   8.066  0.00  0.00    +0.072 C 
ATOM     23  C   UNL     1       2.026  -0.560   7.428  0.00  0.00    +0.028 C 
ENDBRANCH   4  17
BRANCH   3  24
ATOM     24  N   UNL     1      -0.102   1.413   4.889  0.00  0.00    -0.353 N 
ATOM     25  H   UNL     1      -0.087   1.935   4.072  0.00  0.00    +0.143 HD
ATOM     26  H   UNL     1      -0.108   1.860   5.750  0.00  0.00    +0.143 HD
ENDBRANCH   3  24
TORSDOF 3
