REMARK  Name = ZINC09184468
REMARK  10 active torsions:
REMARK  status: ('A' for Active; 'I' for Inactive)
REMARK    1  A    between atoms: C_1  and  C_2
REMARK    2  A    between atoms: C_3  and  C_35
REMARK    3  A    between atoms: C_9  and  C_34
REMARK    4  A    between atoms: C_10  and  C_17
REMARK    5  A    between atoms: C_15  and  C_16
REMARK    6  A    between atoms: C_17  and  C_18
REMARK    7  A    between atoms: C_18  and  C_19
REMARK    8  A    between atoms: N_21  and  C_22
REMARK    9  A    between atoms: C_25  and  C_28
REMARK   10  A    between atoms: C_28  and  N_29
REMARK                            x       y       z     vdW  Elec       q    Type
REMARK                         _______ _______ _______ _____ _____    ______ ____
ROOT
ATOM      1  C   UNL     1      -0.446   4.013   0.793  0.00  0.00    +0.048 C 
ATOM      2  C   UNL     1      -0.898   2.815   1.588  0.00  0.00    -0.002 A 
ATOM      3  C   UNL     1      -0.717   1.526   1.274  0.00  0.00    +0.106 A 
ATOM      4  O   UNL     1      -1.251   0.736   2.222  0.00  0.00    -0.459 OA
ATOM      5  C   UNL     1      -1.814   1.471   3.203  0.00  0.00    +0.142 A 
ATOM      6  C   UNL     1      -1.629   2.827   2.863  0.00  0.00    +0.024 A 
ATOM      7  C   UNL     1      -2.107   3.832   3.692  0.00  0.00    +0.023 A 
ATOM      8  C   UNL     1      -2.774   3.487   4.869  0.00  0.00    +0.022 A 
ATOM      9  C   UNL     1      -3.291   4.522   5.768  0.00  0.00    -0.030 A 
ATOM     10  C   UNL     1      -3.930   4.129   6.899  0.00  0.00    +0.041 A 
ATOM     11  C   UNL     1      -4.080   2.754   7.178  0.00  0.00    +0.341 A 
ATOM     12  O   UNL     1      -4.656   2.415   8.196  0.00  0.00    -0.245 OA
ATOM     13  O   UNL     1      -3.605   1.810   6.352  0.00  0.00    -0.422 OA
ATOM     14  C   UNL     1      -2.958   2.131   5.209  0.00  0.00    +0.146 A 
ATOM     15  C   UNL     1      -2.477   1.136   4.374  0.00  0.00    +0.035 A 
ATOM     16  C   UNL     1      -2.675  -0.312   4.739  0.00  0.00    +0.051 C 
ATOM     17  C   UNL     1      -3.117   5.984   5.446  0.00  0.00    +0.045 C 
ATOM     18  C   UNL     1      -0.011   1.032   0.038  0.00  0.00    +0.086 C 
ENDROOT
BRANCH  10  19
ATOM     19  C   UNL     1      -4.480   5.158   7.853  0.00  0.00    +0.052 C 
BRANCH  19  20
ATOM     20  C   UNL     1      -3.411   5.514   8.889  0.00  0.00    +0.101 C 
BRANCH  20  21
ATOM     21  C   UNL     1      -3.960   6.543   9.843  0.00  0.00    +0.218 C 
ATOM     22  O   UNL     1      -5.095   6.951   9.709  0.00  0.00    -0.275 OA
ATOM     23  N   UNL     1      -3.191   7.010  10.847  0.00  0.00    -0.285 N 
ATOM     24  H   UNL     1      -2.309   6.636  10.996  0.00  0.00    +0.155 HD
BRANCH  23  25
ATOM     25  C   UNL     1      -3.666   8.034  11.674  0.00  0.00    +0.033 A 
ATOM     26  C   UNL     1      -2.788   8.988  12.172  0.00  0.00    +0.023 A 
ATOM     27  C   UNL     1      -3.261  10.002  12.983  0.00  0.00    +0.007 A 
ATOM     28  C   UNL     1      -4.604  10.060  13.308  0.00  0.00    -0.026 A 
ATOM     29  C   UNL     1      -5.479   9.108  12.818  0.00  0.00    +0.007 A 
ATOM     30  C   UNL     1      -5.013   8.096  12.002  0.00  0.00    +0.023 A 
BRANCH  28  31
ATOM     31  C   UNL     1      -5.114  11.164  14.198  0.00  0.00    +0.180 C 
BRANCH  31  32
ATOM     32  N   UNL     1      -5.046  10.734  15.597  0.00  0.00    -0.248 N 
ATOM     33  C   UNL     1      -4.424  11.370  16.606  0.00  0.00    +0.219 A 
ATOM     34  N   UNL     1      -4.595  10.666  17.695  0.00  0.00    -0.223 NA
ATOM     35  C   UNL     1      -5.316   9.580  17.424  0.00  0.00    +0.245 A 
ATOM     36  N   UNL     1      -5.621   9.579  16.152  0.00  0.00    -0.158 NA
ENDBRANCH  31  32
ENDBRANCH  28  31
ENDBRANCH  23  25
ENDBRANCH  20  21
ENDBRANCH  19  20
ENDBRANCH  10  19
TORSDOF 6
