REMARK  Name = ZINC13552948
REMARK  4 active torsions:
REMARK  status: ('A' for Active; 'I' for Inactive)
REMARK    1  A    between atoms: C_10  and  C_11
REMARK    2  A    between atoms: C_11  and  N_12
REMARK    3  A    between atoms: N_20  and  N_21
REMARK    4  A    between atoms: C_22  and  C_24
REMARK                            x       y       z     vdW  Elec       q    Type
REMARK                         _______ _______ _______ _____ _____    ______ ____
ROOT
ATOM      1  N   UNL     1       5.675   0.738   1.216  0.00  0.00    -0.261 N 
ATOM      2  C   UNL     1       5.450   1.967   1.827  0.00  0.00    +0.046 A 
ATOM      3  C   UNL     1       4.899   3.150   1.348  0.00  0.00    +0.024 A 
ATOM      4  C   UNL     1       4.787   4.248   2.176  0.00  0.00    +0.002 A 
ATOM      5  C   UNL     1       5.221   4.187   3.490  0.00  0.00    +0.001 A 
ATOM      6  C   UNL     1       5.771   3.021   3.984  0.00  0.00    +0.012 A 
ATOM      7  C   UNL     1       5.888   1.910   3.156  0.00  0.00    +0.028 A 
ATOM      8  C   UNL     1       6.417   0.542   3.364  0.00  0.00    +0.153 C 
ATOM      9  N   UNL     1       6.931   0.043   4.462  0.00  0.00    -0.174 NA
ATOM     10  C   UNL     1       6.234  -0.139   2.067  0.00  0.00    +0.272 C 
ATOM     11  O   UNL     1       6.538  -1.290   1.812  0.00  0.00    -0.268 OA
ENDROOT
BRANCH   9  12
ATOM     12  N   UNL     1       6.861   0.766   5.660  0.00  0.00    -0.203 N 
ATOM     13  C   UNL     1       7.481   0.304   6.764  0.00  0.00    +0.276 C 
ATOM     14  O   UNL     1       8.100  -0.738   6.720  0.00  0.00    -0.270 OA
ATOM     15  H   UNL     1       6.365   1.599   5.695  0.00  0.00    +0.177 HD
BRANCH  13  16
ATOM     16  C   UNL     1       7.405   1.081   8.052  0.00  0.00    +0.297 C 
ATOM     17  C   UNL     1       5.957   1.103   8.559  0.00  0.00    +0.283 C 
ATOM     18  O   UNL     1       5.924   1.836   9.789  0.00  0.00    -0.484 OA
ATOM     19  C   UNL     1       6.884   1.536  10.706  0.00  0.00    +0.162 A 
ATOM     20  C   UNL     1       6.709   1.924  12.026  0.00  0.00    +0.049 A 
ATOM     21  C   UNL     1       7.676   1.630  12.968  0.00  0.00    +0.004 A 
ATOM     22  C   UNL     1       8.820   0.948  12.598  0.00  0.00    +0.004 A 
ATOM     23  C   UNL     1       9.000   0.557  11.284  0.00  0.00    +0.049 A 
ATOM     24  C   UNL     1       8.033   0.848  10.334  0.00  0.00    +0.163 A 
ATOM     25  O   UNL     1       8.220   0.450   9.046  0.00  0.00    -0.472 OA
ENDBRANCH  13  16
ENDBRANCH   9  12
BRANCH   1  26
ATOM     26  C   UNL     1       5.339   0.436  -0.178  0.00  0.00    +0.149 C 
BRANCH  26  36
ATOM     27  C   UNL     1       6.538  -0.369  -5.089  0.00  0.00    +0.001 A 
ATOM     28  C   UNL     1       5.426  -0.642  -4.293  0.00  0.00    +0.001 A 
ATOM     29  C   UNL     1       5.404  -0.295  -2.978  0.00  0.00    +0.009 A 
ATOM     30  C   UNL     1       6.517   0.348  -2.409  0.00  0.00    -0.013 A 
ATOM     31  C   UNL     1       7.647   0.625  -3.219  0.00  0.00    -0.018 A 
ATOM     32  C   UNL     1       7.633   0.252  -4.573  0.00  0.00    +0.008 A 
ATOM     33  C   UNL     1       8.760   1.268  -2.651  0.00  0.00    +0.008 A 
ATOM     34  C   UNL     1       8.738   1.615  -1.334  0.00  0.00    +0.001 A 
ATOM     35  C   UNL     1       7.627   1.343  -0.539  0.00  0.00    +0.006 A 
ATOM     36  C   UNL     1       6.531   0.722  -1.055  0.00  0.00    -0.022 A 
ENDBRANCH  26  36
ENDBRANCH   1  26
TORSDOF 4
