REMARK  Name = ZINC01326957
REMARK  7 active torsions:
REMARK  status: ('A' for Active; 'I' for Inactive)
REMARK    1  A    between atoms: C_7  and  C_11
REMARK    2  A    between atoms: C_11  and  C_12
REMARK    3  A    between atoms: N_14  and  C_15
REMARK    4  A    between atoms: N_14  and  C_24
REMARK    5  A    between atoms: C_24  and  C_26
REMARK    6  A    between atoms: C_24  and  C_31
REMARK    7  A    between atoms: N_33  and  C_34
REMARK                            x       y       z     vdW  Elec       q    Type
REMARK                         _______ _______ _______ _____ _____    ______ ____
ROOT
ATOM      1  C   UNL     1      -2.063  -2.748  -1.172  0.00  0.00    +0.225 C 
ATOM      2  O   UNL     1      -1.209  -1.912  -1.380  0.00  0.00    -0.275 OA
ATOM      3  N   UNL     1      -3.222  -2.713  -1.860  0.00  0.00    -0.254 N 
ENDROOT
BRANCH   3   4
ATOM      4  C   UNL     1      -4.252  -3.608  -1.542  0.00  0.00    +0.041 A 
ATOM      5  C   UNL     1      -5.123  -4.043  -2.532  0.00  0.00    +0.027 A 
ATOM      6  C   UNL     1      -6.140  -4.926  -2.221  0.00  0.00    +0.051 A 
ATOM      7  C   UNL     1      -6.293  -5.379  -0.921  0.00  0.00    +0.166 A 
ATOM      8  C   UNL     1      -5.421  -4.944   0.074  0.00  0.00    +0.168 A 
ATOM      9  C   UNL     1      -4.398  -4.065  -0.240  0.00  0.00    +0.073 A 
ATOM     10  O   UNL     1      -5.779  -5.529   1.255  0.00  0.00    -0.453 OA
ATOM     11  C   UNL     1      -6.622  -6.639   0.894  0.00  0.00    +0.466 C 
ATOM     12  O   UNL     1      -7.198  -6.237  -0.363  0.00  0.00    -0.453 OA
ENDBRANCH   3   4
BRANCH   1  13
ATOM     13  C   UNL     1      -1.829  -3.825  -0.144  0.00  0.00    +0.133 C 
BRANCH  13  20
ATOM     14  C   UNL     1       2.016  -2.119   1.925  0.00  0.00    +0.001 A 
ATOM     15  C   UNL     1       3.163  -2.835   1.608  0.00  0.00    +0.002 A 
ATOM     16  C   UNL     1       3.102  -3.923   0.766  0.00  0.00    +0.026 A 
ATOM     17  C   UNL     1       1.880  -4.311   0.226  0.00  0.00    +0.047 A 
ATOM     18  C   UNL     1       0.721  -3.583   0.549  0.00  0.00    +0.003 A 
ATOM     19  C   UNL     1       0.805  -2.486   1.409  0.00  0.00    +0.010 A 
ATOM     20  C   UNL     1      -0.379  -4.234  -0.166  0.00  0.00    -0.014 A 
ATOM     21  C   UNL     1       0.150  -5.264  -0.845  0.00  0.00    +0.087 A 
ATOM     22  N   UNL     1       1.498  -5.326  -0.623  0.00  0.00    -0.360 N 
ATOM     23  H   UNL     1       2.097  -5.986  -1.007  0.00  0.00    +0.165 HD
ENDBRANCH  13  20
ENDBRANCH   1  13
BRANCH   3  24
ATOM     24  C   UNL     1      -3.404  -1.739  -2.939  0.00  0.00    +0.204 C 
BRANCH  24  25
ATOM     25  C   UNL     1      -4.671  -0.958  -2.702  0.00  0.00    +0.019 A 
ATOM     26  C   UNL     1      -5.257  -0.024  -3.490  0.00  0.00    +0.013 A 
ATOM     27  C   UNL     1      -6.431   0.570  -3.065  0.00  0.00    +0.008 A 
ATOM     28  C   UNL     1      -6.962   0.199  -1.874  0.00  0.00    +0.045 A 
ATOM     29  S   UNL     1      -5.792  -1.028  -1.315  0.00  0.00    -0.099 S 
ENDBRANCH  24  25
BRANCH  24  30
ATOM     30  C   UNL     1      -3.500  -2.463  -4.257  0.00  0.00    +0.239 C 
ATOM     31  O   UNL     1      -3.423  -3.673  -4.292  0.00  0.00    -0.273 OA
ATOM     32  N   UNL     1      -3.670  -1.765  -5.398  0.00  0.00    -0.311 N 
ATOM     33  H   UNL     1      -3.731  -0.798  -5.370  0.00  0.00    +0.149 HD
BRANCH  32  34
ATOM     34  C   UNL     1      -3.763  -2.469  -6.680  0.00  0.00    +0.073 C 
ATOM     35  C   UNL     1      -2.356  -2.729  -7.222  0.00  0.00    +0.022 C 
ATOM     36  C   UNL     1      -2.453  -3.463  -8.560  0.00  0.00    +0.002 C 
ATOM     37  C   UNL     1      -3.233  -2.605  -9.558  0.00  0.00    +0.000 C 
ATOM     38  C   UNL     1      -4.640  -2.345  -9.016  0.00  0.00    +0.002 C 
ATOM     39  C   UNL     1      -4.543  -1.610  -7.677  0.00  0.00    +0.022 C 
ENDBRANCH  32  34
ENDBRANCH  24  30
ENDBRANCH   3  24
TORSDOF 7
