REMARK  Name = ZINC63315922
REMARK  11 active torsions:
REMARK  status: ('A' for Active; 'I' for Inactive)
REMARK    1  A    between atoms: C_1  and  C_2
REMARK    2  A    between atoms: C_2  and  C_3
REMARK    3  A    between atoms: C_2  and  N_12
REMARK    4  A    between atoms: C_3  and  C_4
REMARK    5  A    between atoms: C_4  and  C_5
REMARK    6  A    between atoms: C_8  and  O_11
REMARK    7  A    between atoms: N_15  and  C_16
REMARK    8  A    between atoms: C_16  and  C_17
REMARK    9  A    between atoms: C_17  and  C_18
REMARK   10  A    between atoms: C_18  and  N_19
REMARK   11  A    between atoms: C_20  and  C_22
REMARK                            x       y       z     vdW  Elec       q    Type
REMARK                         _______ _______ _______ _____ _____    ______ ____
ROOT
ATOM      1  N   UNL     1       0.688  -0.476  -1.203  0.00  0.00    -0.297 N 
ATOM      2  C   UNL     1       0.006  -0.608  -2.358  0.00  0.00    +0.300 C 
ATOM      3  O   UNL     1      -1.178  -0.335  -2.400  0.00  0.00    -0.253 OA
ATOM      4  N   UNL     1       0.637  -1.043  -3.467  0.00  0.00    -0.299 N 
ATOM      5  H   UNL     1       1.632  -0.695  -1.170  0.00  0.00    +0.151 HD
ATOM      6  H   UNL     1       1.582  -1.261  -3.434  0.00  0.00    +0.150 HD
ENDROOT
BRANCH   1   8
ATOM      7  C   UNL     1      -0.019   1.526   0.010  0.00  0.00    +0.028 C 
ATOM      8  C   UNL     1       0.002  -0.004   0.002  0.00  0.00    +0.072 C 
BRANCH   8   9
ATOM      9  C   UNL     1       0.742  -0.511   1.242  0.00  0.00    +0.026 C 
BRANCH   9  10
ATOM     10  C   UNL     1       0.655  -2.037   1.299  0.00  0.00    +0.037 C 
BRANCH  10  11
ATOM     11  C   UNL     1       1.384  -2.537   2.519  0.00  0.00    -0.047 A 
ATOM     12  C   UNL     1       2.731  -2.841   2.443  0.00  0.00    +0.007 A 
ATOM     13  C   UNL     1       3.401  -3.299   3.561  0.00  0.00    +0.045 A 
ATOM     14  C   UNL     1       2.722  -3.453   4.761  0.00  0.00    +0.117 A 
ATOM     15  C   UNL     1       1.371  -3.147   4.835  0.00  0.00    +0.045 A 
ATOM     16  C   UNL     1       0.707  -2.684   3.716  0.00  0.00    +0.007 A 
BRANCH  14  17
ATOM     17  O   UNL     1       3.379  -3.905   5.861  0.00  0.00    -0.507 OA
ATOM     18  H   UNL     1       3.771  -3.204   6.401  0.00  0.00    +0.292 HD
ENDBRANCH  14  17
ENDBRANCH  10  11
ENDBRANCH   9  10
ENDBRANCH   8   9
ENDBRANCH   1   8
BRANCH   4  19
ATOM     19  C   UNL     1      -0.104  -1.186  -4.723  0.00  0.00    +0.107 C 
BRANCH  19  20
ATOM     20  C   UNL     1       0.839  -1.692  -5.817  0.00  0.00    +0.037 C 
BRANCH  20  21
ATOM     21  C   UNL     1       0.065  -1.841  -7.128  0.00  0.00    +0.106 C 
BRANCH  21  22
ATOM     22  N   UNL     1       0.968  -2.325  -8.175  0.00  0.00    -0.311 N 
ATOM     23  C   UNL     1       0.503  -2.532  -9.423  0.00  0.00    +0.247 C 
ATOM     24  O   UNL     1      -0.666  -2.317  -9.680  0.00  0.00    -0.270 OA
ATOM     25  H   UNL     1       1.901  -2.497  -7.971  0.00  0.00    +0.149 HD
BRANCH  23  26
ATOM     26  C   UNL     1       1.413  -3.020 -10.479  0.00  0.00    +0.072 A 
ATOM     27  C   UNL     1       2.755  -3.274 -10.187  0.00  0.00    +0.016 A 
ATOM     28  C   UNL     1       3.599  -3.730 -11.177  0.00  0.00    +0.001 A 
ATOM     29  C   UNL     1       3.121  -3.937 -12.460  0.00  0.00    +0.003 A 
ATOM     30  C   UNL     1       1.795  -3.688 -12.759  0.00  0.00    +0.039 A 
ATOM     31  C   UNL     1       0.934  -3.237 -11.775  0.00  0.00    +0.135 A 
ATOM     32  F   UNL     1      -0.363  -2.999 -12.066  0.00  0.00    -0.205 F 
ENDBRANCH  23  26
ENDBRANCH  21  22
ENDBRANCH  20  21
ENDBRANCH  19  20
ENDBRANCH   4  19
TORSDOF 10
