REMARK  Name = ZINC21251630
REMARK  8 active torsions:
REMARK  status: ('A' for Active; 'I' for Inactive)
REMARK    1  A    between atoms: C_1  and  O_2
REMARK    2  A    between atoms: O_2  and  C_3
REMARK    3  A    between atoms: C_6  and  O_37
REMARK    4  A    between atoms: C_7  and  C_9
REMARK    5  A    between atoms: C_14  and  C_24
REMARK    6  A    between atoms: C_27  and  O_33
REMARK    7  A    between atoms: C_28  and  N_30
REMARK    8  A    between atoms: O_37  and  C_38
REMARK                            x       y       z     vdW  Elec       q    Type
REMARK                         _______ _______ _______ _____ _____    ______ ____
ROOT
ATOM      1  C   UNL     1      -2.955   0.589  -4.237  0.00  0.00    +0.036 C 
ATOM      2  C   UNL     1      -3.295  -0.678  -3.454  0.00  0.00    +0.060 C 
ATOM      3  C   UNL     1      -2.874  -0.522  -2.003  0.00  0.00    +0.017 C 
ATOM      4  C   UNL     1      -2.898   0.685  -1.411  0.00  0.00    +0.036 C 
ATOM      5  C   UNL     1      -2.513   0.977   0.019  0.00  0.00    +0.136 C 
ATOM      6  N   UNL     1      -2.344  -0.198   0.846  0.00  0.00    -0.331 N 
ATOM      7  C   UNL     1      -1.331  -1.118   0.592  0.00  0.00    +0.049 A 
ATOM      8  C   UNL     1      -0.263  -1.279   1.460  0.00  0.00    +0.025 A 
ATOM      9  C   UNL     1       0.777  -2.123   1.108  0.00  0.00    +0.002 A 
ATOM     10  C   UNL     1       0.753  -2.800  -0.098  0.00  0.00    +0.002 A 
ATOM     11  C   UNL     1      -0.323  -2.657  -0.957  0.00  0.00    +0.025 A 
ATOM     12  C   UNL     1      -1.372  -1.829  -0.599  0.00  0.00    +0.052 A 
ATOM     13  N   UNL     1      -2.504  -1.676  -1.391  0.00  0.00    -0.316 N 
ATOM     14  C   UNL     1      -3.307   1.827  -2.139  0.00  0.00    +0.163 C 
ATOM     15  O   UNL     1      -3.337   2.903  -1.574  0.00  0.00    -0.292 OA
ATOM     16  C   UNL     1      -3.704   1.756  -3.583  0.00  0.00    +0.088 C 
ATOM     17  H   UNL     1      -3.022  -0.377   1.694  0.00  0.00    +0.147 HD
ATOM     18  H   UNL     1      -3.119  -2.581  -1.505  0.00  0.00    +0.152 HD
ENDROOT
BRANCH   1  23
ATOM     19  C   UNL     1      -5.125   0.044  -7.283  0.00  0.00    +0.121 A 
ATOM     20  C   UNL     1      -4.198   0.162  -8.308  0.00  0.00    +0.049 A 
ATOM     21  C   UNL     1      -2.873   0.418  -8.015  0.00  0.00    +0.049 A 
ATOM     22  C   UNL     1      -2.468   0.556  -6.696  0.00  0.00    +0.124 A 
ATOM     23  C   UNL     1      -3.394   0.439  -5.671  0.00  0.00    +0.002 A 
ATOM     24  C   UNL     1      -4.719   0.178  -5.963  0.00  0.00    +0.053 A 
BRANCH  19  26
ATOM     25  C   UNL     1      -6.775  -0.338  -8.951  0.00  0.00    +0.277 C 
ATOM     26  O   UNL     1      -6.429  -0.207  -7.571  0.00  0.00    -0.495 OA
ENDBRANCH  19  26
BRANCH  22  27
ATOM     27  O   UNL     1      -1.163   0.807  -6.407  0.00  0.00    -0.495 OA
ATOM     28  C   UNL     1      -0.264   0.916  -7.513  0.00  0.00    +0.277 C 
ENDBRANCH  22  27
ENDBRANCH   1  23
BRANCH   5  29
ATOM     29  C   UNL     1      -1.220   1.750   0.017  0.00  0.00    -0.020 A 
ATOM     30  C   UNL     1      -1.185   3.039   0.516  0.00  0.00    +0.009 A 
ATOM     31  C   UNL     1       0.000   3.748   0.521  0.00  0.00    +0.048 A 
ATOM     32  C   UNL     1       1.156   3.167   0.019  0.00  0.00    +0.147 A 
ATOM     33  C   UNL     1       1.118   1.876  -0.486  0.00  0.00    +0.168 A 
ATOM     34  C   UNL     1      -0.071   1.171  -0.488  0.00  0.00    +0.042 A 
BRANCH  33  35
ATOM     35  N   UNL     1       2.349   1.254  -1.022  0.00  0.00    +0.060 N 
ATOM     36  O   UNL     1       2.315   0.119  -1.465  0.00  0.00    -0.126 OA
ATOM     37  O   UNL     1       3.396   1.875  -1.020  0.00  0.00    -0.126 OA
ENDBRANCH  33  35
BRANCH  32  38
ATOM     38  O   UNL     1       2.324   3.862   0.023  0.00  0.00    -0.504 OA
ATOM     39  H   UNL     1       3.240   3.401  -0.375  0.00  0.00    +0.292 HD
ENDBRANCH  32  38
ENDBRANCH   5  29
TORSDOF 6
