REMARK  Name = ZINC16881070
REMARK  7 active torsions:
REMARK  status: ('A' for Active; 'I' for Inactive)
REMARK    1  A    between atoms: C_1  and  C_2
REMARK    2  A    between atoms: C_5  and  C_9
REMARK    3  A    between atoms: C_6  and  C_8
REMARK    4  A    between atoms: C_9  and  C_10
REMARK    5  A    between atoms: C_11  and  O_26
REMARK    6  A    between atoms: N_14  and  C_17
REMARK    7  A    between atoms: C_17  and  C_18
REMARK                            x       y       z     vdW  Elec       q    Type
REMARK                         _______ _______ _______ _____ _____    ______ ____
ROOT
ATOM      1  C   UNL     1       2.149   1.480   1.144  0.00  0.00    +0.083 A 
ATOM      2  C   UNL     1       1.536   0.368   1.694  0.00  0.00    +0.224 A 
ATOM      3  N   UNL     1       2.048  -0.200   2.789  0.00  0.00    -0.181 NA
ATOM      4  C   UNL     1       3.133   0.279   3.362  0.00  0.00    +0.199 A 
ATOM      5  N   UNL     1       3.774   1.370   2.863  0.00  0.00    -0.276 N 
ATOM      6  C   UNL     1       3.305   1.982   1.755  0.00  0.00    +0.263 A 
ATOM      7  O   UNL     1       3.877   2.958   1.296  0.00  0.00    -0.267 OA
ATOM      8  N   UNL     1       3.625  -0.333   4.484  0.00  0.00    -0.329 N 
ATOM      9  H   UNL     1       3.392  -1.255   4.675  0.00  0.00    +0.145 HD
ATOM     10  H   UNL     1       4.207   0.155   5.087  0.00  0.00    +0.145 HD
ENDROOT
BRANCH   2  11
ATOM     11  O   UNL     1       0.420  -0.143   1.123  0.00  0.00    -0.492 OA
ATOM     12  H   UNL     1       0.065  -0.919   1.579  0.00  0.00    +0.294 HD
ENDBRANCH   2  11
BRANCH   1  13
ATOM     13  C   UNL     1       1.588   2.136  -0.091  0.00  0.00    +0.081 C 
BRANCH  13  18
ATOM     14  C   UNL     1      -1.983   6.410   1.450  0.00  0.00    +0.044 C 
ATOM     15  C   UNL     1      -1.052   5.295   1.048  0.00  0.00    -0.050 A 
ATOM     16  C   UNL     1      -0.470   4.498   2.016  0.00  0.00    +0.003 A 
ATOM     17  C   UNL     1       0.389   3.479   1.648  0.00  0.00    +0.004 A 
ATOM     18  C   UNL     1       0.657   3.251   0.311  0.00  0.00    -0.040 A 
ATOM     19  C   UNL     1       0.071   4.044  -0.657  0.00  0.00    -0.047 A 
ATOM     20  C   UNL     1      -0.783   5.067  -0.288  0.00  0.00    +0.007 A 
ATOM     21  C   UNL     1       0.363   3.795  -2.114  0.00  0.00    +0.044 C 
ENDBRANCH  13  18
ENDBRANCH   1  13
BRANCH   5  22
ATOM     22  C   UNL     1       4.978   1.878   3.525  0.00  0.00    +0.164 C 
BRANCH  22  23
ATOM     23  C   UNL     1       6.196   1.469   2.736  0.00  0.00    -0.009 A 
ATOM     24  C   UNL     1       6.752   2.343   1.821  0.00  0.00    +0.007 A 
ATOM     25  C   UNL     1       7.868   1.968   1.097  0.00  0.00    +0.000 A 
ATOM     26  C   UNL     1       8.429   0.719   1.288  0.00  0.00    +0.001 A 
ATOM     27  C   UNL     1       7.873  -0.156   2.202  0.00  0.00    +0.020 A 
ATOM     28  C   UNL     1       6.759   0.221   2.930  0.00  0.00    +0.046 A 
ATOM     29 CL   UNL     1       6.065  -0.875   4.084  0.00  0.00    -0.083 Cl
ENDBRANCH  22  23
ENDBRANCH   5  22
TORSDOF 5
