REMARK  Name = ZINC05649067
REMARK  14 active torsions:
REMARK  status: ('A' for Active; 'I' for Inactive)
REMARK    1  A    between atoms: C_1  and  C_2
REMARK    2  A    between atoms: C_2  and  C_3
REMARK    3  A    between atoms: C_2  and  C_4
REMARK    4  A    between atoms: C_8  and  O_12
REMARK    5  A    between atoms: C_9  and  O_10
REMARK    6  A    between atoms: O_10  and  C_11
REMARK    7  A    between atoms: O_12  and  C_13
REMARK    8  A    between atoms: C_18  and  C_34
REMARK    9  A    between atoms: C_18  and  C_35
REMARK   10  A    between atoms: C_23  and  N_25
REMARK   11  A    between atoms: C_26  and  C_28
REMARK   12  A    between atoms: C_28  and  N_71
REMARK   13  A    between atoms: C_29  and  N_71
REMARK   14  A    between atoms: C_30  and  N_71
REMARK                            x       y       z     vdW  Elec       q    Type
REMARK                         _______ _______ _______ _____ _____    ______ ____
ROOT
ATOM      1  C   UNL     1      -1.130  -3.945  -3.996  0.00  0.00    +0.001 A 
ATOM      2  C   UNL     1      -1.316  -3.834  -2.633  0.00  0.00    +0.013 A 
ATOM      3  C   UNL     1      -2.376  -4.474  -2.014  0.00  0.00    -0.015 A 
ATOM      4  C   UNL     1      -3.261  -5.248  -2.753  0.00  0.00    +0.020 A 
ATOM      5  C   UNL     1      -3.092  -5.333  -4.123  0.00  0.00    +0.166 A 
ATOM      6  C   UNL     1      -2.019  -4.692  -4.746  0.00  0.00    +0.165 A 
ATOM      7  C   UNL     1      -4.395  -5.930  -2.040  0.00  0.00    +0.103 C 
ATOM      8  C   UNL     1      -4.985  -7.112  -2.761  0.00  0.00    +0.023 C 
ATOM      9  C   UNL     1      -3.890  -8.182  -2.885  0.00  0.00    +0.002 C 
ATOM     10  C   UNL     1      -3.450  -8.656  -1.504  0.00  0.00    +0.007 C 
ATOM     11  C   UNL     1      -2.936  -7.486  -0.635  0.00  0.00    -0.027 C 
ATOM     12  C   UNL     1      -3.967  -6.408  -0.632  0.00  0.00    +0.059 C 
ATOM     13  C   UNL     1      -3.756  -5.040   0.005  0.00  0.00    +0.206 C 
ATOM     14  C   UNL     1      -2.533  -4.313  -0.525  0.00  0.00    +0.144 C 
ATOM     15  O   UNL     1      -4.968  -4.331  -0.460  0.00  0.00    -0.458 OA
ATOM     16  C   UNL     1      -5.366  -4.829  -1.659  0.00  0.00    +0.319 C 
ATOM     17  O   UNL     1      -6.315  -4.474  -2.315  0.00  0.00    -0.250 OA
ATOM     18  C   UNL     1      -1.545  -7.093  -1.118  0.00  0.00    +0.011 C 
ATOM     19  C   UNL     1      -2.789  -8.030   0.809  0.00  0.00    +0.011 C 
ENDROOT
BRANCH  14  20
ATOM     20  N   UNL     1      -2.670  -2.879  -0.224  0.00  0.00    -0.306 N 
ATOM     21  C   UNL     1      -1.572  -2.105  -0.118  0.00  0.00    +0.197 C 
ATOM     22  O   UNL     1      -0.470  -2.590  -0.269  0.00  0.00    -0.278 OA
ATOM     23  H   UNL     1      -3.550  -2.491  -0.103  0.00  0.00    +0.149 HD
BRANCH  21  24
ATOM     24  C   UNL     1      -1.712  -0.637   0.190  0.00  0.00    +0.018 C 
BRANCH  24  27
ATOM     25  C   UNL     1      -0.481   1.444   0.315  0.00  0.00    -0.096 C 
ATOM     26  C   UNL     1       0.389  -0.543   1.391  0.00  0.00    -0.096 C 
ATOM     27  N   UNL     1      -0.366  -0.027   0.230  0.00  0.00    +0.382 N 
ATOM     28  H   UNL     1       0.136  -0.273  -0.631  0.00  0.00    -0.082 HD
ENDBRANCH  24  27
ENDBRANCH  21  24
ENDBRANCH  14  20
BRANCH   1  30
ATOM     29  C   UNL     1      -0.064  -1.748  -4.426  0.00  0.00    +0.012 C 
ATOM     30  C   UNL     1       0.034  -3.257  -4.661  0.00  0.00    +0.017 C 
ATOM     31  C   UNL     1       1.343  -3.782  -4.068  0.00  0.00    +0.012 C 
ENDBRANCH   1  30
BRANCH   6  32
ATOM     32  O   UNL     1      -1.859  -4.800  -6.093  0.00  0.00    -0.491 OA
ATOM     33  C   UNL     1      -2.377  -3.737  -6.895  0.00  0.00    +0.277 C 
ENDBRANCH   6  32
BRANCH   5  34
ATOM     34  O   UNL     1      -3.951  -6.024  -4.920  0.00  0.00    -0.491 OA
ATOM     35  C   UNL     1      -5.106  -5.325  -5.387  0.00  0.00    +0.277 C 
ENDBRANCH   5  34
TORSDOF 6
