REMARK  Name = ZINC41797932
REMARK  13 active torsions:
REMARK  status: ('A' for Active; 'I' for Inactive)
REMARK    1  A    between atoms: C_1  and  C_2
REMARK    2  A    between atoms: C_2  and  C_3
REMARK    3  A    between atoms: C_2  and  C_4
REMARK    4  A    between atoms: C_2  and  C_5
REMARK    5  A    between atoms: N_13  and  C_17
REMARK    6  A    between atoms: C_17  and  C_18
REMARK    7  A    between atoms: N_20  and  C_21
REMARK    8  A    between atoms: C_21  and  C_22
REMARK    9  A    between atoms: C_22  and  C_23
REMARK   10  A    between atoms: C_22  and  C_24
REMARK   11  A    between atoms: C_22  and  N_25
REMARK   12  A    between atoms: N_25  and  C_26
REMARK   13  A    between atoms: N_25  and  C_27
REMARK                            x       y       z     vdW  Elec       q    Type
REMARK                         _______ _______ _______ _____ _____    ______ ____
ROOT
ATOM      1  C   UNL     1       0.514  -0.554  -0.307  0.00  0.00    -0.005 C 
ATOM      2  C   UNL     1       0.586  -2.067  -0.522  0.00  0.00    +0.006 C 
ATOM      3  C   UNL     1       1.334  -2.361  -1.825  0.00  0.00    +0.035 C 
ATOM      4  C   UNL     1       2.739  -1.774  -1.752  0.00  0.00    +0.113 C 
ATOM      5  C   UNL     1       2.684  -0.269  -1.512  0.00  0.00    +0.035 C 
ATOM      6  C   UNL     1       1.931   0.016  -0.210  0.00  0.00    +0.006 C 
ATOM      7  C   UNL     1       3.538  -2.454  -0.664  0.00  0.00    +0.247 C 
ATOM      8  O   UNL     1       3.293  -2.473   0.523  0.00  0.00    -0.273 OA
ATOM      9  N   UNL     1       4.582  -3.033  -1.292  0.00  0.00    -0.215 N 
ATOM     10  C   UNL     1       4.548  -2.813  -2.612  0.00  0.00    +0.310 C 
ATOM     11  O   UNL     1       5.381  -3.234  -3.390  0.00  0.00    -0.252 OA
ATOM     12  N   UNL     1       3.486  -2.071  -2.981  0.00  0.00    -0.285 N 
ATOM     13  H   UNL     1       3.258  -1.790  -3.881  0.00  0.00    +0.151 HD
ENDROOT
BRANCH   1  15
ATOM     14  C   UNL     1      -0.316   1.254   1.204  0.00  0.00    +0.011 C 
ATOM     15  C   UNL     1      -0.244  -0.259   0.989  0.00  0.00    -0.035 C 
ATOM     16  C   UNL     1       0.487  -0.907   2.166  0.00  0.00    +0.011 C 
ATOM     17  C   UNL     1      -1.661  -0.828   0.892  0.00  0.00    +0.011 C 
ENDBRANCH   1  15
BRANCH   9  18
ATOM     18  C   UNL     1       5.625  -3.807  -0.614  0.00  0.00    +0.213 C 
BRANCH  18  19
ATOM     19  C   UNL     1       5.218  -5.257  -0.558  0.00  0.00    +0.231 C 
ATOM     20  O   UNL     1       4.161  -5.609  -1.038  0.00  0.00    -0.274 OA
ATOM     21  N   UNL     1       6.028  -6.163   0.025  0.00  0.00    -0.315 N 
ATOM     22  H   UNL     1       6.873  -5.881   0.409  0.00  0.00    +0.149 HD
BRANCH  21  23
ATOM     23  C   UNL     1       5.633  -7.572   0.079  0.00  0.00    +0.092 C 
BRANCH  23  24
ATOM     24  C   UNL     1       6.776  -8.401   0.668  0.00  0.00    -0.056 C 
ATOM     25  C   UNL     1       7.000  -7.995   2.127  0.00  0.00    -0.008 C 
ATOM     26  C   UNL     1       6.417  -9.886   0.602  0.00  0.00    -0.008 C 
BRANCH  24  27
ATOM     27  N   UNL     1       8.003  -8.159  -0.101  0.00  0.00    +0.380 N 
ATOM     28  C   UNL     1       9.100  -8.957   0.462  0.00  0.00    -0.096 C 
ATOM     29  C   UNL     1       7.787  -8.544  -1.502  0.00  0.00    -0.096 C 
ATOM     30  H   UNL     1       8.242  -7.179  -0.055  0.00  0.00    -0.082 HD
ENDBRANCH  24  27
ENDBRANCH  23  24
ENDBRANCH  21  23
ENDBRANCH  18  19
ENDBRANCH   9  18
TORSDOF 6
