REMARK  Name = ZINC35813974
REMARK  9 active torsions:
REMARK  status: ('A' for Active; 'I' for Inactive)
REMARK    1  A    between atoms: C_1  and  C_2
REMARK    2  A    between atoms: C_2  and  C_3
REMARK    3  A    between atoms: C_3  and  C_4
REMARK    4  A    between atoms: C_4  and  N_5
REMARK    5  A    between atoms: C_10  and  C_23
REMARK    6  A    between atoms: C_14  and  C_16
REMARK    7  A    between atoms: N_25  and  C_26
REMARK    8  A    between atoms: C_26  and  C_27
REMARK    9  A    between atoms: C_27  and  N_28
REMARK                            x       y       z     vdW  Elec       q    Type
REMARK                         _______ _______ _______ _____ _____    ______ ____
ROOT
ATOM      1  N   UNL     1      -2.765  -3.027   1.874  0.00  0.00    -0.299 N 
ATOM      2  C   UNL     1      -2.995  -4.190   1.235  0.00  0.00    +0.303 C 
ATOM      3  O   UNL     1      -2.078  -4.961   1.025  0.00  0.00    -0.253 OA
ATOM      4  N   UNL     1      -4.242  -4.500   0.828  0.00  0.00    -0.278 N 
ATOM      5  C   UNL     1      -5.338  -3.532   0.971  0.00  0.00    +0.122 C 
ATOM      6  C   UNL     1      -6.012  -3.345  -0.392  0.00  0.00    +0.092 C 
ATOM      7  C   UNL     1      -6.445  -4.709  -0.934  0.00  0.00    +0.016 C 
ATOM      8  C   UNL     1      -5.214  -5.599  -1.122  0.00  0.00    +0.028 C 
ATOM      9  C   UNL     1      -4.530  -5.810   0.227  0.00  0.00    +0.108 C 
ATOM     10  H   UNL     1      -3.480  -2.380   1.978  0.00  0.00    +0.150 HD
ENDROOT
BRANCH   9  11
ATOM     11  C   UNL     1      -3.243  -6.567   0.026  0.00  0.00    -0.027 A 
ATOM     12  C   UNL     1      -2.293  -6.092  -0.859  0.00  0.00    +0.008 A 
ATOM     13  C   UNL     1      -1.112  -6.785  -1.044  0.00  0.00    +0.038 A 
ATOM     14  C   UNL     1      -0.880  -7.957  -0.343  0.00  0.00    +0.123 A 
ATOM     15  C   UNL     1      -1.832  -8.431   0.544  0.00  0.00    +0.038 A 
ATOM     16  C   UNL     1      -3.010  -7.733   0.731  0.00  0.00    +0.008 A 
ATOM     17  F   UNL     1       0.274  -8.636  -0.523  0.00  0.00    -0.205 F 
ENDBRANCH   9  11
BRANCH   6  18
ATOM     18  C   UNL     1      -5.039  -2.707  -1.350  0.00  0.00    +0.218 C 
ATOM     19  O   UNL     1      -4.725  -3.285  -2.369  0.00  0.00    -0.275 OA
ATOM     20  N   UNL     1      -4.519  -1.495  -1.075  0.00  0.00    -0.317 N 
ATOM     21  H   UNL     1      -4.771  -1.032  -0.261  0.00  0.00    +0.149 HD
BRANCH  20  22
ATOM     22  C   UNL     1      -3.574  -0.875  -2.007  0.00  0.00    +0.085 C 
BRANCH  22  23
ATOM     23  C   UNL     1      -3.139   0.487  -1.462  0.00  0.00    -0.060 C 
BRANCH  23  24
ATOM     24  N   UNL     1      -2.191   1.108  -2.396  0.00  0.00    +0.381 N 
ATOM     25  C   UNL     1      -2.885   1.487  -3.654  0.00  0.00    -0.079 C 
ATOM     26  C   UNL     1      -1.963   2.579  -4.252  0.00  0.00    -0.020 C 
ATOM     27  C   UNL     1      -1.485   3.351  -3.001  0.00  0.00    -0.020 C 
ATOM     28  C   UNL     1      -1.669   2.370  -1.829  0.00  0.00    -0.079 C 
ATOM     29  H   UNL     1      -1.431   0.475  -2.594  0.00  0.00    -0.082 HD
ENDBRANCH  23  24
ENDBRANCH  22  23
ENDBRANCH  20  22
ENDBRANCH   6  18
BRANCH   1  30
ATOM     30  C   UNL     1      -1.433  -2.738   2.413  0.00  0.00    +0.106 C 
BRANCH  30  31
ATOM     31  C   UNL     1      -1.441  -1.363   3.085  0.00  0.00    +0.018 C 
BRANCH  31  33
ATOM     32  C   UNL     1      -0.059   0.312   4.319  0.00  0.00    +0.004 C 
ATOM     33  C   UNL     1      -0.051  -1.062   3.647  0.00  0.00    -0.002 C 
ENDBRANCH  31  33
ENDBRANCH  30  31
ENDBRANCH   1  30
TORSDOF 8
