REMARK  Name = ZINC09911295
REMARK  9 active torsions:
REMARK  status: ('A' for Active; 'I' for Inactive)
REMARK    1  A    between atoms: C_4  and  C_7
REMARK    2  A    between atoms: C_7  and  N_61
REMARK    3  A    between atoms: C_13  and  N_18
REMARK    4  A    between atoms: C_14  and  C_15
REMARK    5  A    between atoms: C_19  and  C_21
REMARK    6  A    between atoms: C_21  and  C_22
REMARK    7  A    between atoms: C_22  and  C_23
REMARK    8  A    between atoms: C_23  and  S_24
REMARK    9  A    between atoms: S_24  and  C_27
REMARK                            x       y       z     vdW  Elec       q    Type
REMARK                         _______ _______ _______ _____ _____    ______ ____
ROOT
ATOM      1  C   UNL     1      -0.233 -10.465   6.344  0.00  0.00    -0.073 C 
ATOM      2  C   UNL     1       0.191  -9.102   6.897  0.00  0.00    +0.018 C 
ATOM      3  C   UNL     1       0.168  -8.096   5.752  0.00  0.00    -0.027 A 
ATOM      4  C   UNL     1       0.162  -8.528   4.470  0.00  0.00    -0.021 A 
ATOM      5  S   UNL     1       0.132  -7.051   3.497  0.00  0.00    -0.079 S 
ATOM      6  C   UNL     1       0.127  -5.877   4.772  0.00  0.00    +0.084 A 
ATOM      7  C   UNL     1       0.154  -6.656   5.921  0.00  0.00    +0.068 A 
ATOM      8  C   UNL     1       0.181  -9.953   4.013  0.00  0.00    -0.035 C 
ATOM      9  N   UNL     1       0.592 -10.793   5.163  0.00  0.00    +0.386 N 
ATOM     10  H   UNL     1       1.577 -10.604   5.381  0.00  0.00    -0.081 HD
ENDROOT
BRANCH   7  11
ATOM     11  C   UNL     1       0.166  -6.045   7.254  0.00  0.00    +0.244 C 
ATOM     12  O   UNL     1      -0.883  -5.806   7.823  0.00  0.00    -0.270 OA
ATOM     13  N   UNL     1       1.338  -5.749   7.850  0.00  0.00    -0.325 N 
ATOM     14  H   UNL     1       2.174  -5.939   7.396  0.00  0.00    +0.145 HD
ATOM     15  H   UNL     1       1.346  -5.345   8.732  0.00  0.00    +0.145 HD
ENDBRANCH   7  11
BRANCH   6  16
ATOM     16  N   UNL     1       0.107  -4.494   4.669  0.00  0.00    -0.279 N 
ATOM     17  C   UNL     1       0.088  -3.909   3.455  0.00  0.00    +0.218 C 
ATOM     18  O   UNL     1       0.088  -4.592   2.452  0.00  0.00    -0.275 OA
ATOM     19  H   UNL     1       0.108  -3.948   5.470  0.00  0.00    +0.155 HD
BRANCH  17  20
ATOM     20  C   UNL     1       0.066  -2.406   3.343  0.00  0.00    +0.098 C 
BRANCH  20  21
ATOM     21  C   UNL     1       0.047  -2.005   1.866  0.00  0.00    +0.032 C 
BRANCH  21  22
ATOM     22  C   UNL     1       0.025  -0.480   1.752  0.00  0.00    +0.172 C 
BRANCH  22  23
ATOM     23  S   UNL     1       0.002  -0.004   0.002  0.00  0.00    -0.003 S 
ATOM     24  O   UNL     1      -1.233  -0.380  -0.591  0.00  0.00    -0.169 OA
ATOM     25  O   UNL     1       1.236  -0.347  -0.615  0.00  0.00    -0.169 OA
BRANCH  23  26
ATOM     26  C   UNL     1      -0.022   1.758   0.012  0.00  0.00    +0.088 A 
ATOM     27  C   UNL     1      -1.228   2.433   0.021  0.00  0.00    +0.027 A 
ATOM     28  C   UNL     1      -1.247   3.815   0.034  0.00  0.00    +0.002 A 
ATOM     29  C   UNL     1      -0.059   4.522   0.026  0.00  0.00    +0.000 A 
ATOM     30  C   UNL     1       1.147   3.847   0.011  0.00  0.00    +0.002 A 
ATOM     31  C   UNL     1       1.166   2.465   0.004  0.00  0.00    +0.027 A 
ENDBRANCH  23  26
ENDBRANCH  22  23
ENDBRANCH  21  22
ENDBRANCH  20  21
ENDBRANCH  17  20
ENDBRANCH   6  16
BRANCH   9  32
ATOM     32  C   UNL     1       0.442 -12.225   4.823  0.00  0.00    -0.043 C 
BRANCH  32  36
ATOM     33  C   UNL     1       3.309 -13.240   1.824  0.00  0.00    +0.000 A 
ATOM     34  C   UNL     1       3.641 -13.345   3.162  0.00  0.00    +0.000 A 
ATOM     35  C   UNL     1       2.714 -13.016   4.132  0.00  0.00    +0.002 A 
ATOM     36  C   UNL     1       1.453 -12.583   3.765  0.00  0.00    -0.064 A 
ATOM     37  C   UNL     1       1.119 -12.483   2.427  0.00  0.00    +0.002 A 
ATOM     38  C   UNL     1       2.049 -12.807   1.457  0.00  0.00    +0.000 A 
ENDBRANCH  32  36
ENDBRANCH   9  32
TORSDOF 9
