REMARK  Name = ZINC38684901
REMARK  12 active torsions:
REMARK  status: ('A' for Active; 'I' for Inactive)
REMARK    1  A    between atoms: C_1  and  C_2
REMARK    2  A    between atoms: C_2  and  O_3
REMARK    3  A    between atoms: O_3  and  C_4
REMARK    4  A    between atoms: C_8  and  C_10
REMARK    5  A    between atoms: C_15  and  O_24
REMARK    6  A    between atoms: C_19  and  N_23
REMARK    7  A    between atoms: C_20  and  C_21
REMARK    8  A    between atoms: O_24  and  C_25
REMARK    9  A    between atoms: C_25  and  C_27
REMARK   10  A    between atoms: C_27  and  O_28
REMARK   11  A    between atoms: O_28  and  C_29
REMARK   12  A    between atoms: C_33  and  C_35
REMARK                            x       y       z     vdW  Elec       q    Type
REMARK                         _______ _______ _______ _____ _____    ______ ____
ROOT
ATOM      1  C   UNL     1       2.183  -4.306  -3.813  0.00  0.00    +0.098 C 
ATOM      2  C   UNL     1       3.370  -5.122  -3.374  0.00  0.00    +0.008 A 
ATOM      3  C   UNL     1       4.553  -4.482  -3.048  0.00  0.00    +0.012 A 
ATOM      4  C   UNL     1       5.652  -5.214  -2.643  0.00  0.00    +0.047 A 
ATOM      5  C   UNL     1       5.572  -6.597  -2.563  0.00  0.00    +0.135 A 
ATOM      6  C   UNL     1       4.390  -7.241  -2.889  0.00  0.00    +0.093 A 
ATOM      7  C   UNL     1       3.285  -6.503  -3.295  0.00  0.00    +0.138 A 
ATOM      8  O   UNL     1       2.136  -7.149  -3.611  0.00  0.00    -0.441 OA
ATOM      9  C   UNL     1       1.205  -6.532  -4.358  0.00  0.00    +0.199 C 
ATOM     10  C   UNL     1       1.173  -5.188  -4.492  0.00  0.00    +0.098 C 
ENDROOT
BRANCH   1  15
ATOM     11  C   UNL     1       0.885  -1.685  -1.421  0.00  0.00    +0.121 A 
ATOM     12  C   UNL     1       0.387  -2.473  -0.394  0.00  0.00    +0.045 A 
ATOM     13  C   UNL     1       0.472  -3.849  -0.478  0.00  0.00    +0.004 A 
ATOM     14  C   UNL     1       1.053  -4.441  -1.584  0.00  0.00    +0.005 A 
ATOM     15  C   UNL     1       1.550  -3.658  -2.609  0.00  0.00    -0.031 A 
ATOM     16  C   UNL     1       1.463  -2.281  -2.533  0.00  0.00    +0.050 A 
BRANCH  11  17
ATOM     17  O   UNL     1       0.802  -0.331  -1.342  0.00  0.00    -0.492 OA
BRANCH  17  19
ATOM     18  C   UNL     1       0.192   1.742  -0.258  0.00  0.00    +0.048 C 
ATOM     19  C   UNL     1       0.195   0.214  -0.168  0.00  0.00    +0.225 C 
ENDBRANCH  17  19
ENDBRANCH  11  17
ENDBRANCH   1  15
BRANCH   9  20
ATOM     20  N   UNL     1       0.258  -7.289  -5.002  0.00  0.00    -0.328 N 
ATOM     21  H   UNL     1       0.268  -8.255  -4.914  0.00  0.00    +0.145 HD
ATOM     22  H   UNL     1      -0.421  -6.859  -5.545  0.00  0.00    +0.145 HD
ENDBRANCH   9  20
BRANCH  10  23
ATOM     23  C   UNL     1       0.153  -4.592  -5.301  0.00  0.00    +0.101 C 
ATOM     24  N   UNL     1      -0.656  -4.120  -5.943  0.00  0.00    -0.191 NA
ENDBRANCH  10  23
BRANCH   5  25
ATOM     25  O   UNL     1       6.653  -7.319  -2.165  0.00  0.00    -0.423 OA
BRANCH  25  26
ATOM     26  C   UNL     1       7.268  -8.089  -3.078  0.00  0.00    +0.350 C 
ATOM     27  O   UNL     1       6.922  -8.046  -4.235  0.00  0.00    -0.247 OA
BRANCH  26  28
ATOM     28  C   UNL     1       8.388  -9.006  -2.659  0.00  0.00    +0.349 C 
BRANCH  28  29
ATOM     29  O   UNL     1       8.875  -9.714  -3.800  0.00  0.00    -0.481 OA
BRANCH  29  30
ATOM     30  C   UNL     1       9.894 -10.589  -3.594  0.00  0.00    +0.122 A 
ATOM     31  C   UNL     1      10.410 -10.767  -2.318  0.00  0.00    +0.045 A 
ATOM     32  C   UNL     1      11.446 -11.657  -2.111  0.00  0.00    +0.004 A 
ATOM     33  C   UNL     1      11.968 -12.372  -3.174  0.00  0.00    +0.003 A 
ATOM     34  C   UNL     1      11.456 -12.196  -4.446  0.00  0.00    -0.047 A 
ATOM     35  C   UNL     1      10.416 -11.311  -4.657  0.00  0.00    +0.049 A 
ATOM     36  C   UNL     1      12.028 -12.976  -5.602  0.00  0.00    +0.044 C 
ENDBRANCH  29  30
ENDBRANCH  28  29
ENDBRANCH  26  28
ENDBRANCH  25  26
ENDBRANCH   5  25
TORSDOF 10
