REMARK  Name = ZINC01295639
REMARK  10 active torsions:
REMARK  status: ('A' for Active; 'I' for Inactive)
REMARK    1  A    between atoms: C_1  and  C_2
REMARK    2  A    between atoms: C_2  and  N_71
REMARK    3  A    between atoms: C_3  and  C_4
REMARK    4  A    between atoms: C_3  and  N_71
REMARK    5  A    between atoms: C_5  and  C_6
REMARK    6  A    between atoms: C_5  and  N_71
REMARK    7  A    between atoms: C_6  and  C_8
REMARK    8  A    between atoms: C_6  and  O_31
REMARK    9  A    between atoms: C_8  and  N_73
REMARK   10  A    between atoms: C_15  and  C_25
REMARK                            x       y       z     vdW  Elec       q    Type
REMARK                         _______ _______ _______ _____ _____    ______ ____
ROOT
ATOM      1  C   UNL     1       0.293   0.671  -0.065  0.00  0.00    -0.056 C 
ATOM      2  C   UNL     1      -0.240   0.833   1.364  0.00  0.00    +0.103 C 
ATOM      3  N   UNL     1      -0.651   2.241   1.550  0.00  0.00    -0.347 N 
ATOM      4  C   UNL     1      -0.916   2.939   2.690  0.00  0.00    +0.049 A 
ATOM      5  C   UNL     1      -0.873   2.578   4.035  0.00  0.00    +0.027 A 
ATOM      6  C   UNL     1      -1.214   3.547   4.961  0.00  0.00    +0.006 A 
ATOM      7  C   UNL     1      -1.586   4.827   4.587  0.00  0.00    -0.044 A 
ATOM      8  C   UNL     1      -1.638   5.216   3.272  0.00  0.00    +0.014 A 
ATOM      9  C   UNL     1      -1.297   4.260   2.309  0.00  0.00    +0.003 A 
ATOM     10  C   UNL     1      -1.234   4.294   0.873  0.00  0.00    -0.020 A 
ATOM     11  C   UNL     1      -0.798   3.075   0.481  0.00  0.00    +0.009 A 
ATOM     12  C   UNL     1      -0.607   2.730  -0.978  0.00  0.00    -0.020 C 
ATOM     13  C   UNL     1      -1.760   3.321  -1.773  0.00  0.00    -0.009 C 
ATOM     14  C   UNL     1      -2.240   4.686  -1.345  0.00  0.00    +0.003 C 
ATOM     15  C   UNL     1      -1.522   5.336  -0.172  0.00  0.00    +0.037 C 
ATOM     16  N   UNL     1      -0.656   1.246  -1.040  0.00  0.00    +0.388 N 
ATOM     17  H   UNL     1      -1.606   0.934  -0.807  0.00  0.00    -0.081 HD
ENDROOT
BRANCH   7  18
ATOM     18  C   UNL     1      -1.946   5.825   5.657  0.00  0.00    +0.019 C 
ATOM     19  C   UNL     1      -0.748   6.030   6.586  0.00  0.00    +0.008 C 
ATOM     20  C   UNL     1      -1.113   7.044   7.673  0.00  0.00    +0.001 C 
ATOM     21  C   UNL     1      -2.301   6.519   8.481  0.00  0.00    +0.000 C 
ATOM     22  C   UNL     1      -3.499   6.314   7.552  0.00  0.00    +0.001 C 
ATOM     23  C   UNL     1      -3.134   5.301   6.465  0.00  0.00    +0.008 C 
ENDBRANCH   7  18
BRANCH  16  24
ATOM     24  C   UNL     1      -0.321   0.786  -2.405  0.00  0.00    -0.048 C 
BRANCH  24  25
ATOM     25  C   UNL     1       1.077   1.262  -2.802  0.00  0.00    +0.082 C 
BRANCH  25  26
ATOM     26  O   UNL     1       1.069   2.681  -2.966  0.00  0.00    -0.395 OA
ATOM     27  H   UNL     1       0.458   2.995  -3.646  0.00  0.00    +0.210 HD
ENDBRANCH  25  26
BRANCH  25  28
ATOM     28  C   UNL     1       1.487   0.599  -4.118  0.00  0.00    -0.049 C 
BRANCH  28  29
ATOM     29  N   UNL     1       2.877   0.989  -4.437  0.00  0.00    +0.381 N 
ATOM     30  H   UNL     1       2.954   2.012  -4.391  0.00  0.00    -0.082 HD
BRANCH  29  32
ATOM     31  C   UNL     1       3.749  -1.135  -3.522  0.00  0.00    -0.017 C 
ATOM     32  C   UNL     1       3.807   0.393  -3.456  0.00  0.00    -0.082 C 
ENDBRANCH  29  32
BRANCH  29  33
ATOM     33  C   UNL     1       3.227   0.542  -5.802  0.00  0.00    -0.082 C 
ATOM     34  C   UNL     1       4.507   1.256  -6.239  0.00  0.00    -0.017 C 
ENDBRANCH  29  33
ENDBRANCH  28  29
ENDBRANCH  25  28
ENDBRANCH  24  25
ENDBRANCH  16  24
TORSDOF 8
