REMARK  Name = ZINC08915371
REMARK  8 active torsions:
REMARK  status: ('A' for Active; 'I' for Inactive)
REMARK    1  A    between atoms: C_1  and  O_2
REMARK    2  A    between atoms: O_2  and  C_3
REMARK    3  A    between atoms: C_3  and  C_5
REMARK    4  A    between atoms: C_8  and  C_11
REMARK    5  A    between atoms: C_13  and  C_25
REMARK    6  A    between atoms: C_15  and  C_20
REMARK    7  A    between atoms: C_17  and  O_19
REMARK    8  A    between atoms: C_25  and  C_27
REMARK                            x       y       z     vdW  Elec       q    Type
REMARK                         _______ _______ _______ _____ _____    ______ ____
ROOT
ATOM      1  C   UNL     1      -1.157  -6.304  -0.176  0.00  0.00    +0.120 C 
ATOM      2  C   UNL     1      -1.615  -6.915  -1.509  0.00  0.00    +0.149 C 
ATOM      3  C   UNL     1      -1.952  -8.389  -1.274  0.00  0.00    +0.284 C 
ATOM      4  N   UNL     1      -2.828  -8.537  -0.118  0.00  0.00    -0.306 N 
ATOM      5  C   UNL     1      -2.950  -7.648   0.808  0.00  0.00    +0.256 C 
ATOM      6  N   UNL     1      -2.262  -6.460   0.783  0.00  0.00    -0.293 N 
ATOM      7  O   UNL     1      -0.744  -9.118  -1.046  0.00  0.00    -0.194 OA
ATOM      8  H   UNL     1      -2.500  -5.737   1.384  0.00  0.00    +0.151 HD
ATOM      9  H   UNL     1      -3.350  -9.352  -0.042  0.00  0.00    +0.167 HD
ENDROOT
BRANCH   1  13
ATOM     10  C   UNL     1      -0.267  -2.155  -0.708  0.00  0.00    +0.059 A 
ATOM     11  C   UNL     1       0.762  -3.099  -0.712  0.00  0.00    +0.015 A 
ATOM     12  C   UNL     1       0.468  -4.436  -0.539  0.00  0.00    +0.006 A 
ATOM     13  C   UNL     1      -0.844  -4.842  -0.363  0.00  0.00    -0.026 A 
ATOM     14  C   UNL     1      -1.868  -3.912  -0.358  0.00  0.00    +0.006 A 
ATOM     15  C   UNL     1      -1.587  -2.571  -0.523  0.00  0.00    +0.015 A 
BRANCH  10  16
ATOM     16  C   UNL     1       0.040  -0.722  -0.891  0.00  0.00    +0.339 C 
ATOM     17  O   UNL     1      -0.856   0.098  -0.882  0.00  0.00    -0.245 OA
BRANCH  16  19
ATOM     18  C   UNL     1       1.539   1.077  -1.240  0.00  0.00    +0.280 C 
ATOM     19  O   UNL     1       1.315  -0.324  -1.069  0.00  0.00    -0.464 OA
ENDBRANCH  16  19
ENDBRANCH  10  16
ENDBRANCH   1  13
BRANCH   3  20
ATOM     20  C   UNL     1      -2.652  -8.950  -2.514  0.00  0.00    +0.441 C 
ATOM     21  F   UNL     1      -1.858  -8.721  -3.642  0.00  0.00    -0.166 F 
ATOM     22  F   UNL     1      -2.851 -10.326  -2.354  0.00  0.00    -0.166 F 
ATOM     23  F   UNL     1      -3.889  -8.316  -2.677  0.00  0.00    -0.166 F 
ENDBRANCH   3  20
BRANCH   5  24
ATOM     24  O   UNL     1      -3.784  -7.895   1.842  0.00  0.00    -0.483 OA
ATOM     25  H   UNL     1      -4.232  -8.751   1.791  0.00  0.00    +0.295 HD
ENDBRANCH   5  24
BRANCH   2  26
ATOM     26  C   UNL     1      -2.837  -6.188  -2.007  0.00  0.00    +0.173 C 
ATOM     27  O   UNL     1      -3.841  -6.151  -1.327  0.00  0.00    -0.292 OA
BRANCH  26  28
ATOM     28  C   UNL     1      -2.813  -5.522  -3.318  0.00  0.00    +0.018 A 
ATOM     29  C   UNL     1      -1.627  -5.473  -4.059  0.00  0.00    +0.014 A 
ATOM     30  C   UNL     1      -1.612  -4.848  -5.287  0.00  0.00    +0.039 A 
ATOM     31  C   UNL     1      -2.768  -4.267  -5.787  0.00  0.00    +0.123 A 
ATOM     32  C   UNL     1      -3.946  -4.312  -5.057  0.00  0.00    +0.039 A 
ATOM     33  C   UNL     1      -3.977  -4.939  -3.831  0.00  0.00    +0.014 A 
ATOM     34  F   UNL     1      -2.745  -3.655  -6.992  0.00  0.00    -0.205 F 
ENDBRANCH  26  28
ENDBRANCH   2  26
TORSDOF 7
