REMARK  Name = ZINC39596352
REMARK  7 active torsions:
REMARK  status: ('A' for Active; 'I' for Inactive)
REMARK    1  A    between atoms: C_1  and  C_2
REMARK    2  A    between atoms: C_2  and  C_4
REMARK    3  A    between atoms: C_2  and  O_32
REMARK    4  A    between atoms: C_4  and  N_5
REMARK    5  A    between atoms: C_6  and  C_8
REMARK    6  A    between atoms: C_19  and  C_21
REMARK    7  A    between atoms: O_32  and  C_33
REMARK                            x       y       z     vdW  Elec       q    Type
REMARK                         _______ _______ _______ _____ _____    ______ ____
ROOT
ATOM      1  C   UNL     1       1.214  -3.718   3.024  0.00  0.00    +0.100 C 
ATOM      2  C   UNL     1      -0.259  -4.165   3.155  0.00  0.00    +0.121 C 
ATOM      3  N   UNL     1      -0.243  -5.203   4.212  0.00  0.00    -0.297 N 
ATOM      4  C   UNL     1       0.722  -4.692   5.216  0.00  0.00    +0.115 C 
ATOM      5  C   UNL     1       1.854  -4.064   4.379  0.00  0.00    -0.004 C 
ATOM      6  C   UNL     1       2.373  -2.800   5.057  0.00  0.00    -0.010 C 
ATOM      7  C   UNL     1       3.057  -3.177   6.374  0.00  0.00    -0.082 C 
ATOM      8  N   UNL     1       4.164  -4.102   6.106  0.00  0.00    +0.379 N 
ATOM      9  C   UNL     1       3.646  -5.353   5.539  0.00  0.00    -0.082 C 
ATOM     10  C   UNL     1       2.987  -5.068   4.186  0.00  0.00    -0.010 C 
ATOM     11  C   UNL     1      -0.946  -6.352   4.253  0.00  0.00    +0.260 C 
ATOM     12  O   UNL     1      -0.823  -7.106   5.195  0.00  0.00    -0.271 OA
ATOM     13  H   UNL     1       4.804  -3.678   5.451  0.00  0.00    -0.086 HD
ATOM     14  H   UNL     1       4.651  -4.301   6.967  0.00  0.00    -0.086 HD
ENDROOT
BRANCH  11  15
ATOM     15  C   UNL     1      -1.884  -6.701   3.127  0.00  0.00    +0.296 C 
ATOM     16  C   UNL     1      -3.040  -5.693   3.085  0.00  0.00    +0.283 C 
ATOM     17  O   UNL     1      -3.918  -6.061   2.016  0.00  0.00    -0.484 OA
ATOM     18  C   UNL     1      -4.257  -7.376   1.928  0.00  0.00    +0.162 A 
ATOM     19  C   UNL     1      -5.358  -7.747   1.171  0.00  0.00    +0.049 A 
ATOM     20  C   UNL     1      -5.712  -9.079   1.069  0.00  0.00    +0.004 A 
ATOM     21  C   UNL     1      -4.971 -10.045   1.722  0.00  0.00    +0.004 A 
ATOM     22  C   UNL     1      -3.873  -9.683   2.480  0.00  0.00    +0.049 A 
ATOM     23  C   UNL     1      -3.513  -8.348   2.587  0.00  0.00    +0.163 A 
ATOM     24  O   UNL     1      -2.433  -8.006   3.343  0.00  0.00    -0.473 OA
ENDBRANCH  11  15
BRANCH   1  26
ATOM     25  N   UNL     1       2.329  -1.721   2.081  0.00  0.00    -0.312 N 
ATOM     26  C   UNL     1       1.292  -2.234   2.772  0.00  0.00    +0.218 C 
ATOM     27  O   UNL     1       0.420  -1.501   3.190  0.00  0.00    -0.275 OA
ATOM     28  H   UNL     1       3.026  -2.308   1.746  0.00  0.00    +0.149 HD
BRANCH  25  29
ATOM     29  C   UNL     1       2.405  -0.279   1.835  0.00  0.00    +0.148 C 
BRANCH  29  31
ATOM     30  C   UNL     1       3.749   1.543   0.779  0.00  0.00    +0.053 C 
ATOM     31  C   UNL     1       3.670   0.037   1.035  0.00  0.00    +0.187 C 
BRANCH  31  32
ATOM     32  O   UNL     1       4.818  -0.381   1.776  0.00  0.00    -0.488 OA
BRANCH  32  33
ATOM     33  C   UNL     1       5.941  -0.669   1.065  0.00  0.00    +0.121 A 
ATOM     34  C   UNL     1       7.055  -1.189   1.707  0.00  0.00    +0.048 A 
ATOM     35  C   UNL     1       8.195  -1.481   0.983  0.00  0.00    +0.042 A 
ATOM     36  C   UNL     1       8.225  -1.255  -0.383  0.00  0.00    +0.124 A 
ATOM     37  C   UNL     1       7.114  -0.736  -1.024  0.00  0.00    +0.042 A 
ATOM     38  C   UNL     1       5.970  -0.449  -0.304  0.00  0.00    +0.048 A 
ATOM     39  F   UNL     1       9.341  -1.540  -1.089  0.00  0.00    -0.205 F 
ENDBRANCH  32  33
ENDBRANCH  31  32
ENDBRANCH  29  31
ENDBRANCH  25  29
ENDBRANCH   1  26
TORSDOF 6
