REMARK  Name = ZINC57928370
REMARK  4 active torsions:
REMARK  status: ('A' for Active; 'I' for Inactive)
REMARK    1  A    between atoms: C_1  and  C_2
REMARK    2  A    between atoms: N_6  and  C_14
REMARK    3  A    between atoms: C_14  and  C_15
REMARK    4  A    between atoms: N_17  and  C_18
REMARK                            x       y       z     vdW  Elec       q    Type
REMARK                         _______ _______ _______ _____ _____    ______ ____
ROOT
ATOM      1  C   UNL     1      -0.019   1.526   0.010  0.00  0.00    +0.038 C 
ATOM      2  C   UNL     1       0.002  -0.004   0.002  0.00  0.00    +0.154 C 
ATOM      3  C   UNL     1       0.711  -0.492  -1.235  0.00  0.00    +0.240 C 
ATOM      4  O   UNL     1       0.079  -0.682  -2.253  0.00  0.00    -0.273 OA
ATOM      5  N   UNL     1       2.038  -0.719  -1.224  0.00  0.00    -0.259 N 
ATOM      6  C   UNL     1       2.782  -0.555  -0.049  0.00  0.00    +0.058 A 
ATOM      7  C   UNL     1       4.165  -0.500  -0.088  0.00  0.00    +0.025 A 
ATOM      8  C   UNL     1       4.881  -0.343   1.085  0.00  0.00    +0.002 A 
ATOM      9  C   UNL     1       4.224  -0.241   2.297  0.00  0.00    +0.002 A 
ATOM     10  C   UNL     1       2.842  -0.293   2.345  0.00  0.00    +0.025 A 
ATOM     11  C   UNL     1       2.120  -0.448   1.175  0.00  0.00    +0.049 A 
ATOM     12  N   UNL     1       0.717  -0.493   1.191  0.00  0.00    -0.332 N 
ATOM     13  H   UNL     1       0.234  -0.835   1.959  0.00  0.00    +0.147 HD
ENDROOT
BRANCH   5  14
ATOM     14  C   UNL     1       2.712  -1.143  -2.455  0.00  0.00    +0.209 C 
BRANCH  14  15
ATOM     15  C   UNL     1       3.178   0.072  -3.216  0.00  0.00    +0.231 C 
ATOM     16  O   UNL     1       2.969   1.182  -2.774  0.00  0.00    -0.274 OA
ATOM     17  N   UNL     1       3.827  -0.075  -4.387  0.00  0.00    -0.317 N 
ATOM     18  C   UNL     1       4.281   1.105  -5.127  0.00  0.00    +0.128 C 
ATOM     19  H   UNL     1       3.995  -0.963  -4.741  0.00  0.00    +0.148 HD
ENDBRANCH  14  15
ENDBRANCH   5  14
TORSDOF 2
