REMARK  Name = ZINC06513492
REMARK  4 active torsions:
REMARK  status: ('A' for Active; 'I' for Inactive)
REMARK    1  A    between atoms: C_6  and  C_7
REMARK    2  A    between atoms: C_7  and  O_9
REMARK    3  A    between atoms: C_7  and  O_10
REMARK    4  A    between atoms: O_10  and  N_11
REMARK                            x       y       z     vdW  Elec       q    Type
REMARK                         _______ _______ _______ _____ _____    ______ ____
ROOT
ATOM      1  C   UNL     1       1.286   1.562  -0.002  0.00  0.00    +0.366 C 
ENDROOT
BRANCH   1   7
ATOM      2  C   UNL     1       3.240   0.429   1.075  0.00  0.00    +0.013 A 
ATOM      3  C   UNL     1       3.949   0.027   2.193  0.00  0.00    +0.050 A 
ATOM      4  C   UNL     1       3.463   0.306   3.459  0.00  0.00    +0.166 A 
ATOM      5  C   UNL     1       2.263   0.999   3.604  0.00  0.00    +0.167 A 
ATOM      6  C   UNL     1       1.561   1.404   2.481  0.00  0.00    +0.059 A 
ATOM      7  C   UNL     1       2.052   1.121   1.219  0.00  0.00    +0.026 A 
ATOM      8  O   UNL     1       2.003   1.147   4.936  0.00  0.00    -0.453 OA
ATOM      9  C   UNL     1       3.255   0.900   5.602  0.00  0.00    +0.466 C 
ATOM     10  O   UNL     1       3.954   0.021   4.700  0.00  0.00    -0.453 OA
ENDBRANCH   1   7
BRANCH   1  11
ATOM     11  O   UNL     1      -0.011   0.963   0.007  0.00  0.00    -0.353 OA
ATOM     12  H   UNL     1       0.002  -0.004   0.002  0.00  0.00    +0.214 HD
ENDBRANCH   1  11
BRANCH   1  13
ATOM     13  O   UNL     1       1.990   1.156  -1.178  0.00  0.00    -0.357 OA
BRANCH  13  14
ATOM     14  N   UNL     1       1.798   2.013  -2.288  0.00  0.00    -0.091 NA
ATOM     15  C   UNL     1       2.375   1.757  -3.401  0.00  0.00    +0.058 C 
ATOM     16  C   UNL     1       3.272   0.548  -3.550  0.00  0.00    +0.054 C 
ATOM     17  C   UNL     1       2.818  -0.240  -4.788  0.00  0.00    +0.006 C 
ATOM     18  C   UNL     1       2.806   0.688  -6.003  0.00  0.00    +0.001 C 
ATOM     19  C   UNL     1       1.773   1.798  -5.798  0.00  0.00    +0.006 C 
ATOM     20  C   UNL     1       2.184   2.660  -4.600  0.00  0.00    +0.054 C 
ENDBRANCH  13  14
ENDBRANCH   1  13
TORSDOF 4
