REMARK  Name = ZINC05324841
REMARK  4 active torsions:
REMARK  status: ('A' for Active; 'I' for Inactive)
REMARK    1  A    between atoms: C_6  and  C_7
REMARK    2  A    between atoms: C_9  and  C_13
REMARK    3  A    between atoms: N_15  and  N_16
REMARK    4  A    between atoms: C_17  and  C_18
REMARK                            x       y       z     vdW  Elec       q    Type
REMARK                         _______ _______ _______ _____ _____    ______ ____
ROOT
ATOM      1  C   UNL     1      -1.268  -0.764   0.011  0.00  0.00    +0.067 A 
ATOM      2  C   UNL     1      -1.404  -2.124   0.010  0.00  0.00    +0.062 A 
ATOM      3  C   UNL     1      -2.795  -2.363   0.021  0.00  0.00    +0.149 A 
ATOM      4  N   UNL     1      -3.395  -1.189   0.026  0.00  0.00    -0.169 NA
ATOM      5  N   UNL     1      -2.528  -0.242   0.026  0.00  0.00    -0.276 N 
ATOM      6  H   UNL     1      -2.737   0.705   0.034  0.00  0.00    +0.189 HD
ENDROOT
BRANCH   1  12
ATOM      7  C   UNL     1      -0.017   1.391   0.010  0.00  0.00    +0.011 A 
ATOM      8  C   UNL     1       1.170   2.095   0.002  0.00  0.00    +0.022 A 
ATOM      9  C   UNL     1       2.378   1.420  -0.013  0.00  0.00    +0.059 A 
ATOM     10  C   UNL     1       2.404   0.034  -0.022  0.00  0.00    +0.060 A 
ATOM     11  C   UNL     1       1.222  -0.680  -0.014  0.00  0.00    +0.031 A 
ATOM     12  C   UNL     1       0.002  -0.004   0.002  0.00  0.00    +0.001 A 
ATOM     13 CL   UNL     1       3.923  -0.805  -0.042  0.00  0.00    -0.082 Cl
ATOM     14 CL   UNL     1       3.867   2.312  -0.024  0.00  0.00    -0.082 Cl
ENDBRANCH   1  12
BRANCH   3  15
ATOM     15  C   UNL     1      -3.456  -3.684   0.024  0.00  0.00    +0.283 C 
ATOM     16  O   UNL     1      -2.787  -4.699   0.017  0.00  0.00    -0.267 OA
ATOM     17  N   UNL     1      -4.801  -3.764   0.034  0.00  0.00    -0.202 N 
ATOM     18  H   UNL     1      -5.336  -2.954   0.040  0.00  0.00    +0.178 HD
BRANCH  17  19
ATOM     19  N   UNL     1      -5.429  -5.017   0.037  0.00  0.00    -0.187 NA
ATOM     20  C   UNL     1      -6.724  -5.094   0.047  0.00  0.00    +0.139 C 
BRANCH  20  21
ATOM     21  C   UNL     1      -7.384  -6.413   0.050  0.00  0.00    +0.013 A 
ATOM     22  C   UNL     1      -8.778  -6.500   0.055  0.00  0.00    +0.012 A 
ATOM     23  C   UNL     1      -9.389  -7.736   0.058  0.00  0.00    +0.021 A 
ATOM     24  C   UNL     1      -8.624  -8.890   0.056  0.00  0.00    +0.042 A 
ATOM     25  C   UNL     1      -7.242  -8.813   0.051  0.00  0.00    +0.040 A 
ATOM     26  C   UNL     1      -6.617  -7.582   0.042  0.00  0.00    +0.051 A 
ATOM     27 CL   UNL     1      -4.884  -7.486   0.028  0.00  0.00    -0.083 Cl
ATOM     28 CL   UNL     1      -9.402 -10.442   0.060  0.00  0.00    -0.083 Cl
ENDBRANCH  20  21
ENDBRANCH  17  19
ENDBRANCH   3  15
TORSDOF 4
