REMARK  Name = ZINC35358598
REMARK  5 active torsions:
REMARK  status: ('A' for Active; 'I' for Inactive)
REMARK    1  A    between atoms: C_3  and  N_8
REMARK    2  A    between atoms: N_8  and  S_9
REMARK    3  A    between atoms: S_9  and  C_12
REMARK    4  A    between atoms: C_17  and  N_18
REMARK    5  A    between atoms: N_18  and  N_19
REMARK                            x       y       z     vdW  Elec       q    Type
REMARK                         _______ _______ _______ _____ _____    ______ ____
ROOT
ATOM      1  S   UNL     1       4.800   1.753   1.079  0.00  0.00    +0.076 S 
ATOM      2  O   UNL     1       5.886   2.667   1.013  0.00  0.00    -0.150 OA
ATOM      3  O   UNL     1       4.050   1.545   2.268  0.00  0.00    -0.150 OA
ENDROOT
BRANCH   1   4
ATOM      4  C   UNL     1       5.435   0.180   0.603  0.00  0.00    +0.149 A 
ATOM      5  C   UNL     1       5.198  -0.938   1.384  0.00  0.00    +0.034 A 
ATOM      6  C   UNL     1       5.718  -2.157   0.971  0.00  0.00    +0.022 A 
ATOM      7  C   UNL     1       6.452  -2.218  -0.197  0.00  0.00    +0.113 A 
ATOM      8  N   UNL     1       6.662  -1.136  -0.922  0.00  0.00    -0.237 NA
ATOM      9  C   UNL     1       6.178   0.044  -0.565  0.00  0.00    +0.159 A 
BRANCH   9  10
ATOM     10  N   UNL     1       6.419   1.157  -1.362  0.00  0.00    -0.266 N 
ATOM     11  H   UNL     1       6.003   2.006  -1.146  0.00  0.00    +0.167 HD
BRANCH  10  12
ATOM     12  N   UNL     1       7.241   1.054  -2.448  0.00  0.00    -0.255 NA
ATOM     13  H   UNL     1       7.383   1.955  -2.880  0.00  0.00    +0.140 HD
ATOM     14  H   UNL     1       8.122   0.632  -2.196  0.00  0.00    +0.140 HD
ENDBRANCH  10  12
ENDBRANCH   9  10
ENDBRANCH   1   4
BRANCH   1  15
ATOM     15  N   UNL     1       3.719   2.217  -0.087  0.00  0.00    -0.216 N 
ATOM     16  H   UNL     1       3.915   2.978  -0.655  0.00  0.00    +0.174 HD
BRANCH  15  19
ATOM     17  C   UNL     1       0.144   1.497  -0.546  0.00  0.00    +0.003 A 
ATOM     18  C   UNL     1       1.323   2.197  -0.382  0.00  0.00    +0.024 A 
ATOM     19  C   UNL     1       2.525   1.511  -0.253  0.00  0.00    +0.049 A 
ATOM     20  C   UNL     1       2.536   0.123  -0.289  0.00  0.00    +0.038 A 
ATOM     21  C   UNL     1       1.353  -0.572  -0.454  0.00  0.00    +0.015 A 
ATOM     22  C   UNL     1       0.158   0.115  -0.582  0.00  0.00    +0.014 A 
ATOM     23  I   UNL     1       1.368  -2.666  -0.509  0.00  0.00    -0.044 I 
ENDBRANCH  15  19
ENDBRANCH   1  15
TORSDOF 5
