REMARK  Name = ZINC20105461
REMARK  7 active torsions:
REMARK  status: ('A' for Active; 'I' for Inactive)
REMARK    1  A    between atoms: C_1  and  C_2
REMARK    2  A    between atoms: C_2  and  C_3
REMARK    3  A    between atoms: C_2  and  C_4
REMARK    4  A    between atoms: C_7  and  N_10
REMARK    5  A    between atoms: C_11  and  C_13
REMARK    6  A    between atoms: C_13  and  N_14
REMARK    7  A    between atoms: C_21  and  C_24
REMARK                            x       y       z     vdW  Elec       q    Type
REMARK                         _______ _______ _______ _____ _____    ______ ____
ROOT
ATOM      1  N   UNL     1       5.441   2.520  -1.931  0.00  0.00    -0.290 N 
ATOM      2  C   UNL     1       6.257   1.495  -1.585  0.00  0.00    +0.206 A 
ATOM      3  N   UNL     1       5.858   0.499  -0.841  0.00  0.00    -0.200 NA
ATOM      4  C   UNL     1       4.606   0.439  -0.377  0.00  0.00    +0.265 A 
ATOM      5  C   UNL     1       3.713   1.472  -0.702  0.00  0.00    +0.133 A 
ATOM      6  C   UNL     1       4.156   2.540  -1.504  0.00  0.00    +0.267 A 
ATOM      7  O   UNL     1       3.407   3.453  -1.805  0.00  0.00    -0.267 OA
ATOM      8  C   UNL     1       2.473   1.069  -0.032  0.00  0.00    +0.128 A 
ATOM      9  N   UNL     1       2.763  -0.062   0.566  0.00  0.00    -0.075 NA
ATOM     10  O   UNL     1       3.906  -0.414   0.383  0.00  0.00    -0.334 OA
ENDROOT
BRANCH   8  11
ATOM     11  C   UNL     1       1.176   1.787  -0.026  0.00  0.00    +0.005 A 
ATOM     12  C   UNL     1      -0.020   1.070  -0.024  0.00  0.00    +0.011 A 
ATOM     13  C   UNL     1      -1.225   1.743  -0.025  0.00  0.00    +0.020 A 
ATOM     14  C   UNL     1      -1.247   3.127  -0.016  0.00  0.00    +0.041 A 
ATOM     15  C   UNL     1      -0.062   3.844  -0.017  0.00  0.00    +0.020 A 
ATOM     16  C   UNL     1       1.147   3.181  -0.022  0.00  0.00    +0.011 A 
ATOM     17 CL   UNL     1      -2.766   3.968  -0.010  0.00  0.00    -0.084 Cl
ENDBRANCH   8  11
BRANCH   1  18
ATOM     18  C   UNL     1       5.950   3.609  -2.769  0.00  0.00    +0.222 C 
BRANCH  18  20
ATOM     19  N   UNL     1       7.053   5.800  -2.447  0.00  0.00    -0.284 N 
ATOM     20  C   UNL     1       6.523   4.692  -1.891  0.00  0.00    +0.237 C 
ATOM     21  O   UNL     1       6.507   4.567  -0.685  0.00  0.00    -0.274 OA
ATOM     22  H   UNL     1       7.136   5.880  -3.541  0.00  0.00    +0.155 HD
BRANCH  19  26
ATOM     23  C   UNL     1       8.373   8.920  -0.024  0.00  0.00    -0.045 A 
ATOM     24  C   UNL     1       8.515   7.611   0.399  0.00  0.00    +0.006 A 
ATOM     25  C   UNL     1       8.078   6.575  -0.403  0.00  0.00    +0.023 A 
ATOM     26  C   UNL     1       7.496   6.848  -1.633  0.00  0.00    +0.033 A 
ATOM     27  C   UNL     1       7.360   8.164  -2.057  0.00  0.00    +0.023 A 
ATOM     28  C   UNL     1       7.793   9.196  -1.249  0.00  0.00    +0.006 A 
BRANCH  23  30
ATOM     29  C   UNL     1       9.918  10.855   0.112  0.00  0.00    +0.012 C 
ATOM     30  C   UNL     1       8.850  10.049   0.854  0.00  0.00    +0.013 C 
ATOM     31  C   UNL     1       7.670  10.961   1.198  0.00  0.00    +0.012 C 
ENDBRANCH  23  30
ENDBRANCH  19  26
ENDBRANCH  18  20
ENDBRANCH   1  18
TORSDOF 5
