REMARK  Name = ZINC34864643
REMARK  8 active torsions:
REMARK  status: ('A' for Active; 'I' for Inactive)
REMARK    1  A    between atoms: C_4  and  C_7
REMARK    2  A    between atoms: C_7  and  C_8
REMARK    3  A    between atoms: C_8  and  C_9
REMARK    4  A    between atoms: C_9  and  N_10
REMARK    5  A    between atoms: N_10  and  C_11
REMARK    6  A    between atoms: N_10  and  C_25
REMARK    7  A    between atoms: C_11  and  C_12
REMARK    8  A    between atoms: C_25  and  C_26
REMARK                            x       y       z     vdW  Elec       q    Type
REMARK                         _______ _______ _______ _____ _____    ______ ____
ROOT
ATOM      1  N   UNL     1       6.034  -1.876   2.752  0.00  0.00    -0.288 NA
ENDROOT
BRANCH   1   2
ATOM      2  C   UNL     1       5.518  -1.701   1.388  0.00  0.00    +0.085 C 
BRANCH   2   3
ATOM      3  C   UNL     1       4.235  -0.869   1.430  0.00  0.00    +0.020 C 
BRANCH   3   4
ATOM      4  C   UNL     1       3.770  -0.575   0.003  0.00  0.00    +0.036 C 
BRANCH   4   8
ATOM      5  C   UNL     1       0.187   1.748   0.119  0.00  0.00    +0.000 A 
ATOM      6  C   UNL     1       1.418   2.376   0.095  0.00  0.00    +0.000 A 
ATOM      7  C   UNL     1       2.577   1.625   0.058  0.00  0.00    +0.003 A 
ATOM      8  C   UNL     1       2.506   0.244   0.044  0.00  0.00    -0.047 A 
ATOM      9  C   UNL     1       1.275  -0.385   0.068  0.00  0.00    +0.003 A 
ATOM     10  C   UNL     1       0.116   0.367   0.104  0.00  0.00    +0.000 A 
ENDBRANCH   4   8
ENDBRANCH   3   4
ENDBRANCH   2   3
ENDBRANCH   1   2
BRANCH   1  11
ATOM     11  C   UNL     1       7.435  -2.315   2.733  0.00  0.00    +0.159 C 
BRANCH  11  12
ATOM     12  C   UNL     1       8.297  -1.218   2.162  0.00  0.00    +0.125 A 
ATOM     13  N   UNL     1       9.634  -1.438   2.057  0.00  0.00    -0.309 N 
ATOM     14  H   UNL     1      10.006  -2.286   2.347  0.00  0.00    +0.170 HD
ATOM     15  C   UNL     1      10.451  -0.485   1.551  0.00  0.00    +0.259 A 
ATOM     16  O   UNL     1      11.651  -0.670   1.450  0.00  0.00    -0.267 OA
ATOM     17  C   UNL     1       9.835   0.780   1.127  0.00  0.00    +0.065 A 
ATOM     18  C   UNL     1      10.587   1.824   0.593  0.00  0.00    +0.017 A 
ATOM     19  C   UNL     1       9.965   2.981   0.213  0.00  0.00    +0.021 A 
ATOM     20  C   UNL     1       8.590   3.126   0.355  0.00  0.00    +0.043 A 
ATOM     21  C   UNL     1       7.823   2.109   0.881  0.00  0.00    +0.048 A 
ATOM     22  C   UNL     1       8.437   0.918   1.274  0.00  0.00    +0.080 A 
ATOM     23  N   UNL     1       7.724  -0.114   1.792  0.00  0.00    -0.232 NA
ATOM     24 CL   UNL     1       7.829   4.607  -0.136  0.00  0.00    -0.083 Cl
ENDBRANCH  11  12
ENDBRANCH   1  11
BRANCH   1  25
ATOM     25  C   UNL     1       5.199  -2.814   3.514  0.00  0.00    +0.156 C 
BRANCH  25  26
ATOM     26  C   UNL     1       5.491  -2.666   4.985  0.00  0.00    +0.111 C 
ATOM     27  N   UNL     1       6.411  -1.850   5.364  0.00  0.00    -0.263 NA
ATOM     28  C   UNL     1       6.731  -1.667   6.779  0.00  0.00    +0.147 C 
ATOM     29  C   UNL     1       8.147  -1.180   6.926  0.00  0.00    +0.020 C 
ATOM     30  C   UNL     1       9.152  -2.049   6.975  0.00  0.00    +0.039 C 
ATOM     31  C   UNL     1       8.873  -3.492   6.888  0.00  0.00    +0.016 C 
ATOM     32  C   UNL     1       7.652  -3.945   7.143  0.00  0.00    -0.010 C 
ATOM     33  C   UNL     1       6.571  -2.994   7.521  0.00  0.00    +0.126 C 
ATOM     34  C   UNL     1       5.245  -3.608   7.136  0.00  0.00    +0.227 C 
ATOM     35  O   UNL     1       4.619  -4.271   7.935  0.00  0.00    -0.275 OA
ATOM     36  N   UNL     1       4.764  -3.402   5.891  0.00  0.00    -0.273 N 
ATOM     37 CL   UNL     1      10.786  -1.485   7.142  0.00  0.00    -0.084 Cl
ATOM     38  H   UNL     1       3.908  -3.777   5.633  0.00  0.00    +0.156 HD
ENDBRANCH  25  26
ENDBRANCH   1  25
TORSDOF 8
