REMARK  Name = ZINC55423252
REMARK  6 active torsions:
REMARK  status: ('A' for Active; 'I' for Inactive)
REMARK    1  A    between atoms: C_1  and  C_2
REMARK    2  A    between atoms: C_2  and  C_4
REMARK    3  A    between atoms: C_2  and  S_22
REMARK    4  A    between atoms: C_4  and  N_6
REMARK    5  A    between atoms: N_15  and  C_16
REMARK    6  A    between atoms: S_22  and  C_23
REMARK                            x       y       z     vdW  Elec       q    Type
REMARK                         _______ _______ _______ _____ _____    ______ ____
ROOT
ATOM      1  N   UNL     1       2.032  -0.599  -1.249  0.00  0.00    -0.146 NA
ATOM      2  C   UNL     1       2.648  -1.121  -2.307  0.00  0.00    +0.201 A 
ATOM      3  N   UNL     1       2.044  -1.483  -3.470  0.00  0.00    -0.326 N 
ATOM      4  C   UNL     1       3.017  -1.985  -4.328  0.00  0.00    +0.066 A 
ATOM      5  C   UNL     1       2.971  -2.490  -5.620  0.00  0.00    +0.028 A 
ATOM      6  C   UNL     1       4.130  -2.925  -6.230  0.00  0.00    +0.002 A 
ATOM      7  C   UNL     1       5.340  -2.859  -5.559  0.00  0.00    +0.002 A 
ATOM      8  C   UNL     1       5.396  -2.359  -4.274  0.00  0.00    +0.028 A 
ATOM      9  C   UNL     1       4.237  -1.918  -3.651  0.00  0.00    +0.068 A 
ATOM     10  N   UNL     1       3.980  -1.372  -2.398  0.00  0.00    -0.309 N 
ATOM     11  H   UNL     1       1.098  -1.404  -3.667  0.00  0.00    +0.169 HD
ENDROOT
BRANCH  10  12
ATOM     12  C   UNL     1       4.975  -1.116  -1.354  0.00  0.00    +0.091 C 
ATOM     13  C   UNL     1       4.618  -1.918  -0.101  0.00  0.00    +0.025 C 
ATOM     14  C   UNL     1       5.657  -1.650   0.990  0.00  0.00    +0.002 C 
ATOM     15  C   UNL     1       5.670  -0.158   1.326  0.00  0.00    +0.000 C 
ATOM     16  C   UNL     1       6.027   0.645   0.074  0.00  0.00    +0.002 C 
ATOM     17  C   UNL     1       4.988   0.377  -1.017  0.00  0.00    +0.025 C 
ENDBRANCH  10  12
BRANCH   1  18
ATOM     18  C   UNL     1       0.707  -0.503  -1.232  0.00  0.00    +0.252 C 
ATOM     19  O   UNL     1       0.062  -0.803  -2.219  0.00  0.00    -0.272 OA
BRANCH  18  21
ATOM     20  C   UNL     1      -0.033   1.508   0.017  0.00  0.00    +0.029 C 
ATOM     21  C   UNL     1       0.002  -0.022   0.010  0.00  0.00    +0.138 C 
BRANCH  21  22
ATOM     22  S   UNL     1      -1.694  -0.666   0.032  0.00  0.00    -0.084 S 
BRANCH  22  23
ATOM     23  C   UNL     1      -2.327  -0.148   1.592  0.00  0.00    +0.159 A 
ATOM     24  N   UNL     1      -1.748   0.554   2.558  0.00  0.00    -0.135 NA
ATOM     25  N   UNL     1      -2.355   0.840   3.626  0.00  0.00    -0.149 NA
ATOM     26  C   UNL     1      -3.597   0.463   3.851  0.00  0.00    +0.182 A 
ATOM     27  S   UNL     1      -3.939  -0.412   2.326  0.00  0.00    -0.048 S 
ENDBRANCH  22  23
ENDBRANCH  21  22
ENDBRANCH  18  21
ENDBRANCH   1  18
TORSDOF 5
