REMARK  Name = ZINC30979697
REMARK  10 active torsions:
REMARK  status: ('A' for Active; 'I' for Inactive)
REMARK    1  A    between atoms: C_1  and  C_2
REMARK    2  A    between atoms: C_2  and  C_3
REMARK    3  A    between atoms: C_2  and  C_4
REMARK    4  A    between atoms: C_4  and  C_5
REMARK    5  A    between atoms: C_5  and  C_7
REMARK    6  A    between atoms: C_5  and  N_13
REMARK    7  A    between atoms: C_14  and  C_16
REMARK    8  A    between atoms: N_19  and  C_22
REMARK    9  A    between atoms: C_22  and  C_23
REMARK   10  A    between atoms: C_25  and  C_28
REMARK                            x       y       z     vdW  Elec       q    Type
REMARK                         _______ _______ _______ _____ _____    ______ ____
ROOT
ATOM      1  C   UNL     1       3.337   5.733  -1.667  0.00  0.00    +0.071 C 
ATOM      2  C   UNL     1       2.325   5.516  -2.795  0.00  0.00    -0.006 C 
ATOM      3  C   UNL     1       1.936   6.870  -3.392  0.00  0.00    -0.077 C 
ATOM      4  N   UNL     1       3.136   7.540  -3.910  0.00  0.00    +0.386 N 
ATOM      5  C   UNL     1       4.103   7.802  -2.836  0.00  0.00    -0.077 C 
ATOM      6  C   UNL     1       4.556   6.475  -2.222  0.00  0.00    -0.006 C 
ATOM      7  H   UNL     1       3.613   6.862  -4.633  0.00  0.00    -0.081 HD
ENDROOT
BRANCH   1   9
ATOM      8  N   UNL     1       2.858   3.568  -0.570  0.00  0.00    -0.308 N 
ATOM      9  C   UNL     1       3.769   4.399  -1.114  0.00  0.00    +0.216 C 
ATOM     10  O   UNL     1       4.936   4.073  -1.159  0.00  0.00    -0.276 OA
ATOM     11  H   UNL     1       1.789   3.825  -0.606  0.00  0.00    +0.149 HD
BRANCH   8  12
ATOM     12  C   UNL     1       3.291   2.323   0.070  0.00  0.00    +0.103 C 
BRANCH  12  13
ATOM     13  C   UNL     1       2.138   1.354   0.114  0.00  0.00    -0.027 A 
ATOM     14  C   UNL     1       0.865   1.807   0.407  0.00  0.00    +0.005 A 
ATOM     15  C   UNL     1      -0.193   0.917   0.447  0.00  0.00    +0.000 A 
ATOM     16  C   UNL     1       0.023  -0.425   0.196  0.00  0.00    +0.000 A 
ATOM     17  C   UNL     1       1.296  -0.878  -0.096  0.00  0.00    +0.000 A 
ATOM     18  C   UNL     1       2.353   0.012  -0.136  0.00  0.00    +0.005 A 
ENDBRANCH  12  13
BRANCH  12  19
ATOM     19  C   UNL     1       3.764   2.619   1.494  0.00  0.00    +0.030 C 
BRANCH  19  21
ATOM     20  C   UNL     1       5.579   0.906   1.389  0.00  0.00    +0.007 C 
ATOM     21  C   UNL     1       4.310   1.338   2.127  0.00  0.00    -0.015 C 
ATOM     22  C   UNL     1       4.640   1.596   3.599  0.00  0.00    +0.007 C 
ENDBRANCH  19  21
ENDBRANCH  12  19
ENDBRANCH   8  12
ENDBRANCH   1   9
BRANCH   4  23
ATOM     23  C   UNL     1       2.784   8.780  -4.614  0.00  0.00    +0.022 C 
BRANCH  23  24
ATOM     24  C   UNL     1       1.991   8.447  -5.852  0.00  0.00    +0.211 A 
ATOM     25  N   UNL     1       0.689   8.337  -5.935  0.00  0.00    -0.193 NA
ATOM     26  C   UNL     1       0.432   8.030  -7.227  0.00  0.00    +0.202 A 
ATOM     27  N   UNL     1       1.582   7.971  -7.846  0.00  0.00    -0.056 NA
ATOM     28  O   UNL     1       2.484   8.213  -7.072  0.00  0.00    -0.340 OA
BRANCH  26  29
ATOM     29  C   UNL     1      -0.905   7.800  -7.829  0.00  0.00    +0.023 A 
ATOM     30  C   UNL     1      -2.051   7.890  -7.041  0.00  0.00    +0.013 A 
ATOM     31  C   UNL     1      -3.292   7.681  -7.607  0.00  0.00    +0.016 A 
ATOM     32  C   UNL     1      -3.400   7.373  -8.952  0.00  0.00    +0.018 A 
ATOM     33  C   UNL     1      -2.264   7.277  -9.737  0.00  0.00    +0.016 A 
ATOM     34  C   UNL     1      -1.018   7.489  -9.182  0.00  0.00    +0.013 A 
ATOM     35 BR   UNL     1      -5.103   7.081  -9.719  0.00  0.00    -0.050 Br
ENDBRANCH  26  29
ENDBRANCH  23  24
ENDBRANCH   4  23
TORSDOF 8
