REMARK  Name = ZINC57369520
REMARK  11 active torsions:
REMARK  status: ('A' for Active; 'I' for Inactive)
REMARK    1  A    between atoms: C_1  and  C_2
REMARK    2  A    between atoms: C_2  and  C_4
REMARK    3  A    between atoms: C_2  and  N_16
REMARK    4  A    between atoms: C_4  and  C_6
REMARK    5  A    between atoms: N_16  and  C_17
REMARK    6  A    between atoms: N_16  and  C_21
REMARK    7  A    between atoms: C_17  and  C_18
REMARK    8  A    between atoms: C_18  and  O_19
REMARK    9  A    between atoms: O_19  and  C_20
REMARK   10  A    between atoms: C_21  and  C_22
REMARK   11  A    between atoms: C_25  and  C_27
REMARK                            x       y       z     vdW  Elec       q    Type
REMARK                         _______ _______ _______ _____ _____    ______ ____
ROOT
ATOM      1  N   UNL     1       0.699  -0.434  -1.232  0.00  0.00    -0.282 NA
ENDROOT
BRANCH   1   3
ATOM      2  C   UNL     1      -0.127   1.739  -0.460  0.00  0.00    +0.032 C 
ATOM      3  C   UNL     1      -0.074   0.236  -0.177  0.00  0.00    +0.126 C 
BRANCH   3   4
ATOM      4  C   UNL     1       0.587  -0.001   1.157  0.00  0.00    +0.182 C 
ATOM      5  O   UNL     1       1.754  -0.332   1.205  0.00  0.00    -0.290 OA
BRANCH   4   6
ATOM      6  C   UNL     1      -0.154   0.161   2.353  0.00  0.00    +0.044 A 
ATOM      7  C   UNL     1      -1.480   0.524   2.464  0.00  0.00    +0.095 A 
ATOM      8  N   UNL     1      -1.828   0.574   3.763  0.00  0.00    -0.360 N 
ATOM      9  H   UNL     1      -2.712   0.807   4.089  0.00  0.00    +0.165 HD
ATOM     10  C   UNL     1      -0.756   0.249   4.569  0.00  0.00    +0.047 A 
ATOM     11  C   UNL     1       0.336  -0.030   3.733  0.00  0.00    +0.010 A 
ATOM     12  C   UNL     1       1.562  -0.395   4.281  0.00  0.00    +0.011 A 
ATOM     13  C   UNL     1       1.697  -0.486   5.650  0.00  0.00    +0.001 A 
ATOM     14  C   UNL     1       0.618  -0.215   6.478  0.00  0.00    +0.002 A 
ATOM     15  C   UNL     1      -0.599   0.156   5.948  0.00  0.00    +0.026 A 
ENDBRANCH   4   6
ENDBRANCH   3   4
ENDBRANCH   1   3
BRANCH   1  16
ATOM     16  C   UNL     1       0.851  -1.866  -0.945  0.00  0.00    +0.113 C 
BRANCH  16  17
ATOM     17  C   UNL     1      -0.526  -2.486  -0.698  0.00  0.00    +0.175 C 
BRANCH  17  18
ATOM     18  O   UNL     1      -1.280  -2.469  -1.912  0.00  0.00    -0.382 OA
ATOM     19  C   UNL     1      -2.589  -3.028  -1.791  0.00  0.00    +0.194 C 
ENDBRANCH  17  18
ENDBRANCH  16  17
ENDBRANCH   1  16
BRANCH   1  20
ATOM     20  C   UNL     1       0.083  -0.224  -2.549  0.00  0.00    +0.183 C 
BRANCH  20  21
ATOM     21  C   UNL     1       0.956  -0.834  -3.615  0.00  0.00    +0.232 A 
ATOM     22  N   UNL     1       0.934  -2.076  -4.008  0.00  0.00    -0.111 NA
ATOM     23  N   UNL     1       1.811  -2.251  -4.934  0.00  0.00    -0.107 NA
ATOM     24  C   UNL     1       2.429  -1.113  -5.165  0.00  0.00    +0.255 A 
ATOM     25  O   UNL     1       1.894  -0.193  -4.336  0.00  0.00    -0.418 OA
BRANCH  24  26
ATOM     26  C   UNL     1       3.500  -0.885  -6.147  0.00  0.00    +0.076 A 
ATOM     27  C   UNL     1       4.080  -1.780  -7.027  0.00  0.00    +0.021 A 
ATOM     28  C   UNL     1       5.077  -1.326  -7.859  0.00  0.00    +0.008 A 
ATOM     29  C   UNL     1       5.458  -0.024  -7.791  0.00  0.00    +0.046 A 
ATOM     30  S   UNL     1       4.385   0.620  -6.519  0.00  0.00    -0.092 S 
ENDBRANCH  24  26
ENDBRANCH  20  21
ENDBRANCH   1  20
TORSDOF 9
