REMARK  Name = ZINC16846047
REMARK  5 active torsions:
REMARK  status: ('A' for Active; 'I' for Inactive)
REMARK    1  A    between atoms: C_1  and  C_2
REMARK    2  A    between atoms: C_5  and  N_8
REMARK    3  A    between atoms: C_9  and  C_11
REMARK    4  A    between atoms: C_11  and  S_12
REMARK    5  A    between atoms: S_12  and  C_13
REMARK                            x       y       z     vdW  Elec       q    Type
REMARK                         _______ _______ _______ _____ _____    ______ ____
ROOT
ATOM      1  C   UNL     1       3.989  -6.564  -0.530  0.00  0.00    +0.199 A 
ATOM      2  N   UNL     1       2.872  -7.253  -0.525  0.00  0.00    -0.122 NA
ATOM      3  N   UNL     1       3.122  -8.512  -0.640  0.00  0.00    -0.128 NA
ATOM      4  C   UNL     1       4.415  -8.698  -0.725  0.00  0.00    +0.174 A 
ATOM      5  N   UNL     1       5.016  -7.460  -0.663  0.00  0.00    -0.241 N 
ATOM      6  C   UNL     1       6.378  -7.345  -0.734  0.00  0.00    +0.202 A 
ATOM      7  N   UNL     1       7.146  -8.400  -0.865  0.00  0.00    -0.208 NA
ATOM      8  C   UNL     1       6.649  -9.634  -0.936  0.00  0.00    +0.116 A 
ATOM      9  C   UNL     1       5.276  -9.892  -0.867  0.00  0.00    +0.056 A 
ATOM     10  C   UNL     1       4.876 -11.302  -0.959  0.00  0.00    -0.024 A 
ATOM     11  C   UNL     1       5.863 -12.207  -1.086  0.00  0.00    -0.004 A 
ATOM     12  S   UNL     1       7.361 -11.250  -1.111  0.00  0.00    -0.073 S 
ATOM     13  C   UNL     1       5.335 -13.614  -1.174  0.00  0.00    +0.043 C 
ATOM     14  C   UNL     1       3.839 -13.446  -1.519  0.00  0.00    +0.010 C 
ATOM     15  C   UNL     1       3.539 -12.049  -0.942  0.00  0.00    +0.037 C 
ATOM     16  N   UNL     1       6.953  -6.097  -0.667  0.00  0.00    -0.328 N 
ATOM     17  H   UNL     1       6.394  -5.310  -0.570  0.00  0.00    +0.145 HD
ATOM     18  H   UNL     1       7.918  -6.004  -0.716  0.00  0.00    +0.145 HD
ENDROOT
BRANCH   1  19
ATOM     19  S   UNL     1       4.139  -4.814  -0.398  0.00  0.00    -0.076 S 
BRANCH  19  20
ATOM     20  C   UNL     1       2.425  -4.236  -0.258  0.00  0.00    +0.173 C 
BRANCH  20  22
ATOM     21  N   UNL     1       1.237  -2.079  -0.020  0.00  0.00    -0.285 N 
ATOM     22  C   UNL     1       2.410  -2.734  -0.137  0.00  0.00    +0.227 C 
ATOM     23  O   UNL     1       3.452  -2.114  -0.144  0.00  0.00    -0.275 OA
ATOM     24  H   UNL     1       0.409  -2.578   0.062  0.00  0.00    +0.155 HD
BRANCH  21  29
ATOM     25  C   UNL     1       1.143   3.593  -0.015  0.00  0.00    +0.044 C 
ATOM     26  C   UNL     1       1.168   2.086  -0.017  0.00  0.00    -0.050 A 
ATOM     27  C   UNL     1       2.111   1.412  -0.771  0.00  0.00    +0.005 A 
ATOM     28  C   UNL     1       2.137   0.031  -0.774  0.00  0.00    +0.023 A 
ATOM     29  C   UNL     1       1.214  -0.680  -0.019  0.00  0.00    +0.033 A 
ATOM     30  C   UNL     1       0.268  -0.001   0.737  0.00  0.00    +0.023 A 
ATOM     31  C   UNL     1       0.248   1.380   0.736  0.00  0.00    +0.005 A 
ENDBRANCH  21  29
ENDBRANCH  20  22
ENDBRANCH  19  20
ENDBRANCH   1  19
TORSDOF 4
