REMARK  Name = ZINC66996858
REMARK  3 active torsions:
REMARK  status: ('A' for Active; 'I' for Inactive)
REMARK    1  A    between atoms: C_1  and  C_2
REMARK    2  A    between atoms: C_12  and  C_14
REMARK    3  A    between atoms: C_20  and  O_23
REMARK                            x       y       z     vdW  Elec       q    Type
REMARK                         _______ _______ _______ _____ _____    ______ ____
ROOT
ATOM      1  C   UNL     1      -1.345   1.672   0.829  0.00  0.00    +0.046 C 
ATOM      2  C   UNL     1      -1.316   0.178   0.629  0.00  0.00    -0.026 A 
ATOM      3  C   UNL     1      -2.108  -0.403  -0.341  0.00  0.00    +0.043 A 
ATOM      4  C   UNL     1      -2.080  -1.775  -0.523  0.00  0.00    +0.124 A 
ATOM      5  C   UNL     1      -1.262  -2.564   0.267  0.00  0.00    +0.043 A 
ATOM      6  C   UNL     1      -0.467  -1.987   1.243  0.00  0.00    -0.023 A 
ATOM      7  C   UNL     1      -0.488  -0.612   1.419  0.00  0.00    +0.043 A 
ATOM      8  N   UNL     1       0.317  -0.000   2.388  0.00  0.00    -0.263 N 
ATOM      9  C   UNL     1       0.959  -0.838   3.410  0.00  0.00    +0.114 C 
ATOM     10  C   UNL     1       1.552  -2.065   2.705  0.00  0.00    +0.024 C 
ATOM     11  C   UNL     1       0.407  -2.875   2.088  0.00  0.00    +0.038 C 
ATOM     12  C   UNL     1       0.499   1.335   2.383  0.00  0.00    +0.306 C 
ATOM     13  O   UNL     1       0.477   1.947   1.335  0.00  0.00    -0.265 OA
ATOM     14  F   UNL     1      -2.853  -2.345  -1.473  0.00  0.00    -0.205 F 
ENDROOT
BRANCH  12  15
ATOM     15  C   UNL     1       0.730   2.062   3.667  0.00  0.00    +0.302 C 
ATOM     16  O   UNL     1      -0.215   2.399   4.351  0.00  0.00    -0.265 OA
ATOM     17  N   UNL     1       1.986   2.344   4.066  0.00  0.00    -0.291 N 
ATOM     18  C   UNL     1       3.141   1.852   3.304  0.00  0.00    +0.108 C 
ATOM     19  C   UNL     1       4.048   3.038   2.963  0.00  0.00    +0.021 C 
ATOM     20  C   UNL     1       4.414   3.782   4.249  0.00  0.00    +0.034 C 
ATOM     21  C   UNL     1       3.142   4.320   4.909  0.00  0.00    +0.132 C 
ATOM     22  C   UNL     1       2.225   3.153   5.269  0.00  0.00    +0.139 C 
BRANCH  21  23
ATOM     23  O   UNL     1       3.487   5.042   6.093  0.00  0.00    -0.390 OA
ATOM     24  H   UNL     1       2.728   5.412   6.564  0.00  0.00    +0.210 HD
ENDBRANCH  21  23
ENDBRANCH  12  15
TORSDOF 2
