REMARK  Name = ZINC16150962
REMARK  11 active torsions:
REMARK  status: ('A' for Active; 'I' for Inactive)
REMARK    1  A    between atoms: C_1  and  C_2
REMARK    2  A    between atoms: C_2  and  C_3
REMARK    3  A    between atoms: C_2  and  C_4
REMARK    4  A    between atoms: C_2  and  C_5
REMARK    5  A    between atoms: C_8  and  S_11
REMARK    6  A    between atoms: S_11  and  N_14
REMARK    7  A    between atoms: N_14  and  N_15
REMARK    8  A    between atoms: C_16  and  C_18
REMARK    9  A    between atoms: C_23  and  N_24
REMARK   10  A    between atoms: N_24  and  S_25
REMARK   11  A    between atoms: S_25  and  C_28
REMARK                            x       y       z     vdW  Elec       q    Type
REMARK                         _______ _______ _______ _____ _____    ______ ____
ROOT
ATOM      1  N   UNL     1       2.274  -2.819  -2.116  0.00  0.00    -0.228 N 
ATOM      2  C   UNL     1       2.969  -3.658  -2.910  0.00  0.00    +0.261 C 
ATOM      3  O   UNL     1       2.674  -4.837  -2.954  0.00  0.00    -0.269 OA
ATOM      4  H   UNL     1       2.509  -1.878  -2.081  0.00  0.00    +0.171 HD
ENDROOT
BRANCH   2   5
ATOM      5  C   UNL     1       4.086  -3.146  -3.725  0.00  0.00    +0.060 A 
ATOM      6  C   UNL     1       4.428  -1.792  -3.678  0.00  0.00    +0.015 A 
ATOM      7  C   UNL     1       5.473  -1.320  -4.442  0.00  0.00    +0.001 A 
ATOM      8  C   UNL     1       6.189  -2.182  -5.258  0.00  0.00    +0.002 A 
ATOM      9  C   UNL     1       5.863  -3.521  -5.316  0.00  0.00    +0.025 A 
ATOM     10  C   UNL     1       4.816  -4.017  -4.549  0.00  0.00    +0.060 A 
BRANCH  10  11
ATOM     11  N   UNL     1       4.490  -5.366  -4.601  0.00  0.00    -0.215 N 
ATOM     12  H   UNL     1       3.563  -5.644  -4.536  0.00  0.00    +0.174 HD
BRANCH  11  13
ATOM     13  S   UNL     1       5.684  -6.500  -4.773  0.00  0.00    +0.079 S 
ATOM     14  O   UNL     1       5.058  -7.770  -4.655  0.00  0.00    -0.149 OA
ATOM     15  O   UNL     1       6.438  -6.125  -5.917  0.00  0.00    -0.149 OA
BRANCH  13  16
ATOM     16  C   UNL     1       6.759  -6.339  -3.386  0.00  0.00    +0.146 A 
ATOM     17  C   UNL     1       6.697  -6.956  -2.181  0.00  0.00    +0.036 A 
ATOM     18  C   UNL     1       7.661  -6.673  -1.232  0.00  0.00    +0.010 A 
ATOM     19  C   UNL     1       8.641  -5.787  -1.534  0.00  0.00    +0.047 A 
ATOM     20  S   UNL     1       8.219  -5.326  -3.207  0.00  0.00    -0.077 S 
ENDBRANCH  13  16
ENDBRANCH  11  13
ENDBRANCH  10  11
ENDBRANCH   2   5
BRANCH   1  21
ATOM     21  N   UNL     1       1.213  -3.305  -1.342  0.00  0.00    -0.108 NA
ATOM     22  H   UNL     1       0.486  -3.788  -1.764  0.00  0.00    +0.172 HD
BRANCH  21  23
ATOM     23  S   UNL     1       1.200  -3.055   0.295  0.00  0.00    +0.074 S 
ATOM     24  O   UNL     1       2.437  -3.547   0.791  0.00  0.00    -0.152 OA
ATOM     25  O   UNL     1      -0.053  -3.529   0.769  0.00  0.00    -0.152 OA
BRANCH  23  29
ATOM     26  C   UNL     1       1.227   1.422   0.968  0.00  0.00    -0.042 A 
ATOM     27  C   UNL     1       0.026   0.747   0.854  0.00  0.00    +0.006 A 
ATOM     28  C   UNL     1       0.017  -0.620   0.648  0.00  0.00    +0.029 A 
ATOM     29  C   UNL     1       1.210  -1.312   0.556  0.00  0.00    +0.107 A 
ATOM     30  C   UNL     1       2.412  -0.638   0.670  0.00  0.00    +0.029 A 
ATOM     31  C   UNL     1       2.420   0.730   0.875  0.00  0.00    +0.006 A 
BRANCH  26  33
ATOM     32  C   UNL     1       0.504   3.236   2.495  0.00  0.00    +0.015 C 
ATOM     33  C   UNL     1       1.236   2.912   1.191  0.00  0.00    -0.013 C 
ATOM     34  C   UNL     1       2.681   3.405   1.281  0.00  0.00    +0.015 C 
ATOM     35  C   UNL     1       0.531   3.607   0.025  0.00  0.00    +0.015 C 
ENDBRANCH  26  33
ENDBRANCH  23  29
ENDBRANCH  21  23
ENDBRANCH   1  21
TORSDOF 8
