REMARK  Name = ZINC36244460
REMARK  3 active torsions:
REMARK  status: ('A' for Active; 'I' for Inactive)
REMARK    1  A    between atoms: C_3  and  C_6
REMARK    2  A    between atoms: C_7  and  C_16
REMARK    3  A    between atoms: C_16  and  C_17
REMARK                            x       y       z     vdW  Elec       q    Type
REMARK                         _______ _______ _______ _____ _____    ______ ____
ROOT
ATOM      1  C   UNL     1       3.575   0.619  -0.029  0.00  0.00    +0.129 A 
ATOM      2  C   UNL     1       4.359  -0.312   0.588  0.00  0.00    +0.068 A 
ATOM      3  N   UNL     1       5.658   0.020   0.324  0.00  0.00    -0.299 N 
ATOM      4  C   UNL     1       6.845  -0.553   0.685  0.00  0.00    +0.131 A 
ATOM      5  C   UNL     1       8.019  -0.015   0.284  0.00  0.00    +0.140 A 
ATOM      6  C   UNL     1       8.031   1.144  -0.511  0.00  0.00    +0.043 A 
ATOM      7  C   UNL     1       6.856   1.724  -0.876  0.00  0.00    +0.049 A 
ATOM      8  C   UNL     1       5.641   1.151  -0.451  0.00  0.00    +0.139 A 
ATOM      9  N   UNL     1       4.377   1.494  -0.658  0.00  0.00    -0.224 NA
ATOM     10  F   UNL     1       9.184  -0.594   0.649  0.00  0.00    -0.204 F 
ENDROOT
BRANCH   1  13
ATOM     11  C   UNL     1      -0.016   1.343   0.009  0.00  0.00    +0.042 A 
ATOM     12  C   UNL     1       1.326   1.774  -0.001  0.00  0.00    +0.051 A 
ATOM     13  C   UNL     1       2.097   0.654  -0.014  0.00  0.00    +0.155 A 
ATOM     14  O   UNL     1       1.281  -0.417  -0.012  0.00  0.00    -0.461 OA
ATOM     15  C   UNL     1       0.002  -0.004   0.002  0.00  0.00    +0.196 A 
ENDBRANCH   1  13
BRANCH   2  16
ATOM     16  C   UNL     1       3.882  -1.485   1.406  0.00  0.00    +0.174 C 
BRANCH  16  17
ATOM     17  C   UNL     1       3.758  -1.081   2.816  0.00  0.00    +0.069 C 
ATOM     18  N   UNL     1       3.663  -0.770   3.904  0.00  0.00    -0.196 NA
ENDBRANCH  16  17
ENDBRANCH   2  16
TORSDOF 3
