REMARK  Name = ZINC63708582
REMARK  9 active torsions:
REMARK  status: ('A' for Active; 'I' for Inactive)
REMARK    1  A    between atoms: C_1  and  O_2
REMARK    2  A    between atoms: O_2  and  C_3
REMARK    3  A    between atoms: C_3  and  C_5
REMARK    4  A    between atoms: N_11  and  C_18
REMARK    5  A    between atoms: C_18  and  C_19
REMARK    6  A    between atoms: C_22  and  C_25
REMARK    7  A    between atoms: N_27  and  C_28
REMARK    8  A    between atoms: C_28  and  C_29
REMARK    9  A    between atoms: C_29  and  C_30
REMARK                            x       y       z     vdW  Elec       q    Type
REMARK                         _______ _______ _______ _____ _____    ______ ____
ROOT
ATOM      1  C   UNL     1      -1.987  -8.503  -2.074  0.00  0.00    -0.030 A 
ATOM      2  C   UNL     1      -2.922  -8.489  -3.094  0.00  0.00    +0.006 A 
ATOM      3  C   UNL     1      -2.522  -8.657  -4.403  0.00  0.00    +0.013 A 
ATOM      4  C   UNL     1      -1.171  -8.841  -4.698  0.00  0.00    +0.037 A 
ATOM      5  C   UNL     1      -0.232  -8.854  -3.665  0.00  0.00    +0.013 A 
ATOM      6  C   UNL     1      -0.645  -8.679  -2.361  0.00  0.00    +0.006 A 
ENDROOT
BRANCH   4   7
ATOM      7  C   UNL     1      -0.735  -9.022  -6.100  0.00  0.00    +0.244 C 
ATOM      8  O   UNL     1      -1.554  -9.011  -6.997  0.00  0.00    -0.270 OA
ATOM      9  N   UNL     1       0.571  -9.199  -6.381  0.00  0.00    -0.311 N 
ATOM     10  H   UNL     1       1.225  -9.208  -5.665  0.00  0.00    +0.149 HD
BRANCH   9  11
ATOM     11  C   UNL     1       1.003  -9.379  -7.770  0.00  0.00    +0.109 C 
BRANCH  11  12
ATOM     12  C   UNL     1       2.522  -9.558  -7.812  0.00  0.00    +0.052 C 
BRANCH  12  13
ATOM     13  C   UNL     1       2.966  -9.743  -9.241  0.00  0.00    -0.040 C 
ATOM     14  C   UNL     1       3.424  -8.786 -10.080  0.00  0.00    -0.001 A 
ATOM     15  C   UNL     1       3.635  -7.342  -9.921  0.00  0.00    +0.010 A 
ATOM     16  C   UNL     1       4.116  -6.631 -10.966  0.00  0.00    +0.001 A 
ATOM     17  C   UNL     1       4.416  -7.236 -12.194  0.00  0.00    +0.002 A 
ATOM     18  C   UNL     1       4.248  -8.556 -12.416  0.00  0.00    +0.026 A 
ATOM     19  C   UNL     1       3.748  -9.401 -11.387  0.00  0.00    +0.043 A 
ATOM     20  N   UNL     1       3.501 -10.688 -11.356  0.00  0.00    -0.380 N 
ATOM     21  C   UNL     1       2.997 -11.036 -10.023  0.00  0.00    +0.144 C 
ATOM     22  H   UNL     1       3.633 -11.307 -12.091  0.00  0.00    +0.160 HD
ENDBRANCH  12  13
ENDBRANCH  11  12
ENDBRANCH   9  11
ENDBRANCH   4   7
BRANCH   1  23
ATOM     23  C   UNL     1      -2.431  -8.319  -0.646  0.00  0.00    +0.150 C 
BRANCH  23  30
ATOM     24  C   UNL     1      -1.247  -2.111   0.003  0.00  0.00    +0.060 C 
ATOM     25  C   UNL     1      -2.466  -2.756   0.005  0.00  0.00    +0.036 C 
ATOM     26  C   UNL     1      -2.486  -4.167   0.047  0.00  0.00    +0.050 C 
ATOM     27  N   UNL     1      -3.524  -4.824  -0.409  0.00  0.00    -0.196 NA
ATOM     28  C   UNL     1      -3.529  -6.158  -0.517  0.00  0.00    +0.163 C 
ATOM     29  S   UNL     1      -4.988  -6.951  -0.930  0.00  0.00    -0.016 S 
ATOM     30  N   UNL     1      -2.423  -6.893  -0.312  0.00  0.00    -0.247 N 
ATOM     31  C   UNL     1      -1.308  -6.336   0.198  0.00  0.00    +0.234 C 
ATOM     32  O   UNL     1      -0.304  -7.005   0.325  0.00  0.00    -0.274 OA
ATOM     33  C   UNL     1      -1.300  -4.897   0.606  0.00  0.00    +0.144 C 
ATOM     34  C   UNL     1      -0.022  -4.204   0.248  0.00  0.00    -0.008 C 
ATOM     35  C   UNL     1      -0.007  -2.896  -0.013  0.00  0.00    +0.012 C 
BRANCH  24  36
ATOM     36  C   UNL     1      -1.190  -0.632   0.010  0.00  0.00    +0.339 C 
ATOM     37  O   UNL     1      -2.217   0.015   0.023  0.00  0.00    -0.245 OA
BRANCH  36  39
ATOM     38  C   UNL     1      -0.017   1.425   0.010  0.00  0.00    +0.280 C 
ATOM     39  O   UNL     1       0.002  -0.004   0.002  0.00  0.00    -0.464 OA
ENDBRANCH  36  39
ENDBRANCH  24  36
ENDBRANCH  23  30
ENDBRANCH   1  23
TORSDOF 8
