REMARK  Name = ZINC30779982
REMARK  3 active torsions:
REMARK  status: ('A' for Active; 'I' for Inactive)
REMARK    1  A    between atoms: C_1  and  C_2
REMARK    2  A    between atoms: C_16  and  C_19
REMARK    3  A    between atoms: C_22  and  O_26
REMARK                            x       y       z     vdW  Elec       q    Type
REMARK                         _______ _______ _______ _____ _____    ______ ____
ROOT
ATOM      1  C   UNL     1      -0.264   6.920  -2.917  0.00  0.00    +0.044 C 
ATOM      2  C   UNL     1      -0.384   5.490  -2.455  0.00  0.00    -0.050 A 
ATOM      3  C   UNL     1      -1.348   4.665  -3.006  0.00  0.00    +0.005 A 
ATOM      4  C   UNL     1      -1.456   3.355  -2.585  0.00  0.00    +0.023 A 
ATOM      5  C   UNL     1      -0.598   2.865  -1.606  0.00  0.00    +0.033 A 
ATOM      6  C   UNL     1       0.365   3.694  -1.053  0.00  0.00    +0.003 A 
ATOM      7  C   UNL     1       0.469   5.006  -1.482  0.00  0.00    +0.011 A 
ATOM      8  C   UNL     1       1.309   3.199   0.015  0.00  0.00    +0.155 C 
ATOM      9  C   UNL     1       1.400   1.676  -0.036  0.00  0.00    +0.047 C 
ATOM     10  C   UNL     1       2.228   1.149   1.133  0.00  0.00    +0.011 C 
ATOM     11  C   UNL     1       1.648   1.673   2.450  0.00  0.00    +0.028 C 
ATOM     12  C   UNL     1       1.614   3.203   2.400  0.00  0.00    +0.160 C 
ATOM     13  O   UNL     1       0.816   3.617   1.290  0.00  0.00    -0.372 OA
ATOM     14  C   UNL     1      -0.013   1.086   0.008  0.00  0.00    +0.106 C 
ATOM     15  N   UNL     1      -0.720   1.531  -1.202  0.00  0.00    -0.336 N 
ATOM     16  H   UNL     1      -1.333   0.819  -1.774  0.00  0.00    +0.147 HD
ENDROOT
BRANCH  14  17
ATOM     17  C   UNL     1      -0.735   1.580   1.235  0.00  0.00    -0.026 A 
ATOM     18  C   UNL     1      -0.971   0.719   2.291  0.00  0.00    +0.009 A 
ATOM     19  C   UNL     1      -1.629   1.171   3.418  0.00  0.00    +0.047 A 
ATOM     20  C   UNL     1      -2.062   2.486   3.487  0.00  0.00    +0.131 A 
ATOM     21  C   UNL     1      -1.829   3.348   2.424  0.00  0.00    +0.060 A 
ATOM     22  C   UNL     1      -1.166   2.892   1.300  0.00  0.00    +0.024 A 
ATOM     23 BR   UNL     1      -2.418   5.142   2.513  0.00  0.00    -0.047 Br
BRANCH  20  24
ATOM     24  O   UNL     1      -2.714   2.932   4.594  0.00  0.00    -0.506 OA
ATOM     25  H   UNL     1      -3.057   3.975   4.647  0.00  0.00    +0.292 HD
ENDBRANCH  20  24
ENDBRANCH  14  17
TORSDOF 2
