REMARK  Name = ZINC04669188
REMARK  7 active torsions:
REMARK  status: ('A' for Active; 'I' for Inactive)
REMARK    1  A    between atoms: C_1  and  C_2
REMARK    2  A    between atoms: C_5  and  N_9
REMARK    3  A    between atoms: C_7  and  C_8
REMARK    4  A    between atoms: N_9  and  C_10
REMARK    5  A    between atoms: C_10  and  N_12
REMARK    6  A    between atoms: N_12  and  N_13
REMARK    7  A    between atoms: C_26  and  O_29
REMARK                            x       y       z     vdW  Elec       q    Type
REMARK                         _______ _______ _______ _____ _____    ______ ____
ROOT
ATOM      1  N   UNL     1      -1.100   6.057  -0.220  0.00  0.00    -0.185 NA
ATOM      2  C   UNL     1      -0.001   5.398  -0.016  0.00  0.00    +0.074 C 
ATOM      3  C   UNL     1       1.362   6.047  -0.183  0.00  0.00    +0.105 C 
ATOM      4  C   UNL     1       2.277   5.012  -0.853  0.00  0.00    +0.116 C 
ATOM      5  C   UNL     1       3.677   5.607  -1.016  0.00  0.00    +0.048 C 
ATOM      6  C   UNL     1       4.591   4.583  -1.691  0.00  0.00    +0.004 C 
ATOM      7  C   UNL     1       4.025   4.222  -3.066  0.00  0.00    +0.000 C 
ATOM      8  C   UNL     1       2.625   3.628  -2.903  0.00  0.00    +0.004 C 
ATOM      9  C   UNL     1       1.711   4.653  -2.228  0.00  0.00    +0.048 C 
ATOM     10  O   UNL     1       2.345   3.841  -0.041  0.00  0.00    -0.485 OA
ATOM     11  C   UNL     1       1.188   3.250   0.350  0.00  0.00    +0.130 A 
ATOM     12  C   UNL     1      -0.010   3.975   0.390  0.00  0.00    +0.043 A 
ATOM     13  C   UNL     1      -1.190   3.363   0.806  0.00  0.00    +0.058 A 
ATOM     14  C   UNL     1      -1.175   2.027   1.171  0.00  0.00    +0.118 A 
ATOM     15  C   UNL     1       0.013   1.310   1.132  0.00  0.00    +0.049 A 
ATOM     16  C   UNL     1       1.186   1.915   0.722  0.00  0.00    +0.050 A 
ENDROOT
BRANCH   1  17
ATOM     17  N   UNL     1      -1.049   7.404  -0.604  0.00  0.00    -0.218 N 
ATOM     18  H   UNL     1      -0.192   7.843  -0.718  0.00  0.00    +0.176 HD
BRANCH  17  19
ATOM     19  C   UNL     1      -2.191   8.088  -0.816  0.00  0.00    +0.154 C 
ATOM     20  S   UNL     1      -2.128   9.733  -1.286  0.00  0.00    -0.017 S 
BRANCH  19  21
ATOM     21  N   UNL     1      -3.382   7.477  -0.658  0.00  0.00    -0.296 N 
ATOM     22  H   UNL     1      -3.417   6.530  -0.453  0.00  0.00    +0.154 HD
BRANCH  21  27
ATOM     23  C   UNL     1      -8.186  10.445  -1.198  0.00  0.00    +0.044 C 
ATOM     24  C   UNL     1      -6.909   9.656  -1.055  0.00  0.00    -0.047 A 
ATOM     25  C   UNL     1      -5.896   9.808  -1.984  0.00  0.00    +0.005 A 
ATOM     26  C   UNL     1      -4.726   9.087  -1.856  0.00  0.00    +0.023 A 
ATOM     27  C   UNL     1      -4.566   8.209  -0.791  0.00  0.00    +0.033 A 
ATOM     28  C   UNL     1      -5.587   8.055   0.137  0.00  0.00    +0.027 A 
ATOM     29  C   UNL     1      -6.754   8.783   0.005  0.00  0.00    -0.046 A 
ATOM     30  C   UNL     1      -7.860   8.621   1.016  0.00  0.00    +0.044 C 
ENDBRANCH  21  27
ENDBRANCH  19  21
ENDBRANCH  17  19
ENDBRANCH   1  17
BRANCH  14  31
ATOM     31  O   UNL     1      -2.323   1.419   1.573  0.00  0.00    -0.507 OA
ATOM     32  H   UNL     1      -2.486   1.477   2.524  0.00  0.00    +0.292 HD
ENDBRANCH  14  31
TORSDOF 5
