REMARK  Name = ZINC65740014
REMARK  7 active torsions:
REMARK  status: ('A' for Active; 'I' for Inactive)
REMARK    1  A    between atoms: C_1  and  C_2
REMARK    2  A    between atoms: C_2  and  C_4
REMARK    3  A    between atoms: C_4  and  O_34
REMARK    4  A    between atoms: C_9  and  C_33
REMARK    5  A    between atoms: C_11  and  C_25
REMARK    6  A    between atoms: C_28  and  N_31
REMARK    7  A    between atoms: N_31  and  C_32
REMARK                            x       y       z     vdW  Elec       q    Type
REMARK                         _______ _______ _______ _____ _____    ______ ____
ROOT
ATOM      1  C   UNL     1      -1.866  -0.270  -1.117  0.00  0.00    +0.129 C 
ATOM      2  C   UNL     1      -0.565   0.536  -1.348  0.00  0.00    +0.043 C 
ATOM      3  C   UNL     1       0.578  -0.506  -1.482  0.00  0.00    +0.008 C 
ATOM      4  C   UNL     1      -0.160  -1.774  -1.931  0.00  0.00    +0.005 C 
ATOM      5  C   UNL     1      -1.433  -1.732  -1.046  0.00  0.00    +0.008 C 
ATOM      6  C   UNL     1      -2.415  -2.736  -1.625  0.00  0.00    +0.022 C 
ATOM      7  C   UNL     1      -1.823  -4.135  -1.396  0.00  0.00    +0.046 C 
ATOM      8  C   UNL     1      -0.395  -4.208  -1.899  0.00  0.00    -0.055 C 
ATOM      9  C   UNL     1      -0.037  -5.296  -2.578  0.00  0.00    -0.044 C 
ATOM     10  C   UNL     1      -1.033  -6.403  -2.839  0.00  0.00    +0.043 C 
ATOM     11  C   UNL     1      -0.868  -6.877  -4.287  0.00  0.00    +0.083 C 
ATOM     12  C   UNL     1       0.580  -7.174  -4.569  0.00  0.00    +0.157 C 
ATOM     13  O   UNL     1       0.866  -8.100  -5.302  0.00  0.00    -0.293 OA
ATOM     14  C   UNL     1       1.609  -6.401  -4.002  0.00  0.00    +0.050 C 
ATOM     15  C   UNL     1       1.330  -5.466  -3.069  0.00  0.00    -0.041 C 
ATOM     16  C   UNL     1       2.401  -4.573  -2.493  0.00  0.00    +0.036 C 
ATOM     17  C   UNL     1       1.842  -3.152  -2.441  0.00  0.00    +0.013 C 
ATOM     18  C   UNL     1       0.576  -3.076  -1.645  0.00  0.00    +0.020 C 
ATOM     19  C   UNL     1      -1.079  -2.102   0.396  0.00  0.00    +0.015 C 
ENDROOT
BRANCH   7  20
ATOM     20  C   UNL     1      -1.844  -4.447   0.078  0.00  0.00    -0.040 A 
ATOM     21  C   UNL     1      -2.951  -4.116   0.838  0.00  0.00    +0.006 A 
ATOM     22  C   UNL     1      -2.973  -4.400   2.189  0.00  0.00    +0.023 A 
ATOM     23  C   UNL     1      -1.882  -5.019   2.785  0.00  0.00    +0.027 A 
ATOM     24  C   UNL     1      -0.772  -5.351   2.019  0.00  0.00    +0.023 A 
ATOM     25  C   UNL     1      -0.758  -5.069   0.667  0.00  0.00    +0.006 A 
BRANCH  23  26
ATOM     26  N   UNL     1      -1.901  -5.308   4.152  0.00  0.00    -0.347 N 
ATOM     27  C   UNL     1      -0.750  -5.961   4.779  0.00  0.00    +0.125 C 
ATOM     28  H   UNL     1      -2.677  -5.076   4.686  0.00  0.00    +0.146 HD
ENDBRANCH  23  26
ENDBRANCH   7  20
BRANCH   1  30
ATOM     29  C   UNL     1      -3.986  -0.090   0.395  0.00  0.00    +0.089 C 
ATOM     30  C   UNL     1      -2.514   0.146   0.179  0.00  0.00    +0.162 C 
ATOM     31  O   UNL     1      -1.852   0.669   1.044  0.00  0.00    -0.295 OA
ENDBRANCH   1  30
BRANCH   1  32
ATOM     32  O   UNL     1      -2.771  -0.074  -2.206  0.00  0.00    -0.381 OA
ATOM     33  H   UNL     1      -3.066   0.840  -2.313  0.00  0.00    +0.211 HD
ENDBRANCH   1  32
TORSDOF 4
