REMARK  Name = ZINC36267092
REMARK  9 active torsions:
REMARK  status: ('A' for Active; 'I' for Inactive)
REMARK    1  A    between atoms: C_1  and  C_2
REMARK    2  A    between atoms: C_4  and  C_23
REMARK    3  A    between atoms: C_5  and  C_22
REMARK    4  A    between atoms: C_6  and  S_9
REMARK    5  A    between atoms: C_7  and  C_8
REMARK    6  A    between atoms: S_9  and  N_12
REMARK    7  A    between atoms: N_12  and  C_13
REMARK    8  A    between atoms: N_12  and  C_14
REMARK    9  A    between atoms: C_19  and  O_21
REMARK                            x       y       z     vdW  Elec       q    Type
REMARK                         _______ _______ _______ _____ _____    ______ ____
ROOT
ATOM      1  S   UNL     1      -0.697  -2.375   2.819  0.00  0.00    +0.061 S 
ATOM      2  O   UNL     1      -1.263  -1.351   3.625  0.00  0.00    -0.153 OA
ATOM      3  O   UNL     1      -1.264  -3.675   2.731  0.00  0.00    -0.153 OA
ENDROOT
BRANCH   1   9
ATOM      4  C   UNL     1      -0.188  -3.049  -2.339  0.00  0.00    +0.044 C 
ATOM      5  C   UNL     1      -0.387  -2.109  -1.178  0.00  0.00    -0.045 A 
ATOM      6  C   UNL     1      -0.515  -0.751  -1.402  0.00  0.00    +0.007 A 
ATOM      7  C   UNL     1      -0.697   0.111  -0.337  0.00  0.00    -0.045 A 
ATOM      8  C   UNL     1      -0.753  -0.385   0.952  0.00  0.00    -0.021 A 
ATOM      9  C   UNL     1      -0.626  -1.743   1.176  0.00  0.00    +0.112 A 
ATOM     10  C   UNL     1      -0.448  -2.606   0.111  0.00  0.00    -0.021 A 
ATOM     11  C   UNL     1      -0.315  -4.087   0.355  0.00  0.00    +0.046 C 
ATOM     12  C   UNL     1      -0.951   0.555   2.113  0.00  0.00    +0.046 C 
ATOM     13  C   UNL     1      -0.835   1.591  -0.582  0.00  0.00    +0.044 C 
ENDBRANCH   1   9
BRANCH   1  14
ATOM     14  N   UNL     1       0.865  -2.574   3.335  0.00  0.00    -0.176 NA
ATOM     15  C   UNL     1       1.577  -1.458   3.961  0.00  0.00    +0.132 C 
BRANCH  14  16
ATOM     16  C   UNL     1       1.533  -3.866   3.164  0.00  0.00    +0.089 C 
ATOM     17  C   UNL     1       2.021  -4.402   4.527  0.00  0.00    -0.059 C 
ATOM     18  N   UNL     1       3.322  -5.053   4.230  0.00  0.00    +0.382 N 
ATOM     19  C   UNL     1       3.965  -4.149   3.242  0.00  0.00    -0.049 C 
ATOM     20  C   UNL     1       2.811  -3.700   2.316  0.00  0.00    +0.115 C 
ATOM     21  H   UNL     1       3.884  -5.118   5.067  0.00  0.00    -0.086 HD
ATOM     22  H   UNL     1       3.176  -5.967   3.830  0.00  0.00    -0.086 HD
BRANCH  20  23
ATOM     23  O   UNL     1       2.750  -4.534   1.157  0.00  0.00    -0.392 OA
ATOM     24  H   UNL     1       3.527  -4.471   0.586  0.00  0.00    +0.210 HD
ENDBRANCH  20  23
ENDBRANCH  14  16
ENDBRANCH   1  14
TORSDOF 4
