REMARK  Name = ZINC38872816
REMARK  9 active torsions:
REMARK  status: ('A' for Active; 'I' for Inactive)
REMARK    1  A    between atoms: C_1  and  C_2
REMARK    2  A    between atoms: C_2  and  O_3
REMARK    3  A    between atoms: O_3  and  C_4
REMARK    4  A    between atoms: C_4  and  C_6
REMARK    5  A    between atoms: C_10  and  N_11
REMARK    6  A    between atoms: C_12  and  C_14
REMARK    7  A    between atoms: N_17  and  C_20
REMARK    8  A    between atoms: C_20  and  C_21
REMARK    9  A    between atoms: C_23  and  C_26
REMARK                            x       y       z     vdW  Elec       q    Type
REMARK                         _______ _______ _______ _____ _____    ______ ____
ROOT
ATOM      1  N   UNL     1      -0.604  -2.455  -3.925  0.00  0.00    -0.279 N 
ATOM      2  C   UNL     1      -1.119  -2.783  -5.126  0.00  0.00    +0.221 C 
ATOM      3  O   UNL     1      -0.397  -3.225  -5.995  0.00  0.00    -0.275 OA
ATOM      4  H   UNL     1      -1.181  -2.102  -3.230  0.00  0.00    +0.155 HD
ENDROOT
BRANCH   1   9
ATOM      5  C   UNL     1       1.449  -2.344  -2.516  0.00  0.00    +0.091 A 
ATOM      6  C   UNL     1       2.876  -2.619  -2.515  0.00  0.00    -0.021 A 
ATOM      7  C   UNL     1       3.343  -3.117  -3.680  0.00  0.00    -0.004 A 
ATOM      8  S   UNL     1       1.922  -3.212  -4.730  0.00  0.00    -0.077 S 
ATOM      9  C   UNL     1       0.750  -2.624  -3.681  0.00  0.00    +0.086 A 
ATOM     10  C   UNL     1       4.757  -3.498  -3.993  0.00  0.00    +0.043 C 
ATOM     11  C   UNL     1       5.669  -2.887  -2.920  0.00  0.00    +0.005 C 
ATOM     12  C   UNL     1       5.082  -3.191  -1.538  0.00  0.00    +0.005 C 
ATOM     13  C   UNL     1       3.799  -2.383  -1.329  0.00  0.00    +0.037 C 
BRANCH   5  14
ATOM     14  C   UNL     1       0.776  -1.800  -1.335  0.00  0.00    +0.342 C 
ATOM     15  O   UNL     1       0.312  -2.552  -0.499  0.00  0.00    -0.245 OA
BRANCH  14  16
ATOM     16  O   UNL     1       0.671  -0.465  -1.174  0.00  0.00    -0.461 OA
BRANCH  16  18
ATOM     17  C   UNL     1      -0.019   1.526   0.010  0.00  0.00    +0.048 C 
ATOM     18  C   UNL     1       0.002  -0.004   0.002  0.00  0.00    +0.229 C 
ENDBRANCH  16  18
ENDBRANCH  14  16
ENDBRANCH   5  14
ENDBRANCH   1   9
BRANCH   2  19
ATOM     19  C   UNL     1      -2.591  -2.599  -5.391  0.00  0.00    +0.072 C 
ATOM     20  C   UNL     1      -3.398  -3.452  -4.408  0.00  0.00    -0.006 C 
ATOM     21  C   UNL     1      -4.887  -3.323  -4.733  0.00  0.00    -0.077 C 
ATOM     22  N   UNL     1      -5.135  -3.788  -6.103  0.00  0.00    +0.386 N 
ATOM     23  C   UNL     1      -4.421  -2.929  -7.056  0.00  0.00    -0.077 C 
ATOM     24  C   UNL     1      -2.913  -3.043  -6.821  0.00  0.00    -0.006 C 
ATOM     25  H   UNL     1      -4.810  -4.738  -6.199  0.00  0.00    -0.081 HD
BRANCH  22  26
ATOM     26  C   UNL     1      -6.576  -3.735  -6.383  0.00  0.00    +0.022 C 
BRANCH  26  27
ATOM     27  C   UNL     1      -6.845  -4.326  -7.743  0.00  0.00    +0.211 A 
ATOM     28  N   UNL     1      -7.106  -5.577  -7.991  0.00  0.00    -0.192 NA
ATOM     29  C   UNL     1      -7.294  -5.756  -9.312  0.00  0.00    +0.209 A 
ATOM     30  N   UNL     1      -7.150  -4.599  -9.915  0.00  0.00    -0.056 NA
ATOM     31  O   UNL     1      -6.862  -3.650  -8.900  0.00  0.00    -0.340 OA
BRANCH  29  32
ATOM     32  C   UNL     1      -7.609  -7.040  -9.972  0.00  0.00    +0.060 A 
ATOM     33  C   UNL     1      -7.807  -7.301 -11.302  0.00  0.00    +0.019 A 
ATOM     34  C   UNL     1      -8.092  -8.591 -11.689  0.00  0.00    +0.008 A 
ATOM     35  C   UNL     1      -8.167  -9.564 -10.743  0.00  0.00    +0.046 A 
ATOM     36  S   UNL     1      -7.822  -8.657  -9.245  0.00  0.00    -0.093 S 
ENDBRANCH  29  32
ENDBRANCH  26  27
ENDBRANCH  22  26
ENDBRANCH   2  19
TORSDOF 8
