REMARK  Name = ZINC03943033
REMARK  10 active torsions:
REMARK  status: ('A' for Active; 'I' for Inactive)
REMARK    1  A    between atoms: C_1  and  C_2
REMARK    2  A    between atoms: C_6  and  C_38
REMARK    3  A    between atoms: C_7  and  C_8
REMARK    4  A    between atoms: C_13  and  C_16
REMARK    5  A    between atoms: C_13  and  N_79
REMARK    6  A    between atoms: C_19  and  N_22
REMARK    7  A    between atoms: N_22  and  C_23
REMARK    8  A    between atoms: N_22  and  C_32
REMARK    9  A    between atoms: C_23  and  C_24
REMARK   10  A    between atoms: C_28  and  C_30
REMARK                            x       y       z     vdW  Elec       q    Type
REMARK                         _______ _______ _______ _____ _____    ______ ____
ROOT
ATOM      1  C   UNL     1      -3.455  -2.256  -3.632  0.00  0.00    -0.076 C 
ATOM      2  C   UNL     1      -4.565  -2.916  -4.453  0.00  0.00    +0.004 C 
ATOM      3  C   UNL     1      -4.580  -2.312  -5.860  0.00  0.00    +0.070 C 
ATOM      4  C   UNL     1      -3.207  -2.510  -6.506  0.00  0.00    +0.004 C 
ATOM      5  C   UNL     1      -2.136  -1.862  -5.626  0.00  0.00    -0.076 C 
ATOM      6  N   UNL     1      -2.157  -2.504  -4.294  0.00  0.00    +0.383 N 
ATOM      7  H   UNL     1      -2.030  -3.516  -4.410  0.00  0.00    -0.081 HD
ENDROOT
BRANCH   6  13
ATOM      8  C   UNL     1       0.037  -0.008  -0.026  0.00  0.00    +0.249 C 
ATOM      9  O   UNL     1       0.066  -0.626   1.020  0.00  0.00    -0.270 OA
ATOM     10  N   UNL     1       0.030  -0.670  -1.200  0.00  0.00    -0.298 N 
ATOM     11  C   UNL     1      -0.012   0.064  -2.472  0.00  0.00    +0.107 C 
ATOM     12  C   UNL     1      -1.179  -0.458  -3.309  0.00  0.00    +0.007 C 
ATOM     13  C   UNL     1      -1.056  -1.976  -3.462  0.00  0.00    -0.066 C 
ATOM     14  C   UNL     1      -1.117  -2.635  -2.082  0.00  0.00    +0.007 C 
ATOM     15  C   UNL     1       0.057  -2.139  -1.231  0.00  0.00    +0.107 C 
ATOM     16  C   UNL     1       0.277  -2.314  -4.131  0.00  0.00    -0.010 C 
BRANCH   8  23
ATOM     17  C   UNL     1       2.537   1.508  -0.052  0.00  0.00    +0.044 C 
ATOM     18  C   UNL     1       1.201   2.204  -0.023  0.00  0.00    -0.035 A 
ATOM     19  C   UNL     1       1.122   3.586  -0.008  0.00  0.00    +0.025 A 
ATOM     20  C   UNL     1      -0.121   4.192   0.019  0.00  0.00    +0.134 A 
ATOM     21  N   UNL     1      -1.230   3.474   0.030  0.00  0.00    -0.143 N 
ATOM     22  C   UNL     1      -1.205   2.157   0.012  0.00  0.00    +0.071 A 
ATOM     23  C   UNL     1       0.009   1.470  -0.010  0.00  0.00    +0.062 A 
ATOM     24  C   UNL     1      -2.500   1.385   0.020  0.00  0.00    +0.068 C 
ATOM     25  O   UNL     1      -2.479   4.139   0.057  0.00  0.00    -0.164 OA
ENDBRANCH   8  23
ENDBRANCH   6  13
BRANCH   3  26
ATOM     26  N   UNL     1      -5.603  -2.978  -6.669  0.00  0.00    -0.323 N 
BRANCH  26  27
ATOM     27  C   UNL     1      -5.480  -4.337  -6.970  0.00  0.00    +0.030 A 
ATOM     28  C   UNL     1      -6.392  -4.947  -7.822  0.00  0.00    +0.023 A 
ATOM     29  C   UNL     1      -6.264  -6.289  -8.121  0.00  0.00    +0.002 A 
ATOM     30  C   UNL     1      -5.236  -7.028  -7.566  0.00  0.00    +0.000 A 
ATOM     31  C   UNL     1      -4.329  -6.425  -6.713  0.00  0.00    +0.002 A 
ATOM     32  C   UNL     1      -4.448  -5.082  -6.414  0.00  0.00    +0.023 A 
ENDBRANCH  26  27
BRANCH  26  33
ATOM     33  C   UNL     1      -6.755  -2.220  -7.163  0.00  0.00    +0.140 C 
BRANCH  33  34
ATOM     34  C   UNL     1      -6.430  -1.634  -8.513  0.00  0.00    -0.029 A 
ATOM     35  C   UNL     1      -5.864  -0.374  -8.599  0.00  0.00    +0.005 A 
ATOM     36  C   UNL     1      -5.557   0.170  -9.834  0.00  0.00    +0.002 A 
ATOM     37  C   UNL     1      -5.824  -0.536 -10.988  0.00  0.00    +0.019 A 
ATOM     38  C   UNL     1      -6.400  -1.806 -10.908  0.00  0.00    +0.052 A 
ATOM     39  C   UNL     1      -6.702  -2.351  -9.659  0.00  0.00    +0.024 A 
BRANCH  38  40
ATOM     40  C   UNL     1      -6.680  -2.545 -12.102  0.00  0.00    +0.099 C 
ATOM     41  N   UNL     1      -6.902  -3.131 -13.050  0.00  0.00    -0.191 NA
ENDBRANCH  38  40
ENDBRANCH  33  34
ENDBRANCH  26  33
ENDBRANCH   3  26
TORSDOF 7
