REMARK  Name = ZINC33937095
REMARK  11 active torsions:
REMARK  status: ('A' for Active; 'I' for Inactive)
REMARK    1  A    between atoms: C_1  and  C_2
REMARK    2  A    between atoms: C_2  and  C_3
REMARK    3  A    between atoms: C_3  and  C_5
REMARK    4  A    between atoms: C_3  and  N_17
REMARK    5  A    between atoms: N_9  and  C_10
REMARK    6  A    between atoms: C_10  and  C_11
REMARK    7  A    between atoms: N_17  and  C_18
REMARK    8  A    between atoms: N_17  and  C_26
REMARK    9  A    between atoms: C_18  and  C_19
REMARK   10  A    between atoms: C_22  and  C_25
REMARK   11  A    between atoms: C_26  and  C_27
REMARK                            x       y       z     vdW  Elec       q    Type
REMARK                         _______ _______ _______ _____ _____    ______ ____
ROOT
ATOM      1  N   UNL     1      -2.250   0.088   1.977  0.00  0.00    +0.392 N 
ATOM      2  H   UNL     1      -1.671  -0.330   2.690  0.00  0.00    -0.080 HD
ENDROOT
BRANCH   1   3
ATOM      3  C   UNL     1      -1.628  -0.112   0.661  0.00  0.00    +0.003 C 
BRANCH   3   4
ATOM      4  C   UNL     1      -2.476   0.541  -0.400  0.00  0.00    +0.138 A 
ATOM      5  N   UNL     1      -3.783   0.503  -0.490  0.00  0.00    -0.115 NA
ATOM      6  N   UNL     1      -4.130   1.180  -1.530  0.00  0.00    -0.023 NA
ATOM      7  N   UNL     1      -3.078   1.650  -2.105  0.00  0.00    -0.044 NA
ATOM      8  N   UNL     1      -2.038   1.282  -1.435  0.00  0.00    -0.228 N 
BRANCH   8   9
ATOM      9  C   UNL     1      -0.644   1.607  -1.744  0.00  0.00    +0.178 C 
BRANCH   9  10
ATOM     10  C   UNL     1      -0.111   0.624  -2.788  0.00  0.00    +0.140 C 
ATOM     11  C   UNL     1       1.334   1.005  -3.197  0.00  0.00    +0.035 C 
ATOM     12  C   UNL     1       1.875  -0.368  -3.683  0.00  0.00    +0.031 C 
ATOM     13  C   UNL     1       1.154  -1.356  -2.741  0.00  0.00    +0.160 C 
ATOM     14  O   UNL     1      -0.009  -0.694  -2.225  0.00  0.00    -0.375 OA
ENDBRANCH   9  10
ENDBRANCH   8   9
ENDBRANCH   3   4
BRANCH   3  16
ATOM     15  C   UNL     1      -0.595  -2.260   1.409  0.00  0.00    +0.002 C 
ATOM     16  C   UNL     1      -1.514  -1.610   0.373  0.00  0.00    -0.011 C 
ENDBRANCH   3  16
ENDBRANCH   1   3
BRANCH   1  17
ATOM     17  C   UNL     1      -2.389   1.526   2.240  0.00  0.00    -0.042 C 
BRANCH  17  18
ATOM     18  C   UNL     1      -1.022   2.146   2.380  0.00  0.00    -0.064 A 
ATOM     19  C   UNL     1      -0.359   2.091   3.592  0.00  0.00    +0.002 A 
ATOM     20  C   UNL     1       0.894   2.659   3.720  0.00  0.00    +0.003 A 
ATOM     21  C   UNL     1       1.485   3.282   2.637  0.00  0.00    -0.050 A 
ATOM     22  C   UNL     1       0.823   3.336   1.425  0.00  0.00    +0.003 A 
ATOM     23  C   UNL     1      -0.429   2.764   1.295  0.00  0.00    +0.002 A 
ATOM     24  C   UNL     1       2.851   3.902   2.777  0.00  0.00    +0.044 C 
ENDBRANCH  17  18
ENDBRANCH   1  17
BRANCH   1  25
ATOM     25  C   UNL     1      -3.577  -0.543   1.992  0.00  0.00    -0.036 C 
BRANCH  25  26
ATOM     26  C   UNL     1      -4.152  -0.469   3.383  0.00  0.00    +0.001 A 
ATOM     27  C   UNL     1      -5.011   0.531   3.707  0.00  0.00    +0.017 A 
ATOM     28  C   UNL     1      -5.552   0.575   5.065  0.00  0.00    +0.002 A 
ATOM     29  C   UNL     1      -6.441   1.585   5.455  0.00  0.00    +0.059 A 
ATOM     30  C   UNL     1      -6.933   1.601   6.742  0.00  0.00    +0.167 A 
ATOM     31  C   UNL     1      -6.550   0.613   7.657  0.00  0.00    +0.168 A 
ATOM     32  C   UNL     1      -5.673  -0.388   7.279  0.00  0.00    +0.075 A 
ATOM     33  C   UNL     1      -5.167  -0.418   5.986  0.00  0.00    +0.053 A 
ATOM     34  N   UNL     1      -4.290  -1.409   5.592  0.00  0.00    -0.322 N 
ATOM     35  H   UNL     1      -4.026  -2.093   6.227  0.00  0.00    +0.169 HD
ATOM     36  C   UNL     1      -3.802  -1.442   4.340  0.00  0.00    +0.251 A 
ATOM     37  O   UNL     1      -3.033  -2.335   4.026  0.00  0.00    -0.268 OA
ATOM     38  O   UNL     1      -7.174   0.858   8.845  0.00  0.00    -0.453 OA
ATOM     39  C   UNL     1      -7.615   2.227   8.774  0.00  0.00    +0.466 C 
ATOM     40  O   UNL     1      -7.795   2.458   7.365  0.00  0.00    -0.453 OA
ENDBRANCH  25  26
ENDBRANCH   1  25
TORSDOF 9
