REMARK  Name = ZINC36156677
REMARK  12 active torsions:
REMARK  status: ('A' for Active; 'I' for Inactive)
REMARK    1  A    between atoms: C_1  and  C_2
REMARK    2  A    between atoms: C_2  and  C_3
REMARK    3  A    between atoms: C_2  and  N_4
REMARK    4  A    between atoms: N_4  and  C_5
REMARK    5  A    between atoms: N_4  and  C_21
REMARK    6  A    between atoms: C_5  and  C_6
REMARK    7  A    between atoms: C_21  and  C_22
REMARK    8  A    between atoms: C_22  and  C_24
REMARK    9  A    between atoms: C_22  and  O_33
REMARK   10  A    between atoms: C_24  and  O_25
REMARK   11  A    between atoms: O_25  and  C_26
REMARK   12  A    between atoms: C_26  and  C_27
REMARK                            x       y       z     vdW  Elec       q    Type
REMARK                         _______ _______ _______ _____ _____    ______ ____
ROOT
ATOM      1  N   UNL     1      -1.247  -0.480   0.180  0.00  0.00    +0.388 N 
ATOM      2  H   UNL     1      -1.494  -0.066   1.067  0.00  0.00    -0.081 HD
ENDROOT
BRANCH   1   4
ATOM      3  C   UNL     1       0.493  -0.702  -1.530  0.00  0.00    -0.014 C 
ATOM      4  C   UNL     1       0.111  -0.061  -0.194  0.00  0.00    -0.074 C 
ATOM      5  C   UNL     1       0.157   1.462  -0.327  0.00  0.00    -0.014 C 
ENDBRANCH   1   4
BRANCH   1   6
ATOM      6  C   UNL     1      -2.196  -0.036  -0.849  0.00  0.00    -0.003 C 
BRANCH   6   7
ATOM      7  C   UNL     1      -2.560   1.407  -0.608  0.00  0.00    +0.094 A 
ATOM      8  N   UNL     1      -3.321   2.064  -1.521  0.00  0.00    -0.312 N 
ATOM      9  H   UNL     1      -3.619   1.595  -2.316  0.00  0.00    +0.170 HD
ATOM     10  C   UNL     1      -3.669   3.352  -1.345  0.00  0.00    +0.260 A 
ATOM     11  O   UNL     1      -4.353   3.928  -2.174  0.00  0.00    -0.267 OA
ATOM     12  C   UNL     1      -3.223   4.036  -0.167  0.00  0.00    +0.075 A 
ATOM     13  C   UNL     1      -3.474   5.420   0.231  0.00  0.00    -0.023 A 
ATOM     14  C   UNL     1      -2.938   5.829   1.400  0.00  0.00    -0.004 A 
ATOM     15  S   UNL     1      -2.079   4.412   2.031  0.00  0.00    -0.073 S 
ATOM     16  C   UNL     1      -2.443   3.274   0.718  0.00  0.00    +0.116 A 
ATOM     17  N   UNL     1      -2.143   2.001   0.478  0.00  0.00    -0.229 NA
ATOM     18  C   UNL     1      -3.047   7.186   2.024  0.00  0.00    +0.043 C 
ATOM     19  C   UNL     1      -3.553   8.169   0.958  0.00  0.00    +0.005 C 
ATOM     20  C   UNL     1      -4.759   7.547   0.249  0.00  0.00    +0.005 C 
ATOM     21  C   UNL     1      -4.303   6.377  -0.623  0.00  0.00    +0.037 C 
ENDBRANCH   6   7
ENDBRANCH   1   6
BRANCH   1  22
ATOM     22  C   UNL     1      -1.294  -1.944   0.292  0.00  0.00    -0.044 C 
BRANCH  22  23
ATOM     23  C   UNL     1      -0.399  -2.396   1.447  0.00  0.00    +0.124 C 
BRANCH  23  24
ATOM     24  O   UNL     1      -0.863  -1.812   2.666  0.00  0.00    -0.391 OA
ATOM     25  H   UNL     1      -1.770  -2.052   2.897  0.00  0.00    +0.210 HD
ENDBRANCH  23  24
BRANCH  23  26
ATOM     26  C   UNL     1      -0.447  -3.921   1.562  0.00  0.00    +0.189 C 
BRANCH  26  27
ATOM     27  O   UNL     1       0.476  -4.353   2.564  0.00  0.00    -0.373 OA
BRANCH  27  28
ATOM     28  C   UNL     1       0.510  -5.769   2.752  0.00  0.00    +0.195 C 
BRANCH  28  29
ATOM     29  C   UNL     1       1.512  -6.109   3.824  0.00  0.00    -0.022 A 
ATOM     30  C   UNL     1       2.831  -6.350   3.487  0.00  0.00    +0.006 A 
ATOM     31  C   UNL     1       3.750  -6.662   4.471  0.00  0.00    +0.000 A 
ATOM     32  C   UNL     1       3.351  -6.734   5.792  0.00  0.00    +0.000 A 
ATOM     33  C   UNL     1       2.032  -6.492   6.130  0.00  0.00    +0.000 A 
ATOM     34  C   UNL     1       1.114  -6.176   5.146  0.00  0.00    +0.006 A 
ENDBRANCH  28  29
ENDBRANCH  27  28
ENDBRANCH  26  27
ENDBRANCH  23  26
ENDBRANCH  22  23
ENDBRANCH   1  22
TORSDOF 10
