REMARK  Name = ZINC23264673
REMARK  11 active torsions:
REMARK  status: ('A' for Active; 'I' for Inactive)
REMARK    1  A    between atoms: C_1  and  C_2
REMARK    2  A    between atoms: C_3  and  C_31
REMARK    3  A    between atoms: N_4  and  C_27
REMARK    4  A    between atoms: C_5  and  S_7
REMARK    5  A    between atoms: S_7  and  C_8
REMARK    6  A    between atoms: C_8  and  C_10
REMARK    7  A    between atoms: C_8  and  C_11
REMARK    8  A    between atoms: N_16  and  C_17
REMARK    9  A    between atoms: C_27  and  C_28
REMARK   10  A    between atoms: C_28  and  C_29
REMARK   11  A    between atoms: C_28  and  C_30
REMARK                            x       y       z     vdW  Elec       q    Type
REMARK                         _______ _______ _______ _____ _____    ______ ____
ROOT
ATOM      1  C   UNL     1      -0.749   3.086   1.275  0.00  0.00    +0.233 C 
ATOM      2  O   UNL     1      -1.747   3.681   0.929  0.00  0.00    -0.274 OA
ATOM      3  N   UNL     1       0.342   3.773   1.668  0.00  0.00    -0.239 N 
ATOM      4  C   UNL     1       0.324   5.120   1.675  0.00  0.00    +0.306 C 
ATOM      5  O   UNL     1      -0.677   5.716   1.328  0.00  0.00    -0.252 OA
ATOM      6  N   UNL     1       1.415   5.807   2.067  0.00  0.00    -0.294 N 
ATOM      7  H   UNL     1       1.248   3.233   1.982  0.00  0.00    +0.159 HD
ATOM      8  H   UNL     1       2.321   5.267   2.382  0.00  0.00    +0.151 HD
ENDROOT
BRANCH   6   9
ATOM      9  C   UNL     1       1.395   7.272   2.076  0.00  0.00    +0.037 C 
ATOM     10  C   UNL     1       1.124   7.786   0.660  0.00  0.00    +0.029 C 
ATOM     11  C   UNL     1       1.104   9.316   0.669  0.00  0.00    -0.008 C 
ATOM     12  C   UNL     1       2.457   9.841   1.152  0.00  0.00    +0.007 C 
ATOM     13  C   UNL     1       2.728   9.327   2.567  0.00  0.00    -0.008 C 
ATOM     14  C   UNL     1       2.748   7.798   2.559  0.00  0.00    +0.029 C 
ATOM     15  C   UNL     1       1.625   9.817   3.508  0.00  0.00    +0.007 C 
ATOM     16  C   UNL     1       0.272   9.291   3.024  0.00  0.00    -0.008 C 
ATOM     17  C   UNL     1       0.001   9.806   1.609  0.00  0.00    +0.007 C 
ATOM     18  C   UNL     1       0.292   7.762   3.016  0.00  0.00    +0.029 C 
ENDBRANCH   6   9
BRANCH   1  19
ATOM     19  C   UNL     1      -0.729   1.579   1.267  0.00  0.00    +0.137 C 
ATOM     20  C   UNL     1      -0.013   1.086   0.008  0.00  0.00    +0.029 C 
BRANCH  19  21
ATOM     21  S   UNL     1      -2.427   0.953   1.280  0.00  0.00    -0.075 S 
BRANCH  21  26
ATOM     22  C   UNL     1       0.041  -3.676   1.687  0.00  0.00    +0.067 C 
ATOM     23  C   UNL     1      -1.077  -2.671   1.586  0.00  0.00    +0.060 A 
ATOM     24  C   UNL     1      -2.391  -2.953   1.580  0.00  0.00    +0.039 A 
ATOM     25  N   UNL     1      -3.059  -1.753   1.480  0.00  0.00    -0.322 N 
ATOM     26  C   UNL     1      -2.114  -0.776   1.419  0.00  0.00    +0.170 A 
ATOM     27  N   UNL     1      -0.930  -1.339   1.487  0.00  0.00    -0.227 NA
ATOM     28  C   UNL     1      -3.015  -4.322   1.672  0.00  0.00    +0.065 C 
BRANCH  25  29
ATOM     29  C   UNL     1      -4.512  -1.565   1.441  0.00  0.00    +0.127 C 
BRANCH  29  30
ATOM     30  C   UNL     1      -4.994  -1.612  -0.010  0.00  0.00    +0.003 C 
ATOM     31  C   UNL     1      -4.752  -3.010  -0.583  0.00  0.00    +0.009 C 
ATOM     32  C   UNL     1      -6.489  -1.292  -0.061  0.00  0.00    +0.009 C 
ENDBRANCH  29  30
ENDBRANCH  25  29
ENDBRANCH  21  26
ENDBRANCH  19  21
ENDBRANCH   1  19
TORSDOF 6
