REMARK  Name = ZINC09171699
REMARK  3 active torsions:
REMARK  status: ('A' for Active; 'I' for Inactive)
REMARK    1  A    between atoms: C_6  and  N_7
REMARK    2  A    between atoms: C_8  and  C_10
REMARK    3  A    between atoms: C_12  and  N_17
REMARK                            x       y       z     vdW  Elec       q    Type
REMARK                         _______ _______ _______ _____ _____    ______ ____
ROOT
ATOM      1  N   UNL     1      -2.443  -0.109   0.026  0.00  0.00    -0.281 N 
ATOM      2  C   UNL     1      -2.357   1.025  -0.698  0.00  0.00    +0.250 C 
ATOM      3  O   UNL     1      -3.314   1.411  -1.340  0.00  0.00    -0.270 OA
ATOM      4  H   UNL     1      -1.658  -0.458   0.476  0.00  0.00    +0.155 HD
ENDROOT
BRANCH   1  10
ATOM      5  C   UNL     1      -3.687  -2.172   0.214  0.00  0.00    +0.027 A 
ATOM      6  C   UNL     1      -4.887  -2.848   0.320  0.00  0.00    +0.048 A 
ATOM      7  C   UNL     1      -6.080  -2.145   0.331  0.00  0.00    +0.133 A 
ATOM      8  C   UNL     1      -6.065  -0.744   0.235  0.00  0.00    +0.080 A 
ATOM      9  C   UNL     1      -4.852  -0.067   0.135  0.00  0.00    +0.040 A 
ATOM     10  C   UNL     1      -3.666  -0.784   0.127  0.00  0.00    +0.035 A 
ATOM     11  C   UNL     1      -7.348  -0.015   0.239  0.00  0.00    +0.248 C 
ATOM     12  O   UNL     1      -7.572   0.847  -0.590  0.00  0.00    -0.270 OA
ATOM     13  N   UNL     1      -8.271  -0.322   1.181  0.00  0.00    -0.308 N 
ATOM     14  C   UNL     1      -7.938  -1.285   2.232  0.00  0.00    +0.145 C 
ATOM     15  C   UNL     1      -7.946  -2.706   1.684  0.00  0.00    +0.247 C 
ATOM     16  O   UNL     1      -7.269  -2.791   0.436  0.00  0.00    -0.490 OA
ATOM     17  H   UNL     1      -9.147   0.094   1.160  0.00  0.00    +0.149 HD
ENDBRANCH   1  10
BRANCH   2  18
ATOM     18  C   UNL     1      -1.099   1.800  -0.710  0.00  0.00    +0.057 A 
ATOM     19  C   UNL     1       0.003   1.360   0.027  0.00  0.00    +0.047 A 
ATOM     20  C   UNL     1       1.174   2.087   0.011  0.00  0.00    +0.127 A 
ATOM     21  C   UNL     1       1.260   3.252  -0.733  0.00  0.00    +0.034 A 
ATOM     22  C   UNL     1       0.174   3.694  -1.466  0.00  0.00    +0.023 A 
ATOM     23  C   UNL     1      -1.006   2.975  -1.459  0.00  0.00    +0.053 A 
ATOM     24 CL   UNL     1      -2.369   3.531  -2.379  0.00  0.00    -0.083 Cl
BRANCH  20  25
ATOM     25  N   UNL     1       2.342   1.623   0.792  0.00  0.00    +0.056 N 
ATOM     26  O   UNL     1       2.268   0.599   1.447  0.00  0.00    -0.126 OA
ATOM     27  O   UNL     1       3.378   2.264   0.779  0.00  0.00    -0.126 OA
ENDBRANCH  20  25
ENDBRANCH   2  18
TORSDOF 3
