REMARK  Name = ZINC00914659
REMARK  10 active torsions:
REMARK  status: ('A' for Active; 'I' for Inactive)
REMARK    1  A    between atoms: C_1  and  C_2
REMARK    2  A    between atoms: C_7  and  C_8
REMARK    3  A    between atoms: C_8  and  C_9
REMARK    4  A    between atoms: C_9  and  N_10
REMARK    5  A    between atoms: N_10  and  C_11
REMARK    6  A    between atoms: N_10  and  S_26
REMARK    7  A    between atoms: C_11  and  C_12
REMARK    8  A    between atoms: C_15  and  C_25
REMARK    9  A    between atoms: C_17  and  C_24
REMARK   10  A    between atoms: S_26  and  C_29
REMARK                            x       y       z     vdW  Elec       q    Type
REMARK                         _______ _______ _______ _____ _____    ______ ____
ROOT
ATOM      1  N   UNL     1       4.098  -1.273  -1.722  0.00  0.00    -0.172 NA
ENDROOT
BRANCH   1   2
ATOM      2  S   UNL     1       3.858  -1.473  -0.096  0.00  0.00    +0.061 S 
ATOM      3  O   UNL     1       4.981  -0.895   0.555  0.00  0.00    -0.153 OA
ATOM      4  O   UNL     1       3.482  -2.830   0.095  0.00  0.00    -0.153 OA
BRANCH   2   5
ATOM      5  C   UNL     1       2.460  -0.496   0.348  0.00  0.00    +0.109 A 
ATOM      6  C   UNL     1       1.185  -1.013   0.210  0.00  0.00    +0.032 A 
ATOM      7  C   UNL     1       0.086  -0.249   0.556  0.00  0.00    +0.051 A 
ATOM      8  C   UNL     1       0.260   1.038   1.041  0.00  0.00    +0.162 A 
ATOM      9  C   UNL     1       1.542   1.557   1.183  0.00  0.00    +0.164 A 
ATOM     10  C   UNL     1       2.640   0.785   0.833  0.00  0.00    +0.078 A 
ATOM     11  O   UNL     1       1.735   2.815   1.665  0.00  0.00    -0.485 OA
ATOM     12  C   UNL     1       0.603   3.690   1.651  0.00  0.00    +0.270 C 
ATOM     13  C   UNL     1      -0.605   2.923   2.205  0.00  0.00    +0.270 C 
ATOM     14  O   UNL     1      -0.832   1.782   1.369  0.00  0.00    -0.485 OA
ENDBRANCH   2   5
ENDBRANCH   1   2
BRANCH   1  15
ATOM     15  C   UNL     1       5.028  -0.249  -2.205  0.00  0.00    +0.114 C 
BRANCH  15  16
ATOM     16  C   UNL     1       6.421  -0.861  -2.365  0.00  0.00    +0.052 C 
BRANCH  16  23
ATOM     17  C   UNL     1       7.748   1.008  -0.607  0.00  0.00    +0.044 C 
ATOM     18  C   UNL     1       7.996   1.065  -2.092  0.00  0.00    -0.047 A 
ATOM     19  C   UNL     1       8.858   2.012  -2.613  0.00  0.00    +0.003 A 
ATOM     20  C   UNL     1       9.085   2.064  -3.975  0.00  0.00    +0.000 A 
ATOM     21  C   UNL     1       8.450   1.170  -4.817  0.00  0.00    +0.000 A 
ATOM     22  C   UNL     1       7.593   0.220  -4.296  0.00  0.00    +0.004 A 
ATOM     23  C   UNL     1       7.361   0.171  -2.933  0.00  0.00    -0.043 A 
ENDBRANCH  16  23
ENDBRANCH  15  16
ENDBRANCH   1  15
BRANCH   1  24
ATOM     24  C   UNL     1       3.380  -2.120  -2.679  0.00  0.00    +0.150 C 
BRANCH  24  25
ATOM     25  C   UNL     1       4.277  -3.247  -3.123  0.00  0.00    +0.033 A 
ATOM     26  C   UNL     1       4.230  -4.440  -2.481  0.00  0.00    +0.020 A 
ATOM     27  C   UNL     1       5.110  -5.516  -2.940  0.00  0.00    +0.002 A 
ATOM     28  C   UNL     1       5.103  -6.771  -2.320  0.00  0.00    -0.041 A 
ATOM     29  C   UNL     1       5.940  -7.752  -2.769  0.00  0.00    +0.007 A 
ATOM     30  C   UNL     1       6.798  -7.516  -3.835  0.00  0.00    -0.048 A 
ATOM     31  C   UNL     1       6.822  -6.288  -4.460  0.00  0.00    +0.029 A 
ATOM     32  C   UNL     1       5.979  -5.273  -4.020  0.00  0.00    +0.050 A 
ATOM     33  N   UNL     1       5.981  -4.035  -4.627  0.00  0.00    -0.322 N 
ATOM     34  H   UNL     1       6.599  -3.864  -5.395  0.00  0.00    +0.169 HD
ATOM     35  C   UNL     1       5.165  -3.055  -4.202  0.00  0.00    +0.254 A 
ATOM     36  O   UNL     1       5.195  -1.973  -4.762  0.00  0.00    -0.268 OA
ATOM     37  C   UNL     1       7.713  -8.614  -4.314  0.00  0.00    +0.044 C 
ATOM     38  C   UNL     1       4.177  -7.037  -1.162  0.00  0.00    +0.044 C 
ENDBRANCH  24  25
ENDBRANCH   1  24
TORSDOF 7
