REMARK  Name = ZINC20721888
REMARK  9 active torsions:
REMARK  status: ('A' for Active; 'I' for Inactive)
REMARK    1  A    between atoms: C_1  and  C_2
REMARK    2  A    between atoms: C_2  and  C_3
REMARK    3  A    between atoms: C_3  and  C_5
REMARK    4  A    between atoms: C_3  and  C_6
REMARK    5  A    between atoms: C_6  and  C_8
REMARK    6  A    between atoms: C_6  and  N_12
REMARK    7  A    between atoms: C_8  and  O_10
REMARK    8  A    between atoms: O_10  and  C_11
REMARK    9  A    between atoms: C_24  and  C_26
REMARK                            x       y       z     vdW  Elec       q    Type
REMARK                         _______ _______ _______ _____ _____    ______ ____
ROOT
ATOM      1  N   UNL     1      -2.777  -2.220   1.518  0.00  0.00    -0.286 N 
ATOM      2  C   UNL     1      -3.546  -1.216   1.050  0.00  0.00    +0.304 C 
ATOM      3  O   UNL     1      -3.076  -0.103   0.918  0.00  0.00    -0.253 OA
ATOM      4  N   UNL     1      -4.834  -1.448   0.728  0.00  0.00    -0.273 N 
ATOM      5  C   UNL     1      -5.655  -0.399   0.105  0.00  0.00    +0.116 C 
ATOM      6  C   UNL     1      -6.057  -0.845  -1.306  0.00  0.00    +0.076 C 
ATOM      7  C   UNL     1      -6.523  -2.279  -1.249  0.00  0.00    +0.066 A 
ATOM      8  C   UNL     1      -6.253  -3.128  -0.235  0.00  0.00    +0.064 A 
ATOM      9  N   UNL     1      -6.831  -4.321  -0.542  0.00  0.00    -0.346 N 
ATOM     10  H   UNL     1      -6.809  -5.128  -0.006  0.00  0.00    +0.167 HD
ATOM     11  C   UNL     1      -7.443  -4.165  -1.739  0.00  0.00    +0.197 A 
ATOM     12  N   UNL     1      -7.253  -2.940  -2.153  0.00  0.00    -0.240 NA
ATOM     13  C   UNL     1      -5.454  -2.760   0.986  0.00  0.00    +0.156 C 
ATOM     14  H   UNL     1      -3.129  -3.123   1.555  0.00  0.00    +0.151 HD
ENDROOT
BRANCH  13  15
ATOM     15  C   UNL     1      -6.365  -2.671   2.183  0.00  0.00    -0.018 A 
ATOM     16  C   UNL     1      -7.475  -1.847   2.147  0.00  0.00    +0.006 A 
ATOM     17  C   UNL     1      -8.311  -1.765   3.244  0.00  0.00    +0.003 A 
ATOM     18  C   UNL     1      -8.039  -2.505   4.379  0.00  0.00    +0.038 A 
ATOM     19  C   UNL     1      -6.928  -3.330   4.416  0.00  0.00    +0.124 A 
ATOM     20  C   UNL     1      -6.094  -3.417   3.314  0.00  0.00    +0.044 A 
ATOM     21  F   UNL     1      -6.660  -4.054   5.525  0.00  0.00    -0.205 F 
ENDBRANCH  13  15
BRANCH   1  22
ATOM     22  C   UNL     1      -1.411  -1.947   1.972  0.00  0.00    +0.186 C 
BRANCH  22  23
ATOM     23  C   UNL     1      -1.441  -1.485   3.430  0.00  0.00    +0.017 C 
ATOM     24  C   UNL     1      -2.197  -2.513   4.275  0.00  0.00    +0.010 C 
BRANCH  23  26
ATOM     25  C   UNL     1      -1.307   0.931   2.808  0.00  0.00    +0.004 C 
ATOM     26  C   UNL     1      -2.146  -0.131   3.522  0.00  0.00    +0.002 C 
ENDBRANCH  23  26
ENDBRANCH  22  23
BRANCH  22  27
ATOM     27  C   UNL     1      -0.584  -3.201   1.858  0.00  0.00    +0.328 C 
ATOM     28  O   UNL     1      -1.126  -4.281   1.815  0.00  0.00    -0.249 OA
BRANCH  27  29
ATOM     29  O   UNL     1       0.755  -3.120   1.806  0.00  0.00    -0.467 OA
ATOM     30  C   UNL     1       1.471  -4.338   1.592  0.00  0.00    +0.280 C 
ENDBRANCH  27  29
ENDBRANCH  22  27
ENDBRANCH   1  22
TORSDOF 6
