REMARK  Name = ZINC38650649
REMARK  11 active torsions:
REMARK  status: ('A' for Active; 'I' for Inactive)
REMARK    1  A    between atoms: C_1  and  C_2
REMARK    2  A    between atoms: C_2  and  C_3
REMARK    3  A    between atoms: C_3  and  O_4
REMARK    4  A    between atoms: O_4  and  C_5
REMARK    5  A    between atoms: C_8  and  C_11
REMARK    6  A    between atoms: C_16  and  O_25
REMARK    7  A    between atoms: C_20  and  N_24
REMARK    8  A    between atoms: C_21  and  C_22
REMARK    9  A    between atoms: O_25  and  C_26
REMARK   10  A    between atoms: C_26  and  C_28
REMARK   11  A    between atoms: C_33  and  N_34
REMARK                            x       y       z     vdW  Elec       q    Type
REMARK                         _______ _______ _______ _____ _____    ______ ____
ROOT
ATOM      1  C   UNL     1       3.447  -4.486  -5.818  0.00  0.00    +0.098 C 
ATOM      2  C   UNL     1       2.416  -5.336  -6.513  0.00  0.00    +0.008 A 
ATOM      3  C   UNL     1       1.440  -4.728  -7.282  0.00  0.00    +0.012 A 
ATOM      4  C   UNL     1       0.486  -5.491  -7.927  0.00  0.00    +0.047 A 
ATOM      5  C   UNL     1       0.506  -6.874  -7.805  0.00  0.00    +0.135 A 
ATOM      6  C   UNL     1       1.483  -7.485  -7.037  0.00  0.00    +0.093 A 
ATOM      7  C   UNL     1       2.440  -6.716  -6.388  0.00  0.00    +0.138 A 
ATOM      8  O   UNL     1       3.389  -7.330  -5.639  0.00  0.00    -0.441 OA
ATOM      9  C   UNL     1       4.524  -6.680  -5.330  0.00  0.00    +0.199 C 
ATOM     10  C   UNL     1       4.614  -5.333  -5.395  0.00  0.00    +0.098 C 
ENDROOT
BRANCH   1  14
ATOM     11  C   UNL     1       1.691  -2.669  -2.372  0.00  0.00    +0.121 A 
ATOM     12  C   UNL     1       2.208  -1.878  -3.388  0.00  0.00    +0.046 A 
ATOM     13  C   UNL     1       2.775  -2.467  -4.500  0.00  0.00    +0.008 A 
ATOM     14  C   UNL     1       2.828  -3.845  -4.603  0.00  0.00    -0.034 A 
ATOM     15  C   UNL     1       2.313  -4.636  -3.592  0.00  0.00    +0.008 A 
ATOM     16  C   UNL     1       1.751  -4.051  -2.474  0.00  0.00    +0.046 A 
BRANCH  11  17
ATOM     17  O   UNL     1       1.133  -2.091  -1.276  0.00  0.00    -0.492 OA
BRANCH  17  18
ATOM     18  C   UNL     1       1.106  -0.663  -1.238  0.00  0.00    +0.229 C 
BRANCH  18  20
ATOM     19  C   UNL     1       0.417   1.330   0.102  0.00  0.00    +0.007 C 
ATOM     20  C   UNL     1       0.446  -0.199   0.062  0.00  0.00    +0.038 C 
ENDBRANCH  18  20
ENDBRANCH  17  18
ENDBRANCH  11  17
ENDBRANCH   1  14
BRANCH   9  21
ATOM     21  N   UNL     1       5.621  -7.404  -4.936  0.00  0.00    -0.328 N 
ATOM     22  H   UNL     1       5.570  -8.372  -4.884  0.00  0.00    +0.145 HD
ATOM     23  H   UNL     1       6.447  -6.949  -4.710  0.00  0.00    +0.145 HD
ENDBRANCH   9  21
BRANCH  10  24
ATOM     24  C   UNL     1       5.852  -4.700  -5.051  0.00  0.00    +0.101 C 
ATOM     25  N   UNL     1       6.834  -4.198  -4.779  0.00  0.00    -0.191 NA
ENDBRANCH  10  24
BRANCH   5  26
ATOM     26  O   UNL     1      -0.432  -7.626  -8.439  0.00  0.00    -0.422 OA
BRANCH  26  27
ATOM     27  C   UNL     1      -0.421  -7.647  -9.786  0.00  0.00    +0.347 C 
ATOM     28  O   UNL     1       0.465  -7.082 -10.396  0.00  0.00    -0.244 OA
BRANCH  27  29
ATOM     29  C   UNL     1      -1.488  -8.356 -10.522  0.00  0.00    +0.089 A 
ATOM     30  C   UNL     1      -1.748  -9.702 -10.256  0.00  0.00    +0.017 A 
ATOM     31  C   UNL     1      -2.745 -10.358 -10.947  0.00  0.00    +0.001 A 
ATOM     32  C   UNL     1      -3.487  -9.686 -11.902  0.00  0.00    +0.002 A 
ATOM     33  C   UNL     1      -3.235  -8.352 -12.171  0.00  0.00    +0.033 A 
ATOM     34  C   UNL     1      -2.244  -7.682 -11.483  0.00  0.00    +0.140 A 
BRANCH  34  35
ATOM     35  N   UNL     1      -1.980  -6.254 -11.767  0.00  0.00    +0.057 N 
ATOM     36  O   UNL     1      -2.546  -5.705 -12.684  0.00  0.00    -0.126 OA
ATOM     37  O   UNL     1      -1.199  -5.636 -11.082  0.00  0.00    -0.126 OA
ENDBRANCH  34  35
ENDBRANCH  27  29
ENDBRANCH  26  27
ENDBRANCH   5  26
TORSDOF 10
