REMARK  Name = ZINC53540212
REMARK  10 active torsions:
REMARK  status: ('A' for Active; 'I' for Inactive)
REMARK    1  A    between atoms: C_1  and  C_2
REMARK    2  A    between atoms: C_2  and  C_3
REMARK    3  A    between atoms: C_6  and  C_9
REMARK    4  A    between atoms: C_9  and  C_11
REMARK    5  A    between atoms: C_9  and  N_28
REMARK    6  A    between atoms: C_11  and  N_12
REMARK    7  A    between atoms: N_18  and  C_21
REMARK    8  A    between atoms: C_26  and  O_27
REMARK    9  A    between atoms: N_28  and  C_29
REMARK   10  A    between atoms: N_28  and  C_30
REMARK                            x       y       z     vdW  Elec       q    Type
REMARK                         _______ _______ _______ _____ _____    ______ ____
ROOT
ATOM      1  N   UNL     1       3.417  -1.561   6.376  0.00  0.00    -0.300 N 
ATOM      2  C   UNL     1       3.518  -0.649   7.364  0.00  0.00    +0.302 C 
ATOM      3  O   UNL     1       3.257   0.517   7.143  0.00  0.00    -0.253 OA
ATOM      4  N   UNL     1       3.909  -1.032   8.595  0.00  0.00    -0.283 N 
ATOM      5  C   UNL     1       3.915  -0.073   9.709  0.00  0.00    +0.128 C 
ATOM      6  C   UNL     1       3.069  -0.645  10.853  0.00  0.00    +0.124 C 
ATOM      7  N   UNL     1       3.496  -2.028  11.107  0.00  0.00    -0.324 N 
ATOM      8  C   UNL     1       3.490  -2.987   9.993  0.00  0.00    +0.124 C 
ATOM      9  C   UNL     1       4.331  -2.416   8.851  0.00  0.00    +0.128 C 
ATOM     10  H   UNL     1       3.692  -2.478   6.532  0.00  0.00    +0.150 HD
ENDROOT
BRANCH   7  11
ATOM     11  C   UNL     1       3.901  -2.425  12.386  0.00  0.00    +0.072 A 
ATOM     12  C   UNL     1       2.973  -2.928  13.286  0.00  0.00    +0.027 A 
ATOM     13  C   UNL     1       3.376  -3.319  14.549  0.00  0.00    +0.002 A 
ATOM     14  C   UNL     1       4.704  -3.211  14.919  0.00  0.00    +0.004 A 
ATOM     15  C   UNL     1       5.635  -2.711  14.027  0.00  0.00    +0.047 A 
ATOM     16  C   UNL     1       5.240  -2.321  12.758  0.00  0.00    +0.138 A 
BRANCH  16  17
ATOM     17  O   UNL     1       6.156  -1.833  11.879  0.00  0.00    -0.505 OA
ATOM     18  H   UNL     1       6.274  -0.875  11.925  0.00  0.00    +0.292 HD
ENDBRANCH  16  17
ENDBRANCH   7  11
BRANCH   1  19
ATOM     19  C   UNL     1       2.890  -1.167   5.067  0.00  0.00    +0.095 C 
BRANCH  19  20
ATOM     20  C   UNL     1       2.767  -2.403   4.174  0.00  0.00    -0.021 C 
BRANCH  20  24
ATOM     21  C   UNL     1       6.645  -4.053   3.477  0.00  0.00    -0.048 A 
ATOM     22  C   UNL     1       5.816  -4.614   4.430  0.00  0.00    +0.004 A 
ATOM     23  C   UNL     1       4.561  -4.080   4.655  0.00  0.00    +0.002 A 
ATOM     24  C   UNL     1       4.135  -2.985   3.928  0.00  0.00    -0.059 A 
ATOM     25  C   UNL     1       4.964  -2.422   2.976  0.00  0.00    +0.002 A 
ATOM     26  C   UNL     1       6.221  -2.954   2.753  0.00  0.00    +0.004 A 
BRANCH  21  28
ATOM     27  C   UNL     1       9.029  -3.957   4.152  0.00  0.00    +0.009 C 
ATOM     28  C   UNL     1       8.013  -4.635   3.230  0.00  0.00    +0.032 C 
ENDBRANCH  21  28
ENDBRANCH  20  24
BRANCH  20  29
ATOM     29  N   UNL     1       2.159  -2.022   2.892  0.00  0.00    +0.382 N 
ATOM     30  C   UNL     1       1.960  -3.222   2.068  0.00  0.00    -0.096 C 
ATOM     31  C   UNL     1       0.863  -1.375   3.136  0.00  0.00    -0.096 C 
ATOM     32  H   UNL     1       2.769  -1.380   2.408  0.00  0.00    -0.082 HD
ENDBRANCH  20  29
ENDBRANCH  19  20
ENDBRANCH   1  19
TORSDOF 7
