REMARK  Name = ZINC59114099
REMARK  16 active torsions:
REMARK  status: ('A' for Active; 'I' for Inactive)
REMARK    1  A    between atoms: C_1  and  C_2
REMARK    2  A    between atoms: C_2  and  C_4
REMARK    3  A    between atoms: C_7  and  N_10
REMARK    4  A    between atoms: N_10  and  C_11
REMARK    5  A    between atoms: C_11  and  N_13
REMARK    6  A    between atoms: N_13  and  C_14
REMARK    7  A    between atoms: C_14  and  C_15
REMARK    8  A    between atoms: C_15  and  C_37
REMARK    9  A    between atoms: C_17  and  N_24
REMARK   10  A    between atoms: C_20  and  C_22
REMARK   11  A    between atoms: C_20  and  C_23
REMARK   12  A    between atoms: N_24  and  C_25
REMARK   13  A    between atoms: C_25  and  N_27
REMARK   14  A    between atoms: N_27  and  C_28
REMARK   15  A    between atoms: C_31  and  C_34
REMARK   16  A    between atoms: C_34  and  C_36
REMARK                            x       y       z     vdW  Elec       q    Type
REMARK                         _______ _______ _______ _____ _____    ______ ____
ROOT
ATOM      1  C   UNL     1      -7.320  -6.176  -0.172  0.00  0.00    -0.014 C 
ATOM      2  C   UNL     1      -7.895  -5.322   0.947  0.00  0.00    +0.030 C 
ATOM      3  C   UNL     1      -9.085  -5.958   1.643  0.00  0.00    +0.073 C 
ATOM      4  C   UNL     1      -8.776  -7.367   2.118  0.00  0.00    +0.028 C 
ATOM      5  C   UNL     1      -8.205  -8.266   1.034  0.00  0.00    -0.033 C 
ATOM      6  C   UNL     1      -7.087  -7.616   0.243  0.00  0.00    +0.014 C 
ATOM      7  C   UNL     1      -7.610  -9.511   1.738  0.00  0.00    +0.011 C 
ATOM      8  C   UNL     1      -9.315  -8.772   0.108  0.00  0.00    +0.011 C 
ATOM      9  C   UNL     1      -8.191  -6.093  -1.427  0.00  0.00    +0.013 C 
ENDROOT
BRANCH   3  10
ATOM     10  N   UNL     1     -10.294  -5.904   0.829  0.00  0.00    -0.323 N 
ATOM     11  H   UNL     1     -10.227  -5.792  -0.132  0.00  0.00    +0.148 HD
BRANCH  10  12
ATOM     12  C   UNL     1     -11.504  -6.011   1.413  0.00  0.00    +0.135 C 
ATOM     13  S   UNL     1     -11.622  -6.210   3.109  0.00  0.00    -0.019 S 
BRANCH  12  14
ATOM     14  N   UNL     1     -12.621  -5.962   0.660  0.00  0.00    -0.297 N 
ATOM     15  H   UNL     1     -12.554  -5.928  -0.307  0.00  0.00    +0.154 HD
BRANCH  14  16
ATOM     16  C   UNL     1     -13.872  -5.959   1.271  0.00  0.00    +0.033 A 
ATOM     17  C   UNL     1     -14.097  -5.160   2.389  0.00  0.00    +0.024 A 
ATOM     18  C   UNL     1     -15.323  -5.154   2.992  0.00  0.00    +0.013 A 
ATOM     19  C   UNL     1     -16.355  -5.953   2.483  0.00  0.00    +0.017 A 
ATOM     20  C   UNL     1     -16.124  -6.755   1.358  0.00  0.00    +0.013 A 
ATOM     21  C   UNL     1     -14.897  -6.751   0.759  0.00  0.00    +0.024 A 
BRANCH  19  22
ATOM     22  C   UNL     1     -17.674  -5.950   3.128  0.00  0.00    +0.160 C 
ATOM     23  O   UNL     1     -17.907  -5.172   4.028  0.00  0.00    -0.292 OA
ATOM     24  C   UNL     1     -18.738  -6.915   2.671  0.00  0.00    +0.091 C 
ENDBRANCH  19  22
ENDBRANCH  14  16
ENDBRANCH  12  14
ENDBRANCH  10  12
ENDBRANCH   3  10
BRANCH   1  25
ATOM     25  C   UNL     1      -5.942  -5.574  -0.545  0.00  0.00    +0.110 C 
BRANCH  25  26
ATOM     26  N   UNL     1      -6.114  -4.178  -0.955  0.00  0.00    -0.326 N 
ATOM     27  H   UNL     1      -6.998  -3.779  -0.959  0.00  0.00    +0.148 HD
BRANCH  26  28
ATOM     28  C   UNL     1      -5.043  -3.447  -1.325  0.00  0.00    +0.135 C 
ATOM     29  S   UNL     1      -3.483  -4.152  -1.318  0.00  0.00    -0.019 S 
BRANCH  28  30
ATOM     30  N   UNL     1      -5.201  -2.163  -1.702  0.00  0.00    -0.297 N 
ATOM     31  H   UNL     1      -6.068  -1.736  -1.618  0.00  0.00    +0.154 HD
BRANCH  30  35
ATOM     32  C   UNL     1      -1.976  -0.032  -3.225  0.00  0.00    +0.017 A 
ATOM     33  C   UNL     1      -2.132  -1.389  -3.537  0.00  0.00    +0.013 A 
ATOM     34  C   UNL     1      -3.194  -2.086  -3.034  0.00  0.00    +0.024 A 
ATOM     35  C   UNL     1      -4.120  -1.449  -2.212  0.00  0.00    +0.033 A 
ATOM     36  C   UNL     1      -3.969  -0.101  -1.899  0.00  0.00    +0.024 A 
ATOM     37  C   UNL     1      -2.908   0.602  -2.394  0.00  0.00    +0.013 A 
BRANCH  32  39
ATOM     38  C   UNL     1       0.164   0.036  -4.658  0.00  0.00    +0.091 C 
ATOM     39  C   UNL     1      -0.836   0.721  -3.764  0.00  0.00    +0.160 C 
ATOM     40  O   UNL     1      -0.700   1.894  -3.488  0.00  0.00    -0.292 OA
ENDBRANCH  32  39
ENDBRANCH  30  35
ENDBRANCH  28  30
ENDBRANCH  26  28
ENDBRANCH  25  26
ENDBRANCH   1  25
TORSDOF 11
