REMARK  Name = ZINC04737422
REMARK  5 active torsions:
REMARK  status: ('A' for Active; 'I' for Inactive)
REMARK    1  A    between atoms: C_1  and  C_2
REMARK    2  A    between atoms: C_5  and  C_8
REMARK    3  A    between atoms: C_17  and  N_20
REMARK    4  A    between atoms: N_23  and  N_24
REMARK    5  A    between atoms: C_25  and  C_26
REMARK                            x       y       z     vdW  Elec       q    Type
REMARK                         _______ _______ _______ _____ _____    ______ ____
ROOT
ATOM      1  C   UNL     1      -0.729   1.579   1.267  0.00  0.00    -0.002 C 
ATOM      2  C   UNL     1      -0.013   1.086   0.008  0.00  0.00    +0.015 C 
ATOM      3  C   UNL     1      -0.753   1.593  -1.232  0.00  0.00    -0.008 C 
ATOM      4  C   UNL     1      -2.188   1.063  -1.221  0.00  0.00    +0.007 C 
ATOM      5  C   UNL     1      -2.904   1.556   0.038  0.00  0.00    -0.008 C 
ATOM      6  C   UNL     1      -2.164   1.050   1.278  0.00  0.00    +0.015 C 
ATOM      7  C   UNL     1      -2.925   3.086   0.047  0.00  0.00    +0.029 C 
ATOM      8  C   UNL     1      -1.490   3.616   0.036  0.00  0.00    +0.037 C 
ATOM      9  C   UNL     1      -0.773   3.123  -1.223  0.00  0.00    +0.029 C 
ATOM     10  C   UNL     1      -0.750   3.109   1.275  0.00  0.00    +0.037 C 
ENDROOT
BRANCH   1  15
ATOM     11  C   UNL     1       2.068  -0.335   5.947  0.00  0.00    +0.044 C 
ATOM     12  C   UNL     1       1.338   0.164   4.727  0.00  0.00    -0.050 A 
ATOM     13  C   UNL     1       0.816  -0.736   3.817  0.00  0.00    +0.003 A 
ATOM     14  C   UNL     1       0.147  -0.278   2.698  0.00  0.00    +0.004 A 
ATOM     15  C   UNL     1       0.000   1.080   2.488  0.00  0.00    -0.041 A 
ATOM     16  C   UNL     1       0.527   1.981   3.395  0.00  0.00    +0.004 A 
ATOM     17  C   UNL     1       1.191   1.523   4.517  0.00  0.00    +0.003 A 
ENDBRANCH   1  15
BRANCH   8  18
ATOM     18  N   UNL     1      -1.510   5.081   0.044  0.00  0.00    -0.292 N 
ATOM     19  C   UNL     1      -0.352   5.770   0.036  0.00  0.00    +0.320 C 
ATOM     20  O   UNL     1       0.710   5.177   0.023  0.00  0.00    -0.251 OA
ATOM     21  N   UNL     1      -0.370   7.118   0.044  0.00  0.00    -0.191 N 
ATOM     22  H   UNL     1      -2.356   5.554   0.054  0.00  0.00    +0.151 HD
ATOM     23  H   UNL     1       0.464   7.614   0.038  0.00  0.00    +0.179 HD
BRANCH  21  24
ATOM     24  N   UNL     1      -1.593   7.802   0.059  0.00  0.00    -0.183 NA
ATOM     25  C   UNL     1      -1.610   9.102   0.066  0.00  0.00    +0.176 C 
BRANCH  25  26
ATOM     26  C   UNL     1      -2.890   9.818   0.082  0.00  0.00    +0.147 A 
ATOM     27  C   UNL     1      -3.050  11.173   0.091  0.00  0.00    +0.051 A 
ATOM     28  C   UNL     1      -4.436  11.416   0.106  0.00  0.00    +0.042 A 
ATOM     29  C   UNL     1      -5.050  10.215   0.105  0.00  0.00    +0.196 A 
ATOM     30  O   UNL     1      -4.114   9.253   0.085  0.00  0.00    -0.462 OA
ENDBRANCH  25  26
ENDBRANCH  21  24
ENDBRANCH   8  18
TORSDOF 4
