REMARK  Name = ZINC56941763
REMARK  8 active torsions:
REMARK  status: ('A' for Active; 'I' for Inactive)
REMARK    1  A    between atoms: C_1  and  C_2
REMARK    2  A    between atoms: C_2  and  C_4
REMARK    3  A    between atoms: C_2  and  N_12
REMARK    4  A    between atoms: N_15  and  N_16
REMARK    5  A    between atoms: C_17  and  C_19
REMARK    6  A    between atoms: C_19  and  C_21
REMARK    7  A    between atoms: C_19  and  O_22
REMARK    8  A    between atoms: O_22  and  C_23
REMARK                            x       y       z     vdW  Elec       q    Type
REMARK                         _______ _______ _______ _____ _____    ______ ____
ROOT
ATOM      1  N   UNL     1       1.206   0.172  -1.314  0.00  0.00    -0.292 N 
ATOM      2  C   UNL     1       2.510  -0.166  -1.340  0.00  0.00    +0.316 C 
ATOM      3  O   UNL     1       3.220   0.072  -0.382  0.00  0.00    -0.251 OA
ATOM      4  N   UNL     1       3.029  -0.769  -2.429  0.00  0.00    -0.218 N 
ATOM      5  H   UNL     1       0.640  -0.018  -2.079  0.00  0.00    +0.151 HD
ATOM      6  H   UNL     1       3.967  -1.013  -2.447  0.00  0.00    +0.174 HD
ENDROOT
BRANCH   4   7
ATOM      7  N   UNL     1       2.212  -1.044  -3.533  0.00  0.00    -0.230 N 
ATOM      8  C   UNL     1       2.730  -1.647  -4.621  0.00  0.00    +0.270 C 
ATOM      9  O   UNL     1       3.904  -1.952  -4.644  0.00  0.00    -0.270 OA
ATOM     10  H   UNL     1       1.273  -0.801  -3.514  0.00  0.00    +0.173 HD
BRANCH   8  11
ATOM     11  C   UNL     1       1.851  -1.943  -5.809  0.00  0.00    +0.257 C 
ATOM     12  C   UNL     1       0.785  -2.966  -5.412  0.00  0.00    +0.062 C 
BRANCH  11  13
ATOM     13  O   UNL     1       2.648  -2.473  -6.870  0.00  0.00    -0.477 OA
BRANCH  13  14
ATOM     14  C   UNL     1       2.175  -2.313  -8.135  0.00  0.00    +0.157 A 
ATOM     15  C   UNL     1       0.920  -1.763  -8.344  0.00  0.00    +0.048 A 
ATOM     16  C   UNL     1       0.442  -1.601  -9.630  0.00  0.00    +0.004 A 
ATOM     17  C   UNL     1       1.214  -1.988 -10.710  0.00  0.00    +0.003 A 
ATOM     18  C   UNL     1       2.466  -2.537 -10.507  0.00  0.00    +0.042 A 
ATOM     19  C   UNL     1       2.952  -2.695  -9.222  0.00  0.00    +0.165 A 
ATOM     20  F   UNL     1       4.179  -3.226  -9.023  0.00  0.00    -0.202 F 
ENDBRANCH  13  14
ENDBRANCH  11  13
ENDBRANCH   8  11
ENDBRANCH   4   7
BRANCH   1  22
ATOM     21  C   UNL     1       0.881   2.336  -0.222  0.00  0.00    +0.033 C 
ATOM     22  C   UNL     1       0.643   0.827  -0.132  0.00  0.00    +0.102 C 
BRANCH  22  23
ATOM     23  C   UNL     1      -0.838   0.556  -0.065  0.00  0.00    -0.026 A 
ATOM     24  C   UNL     1      -1.595   0.566  -1.221  0.00  0.00    +0.008 A 
ATOM     25  C   UNL     1      -2.953   0.317  -1.162  0.00  0.00    +0.040 A 
ATOM     26  C   UNL     1      -3.557   0.057   0.057  0.00  0.00    +0.142 A 
ATOM     27  C   UNL     1      -2.797   0.047   1.216  0.00  0.00    +0.076 A 
ATOM     28  C   UNL     1      -1.437   0.292   1.153  0.00  0.00    +0.028 A 
ATOM     29 CL   UNL     1      -3.551  -0.278   2.745  0.00  0.00    -0.081 Cl
ATOM     30  F   UNL     1      -4.884  -0.186   0.116  0.00  0.00    -0.204 F 
ENDBRANCH  22  23
ENDBRANCH   1  22
TORSDOF 6
