REMARK  Name = ZINC36143071
REMARK  6 active torsions:
REMARK  status: ('A' for Active; 'I' for Inactive)
REMARK    1  A    between atoms: C_1  and  C_2
REMARK    2  A    between atoms: C_2  and  C_3
REMARK    3  A    between atoms: C_2  and  C_4
REMARK    4  A    between atoms: C_4  and  O_5
REMARK    5  A    between atoms: O_5  and  C_6
REMARK    6  A    between atoms: C_12  and  O_13
REMARK                            x       y       z     vdW  Elec       q    Type
REMARK                         _______ _______ _______ _____ _____    ______ ____
ROOT
ATOM      1  C   UNL     1       2.872  -0.462  -2.260  0.00  0.00    +0.135 A 
ATOM      2  C   UNL     1       2.335  -1.177  -3.316  0.00  0.00    +0.046 A 
ATOM      3  C   UNL     1       3.133  -1.546  -4.386  0.00  0.00    +0.007 A 
ATOM      4  C   UNL     1       4.471  -1.209  -4.420  0.00  0.00    +0.047 A 
ATOM      5  C   UNL     1       5.035  -0.491  -3.373  0.00  0.00    +0.143 A 
ATOM      6  C   UNL     1       4.229  -0.109  -2.285  0.00  0.00    +0.100 A 
ATOM      7  C   UNL     1       4.836   0.652  -1.189  0.00  0.00    +0.135 C 
ATOM      8  C   UNL     1       6.185   0.964  -1.287  0.00  0.00    +0.093 C 
ATOM      9  C   UNL     1       6.906   0.552  -2.401  0.00  0.00    +0.139 C 
ATOM     10  O   UNL     1       6.341  -0.155  -3.393  0.00  0.00    -0.454 OA
ATOM     11  C   UNL     1       8.327   0.888  -2.490  0.00  0.00    +0.018 C 
ATOM     12  C   UNL     1       8.943   1.612  -1.454  0.00  0.00    +0.013 C 
ATOM     13  C   UNL     1      10.262   1.925  -1.534  0.00  0.00    +0.026 C 
ATOM     14  C   UNL     1      11.015   1.522  -2.658  0.00  0.00    +0.033 C 
ATOM     15  C   UNL     1      10.394   0.795  -3.696  0.00  0.00    +0.026 C 
ATOM     16  C   UNL     1       9.075   0.480  -3.609  0.00  0.00    +0.013 C 
ATOM     17  N   UNL     1      12.309   1.829  -2.739  0.00  0.00    -0.398 N 
ATOM     18  H   UNL     1      12.735   2.329  -2.026  0.00  0.00    +0.156 HD
ATOM     19  H   UNL     1      12.826   1.552  -3.512  0.00  0.00    +0.156 HD
ENDROOT
BRANCH   7  20
ATOM     20  O   UNL     1       4.106   1.038  -0.119  0.00  0.00    -0.506 OA
ATOM     21  H   UNL     1       4.608   1.534   0.542  0.00  0.00    +0.292 HD
ENDBRANCH   7  20
BRANCH   1  22
ATOM     22  O   UNL     1       2.090  -0.101  -1.210  0.00  0.00    -0.491 OA
BRANCH  22  23
ATOM     23  C   UNL     1       0.718  -0.497  -1.257  0.00  0.00    +0.232 C 
BRANCH  23  25
ATOM     24  C   UNL     1      -0.019   1.526   0.010  0.00  0.00    +0.010 C 
ATOM     25  C   UNL     1       0.002  -0.004   0.002  0.00  0.00    +0.020 C 
ATOM     26  C   UNL     1      -1.433  -0.534   0.013  0.00  0.00    +0.010 C 
ENDBRANCH  23  25
ENDBRANCH  22  23
ENDBRANCH   1  22
TORSDOF 4
