REMARK  Name = ZINC40981458
REMARK  11 active torsions:
REMARK  status: ('A' for Active; 'I' for Inactive)
REMARK    1  A    between atoms: C_1  and  C_2
REMARK    2  A    between atoms: C_2  and  C_3
REMARK    3  A    between atoms: C_3  and  S_4
REMARK    4  A    between atoms: S_4  and  C_5
REMARK    5  A    between atoms: C_10  and  C_20
REMARK    6  A    between atoms: C_23  and  O_28
REMARK    7  A    between atoms: C_24  and  O_26
REMARK    8  A    between atoms: O_26  and  C_27
REMARK    9  A    between atoms: O_28  and  C_29
REMARK   10  A    between atoms: C_29  and  C_30
REMARK   11  A    between atoms: C_29  and  C_31
REMARK                            x       y       z     vdW  Elec       q    Type
REMARK                         _______ _______ _______ _____ _____    ______ ____
ROOT
ATOM      1  C   UNL     1       1.925  -2.526   3.957  0.00  0.00    +0.210 A 
ATOM      2  N   UNL     1       2.565  -1.804   4.889  0.00  0.00    -0.187 NA
ATOM      3  C   UNL     1       3.208  -2.604   5.694  0.00  0.00    +0.219 A 
ATOM      4  N   UNL     1       2.993  -3.878   5.284  0.00  0.00    -0.220 N 
ATOM      5  N   UNL     1       2.158  -3.803   4.170  0.00  0.00    -0.141 NA
ATOM      6  C   UNL     1       3.568  -5.042   5.947  0.00  0.00    +0.176 C 
ATOM      7  C   UNL     1       4.118  -4.648   7.300  0.00  0.00    +0.041 C 
ATOM      8  C   UNL     1       4.309  -3.357   7.648  0.00  0.00    +0.020 C 
ATOM      9  N   UNL     1       3.995  -2.324   6.799  0.00  0.00    -0.287 N 
ATOM     10  C   UNL     1       4.883  -2.996   8.998  0.00  0.00    +0.052 C 
ATOM     11  C   UNL     1       4.461  -4.040  10.033  0.00  0.00    +0.014 C 
ATOM     12  C   UNL     1       4.964  -5.410   9.569  0.00  0.00    +0.080 C 
ATOM     13  C   UNL     1       4.426  -5.689   8.194  0.00  0.00    +0.163 C 
ATOM     14  O   UNL     1       4.252  -6.841   7.846  0.00  0.00    -0.292 OA
ATOM     15  H   UNL     1       4.316  -1.424   6.968  0.00  0.00    +0.155 HD
ENDROOT
BRANCH   6  16
ATOM     16  C   UNL     1       4.682  -5.600   5.099  0.00  0.00    -0.015 A 
ATOM     17  C   UNL     1       5.779  -4.815   4.798  0.00  0.00    +0.010 A 
ATOM     18  C   UNL     1       6.804  -5.323   4.021  0.00  0.00    +0.050 A 
ATOM     19  C   UNL     1       6.733  -6.621   3.543  0.00  0.00    +0.162 A 
ATOM     20  C   UNL     1       5.629  -7.412   3.847  0.00  0.00    +0.162 A 
ATOM     21  C   UNL     1       4.607  -6.899   4.630  0.00  0.00    +0.055 A 
BRANCH  20  22
ATOM     22  O   UNL     1       5.554  -8.687   3.380  0.00  0.00    -0.491 OA
ATOM     23  C   UNL     1       4.392  -9.440   3.732  0.00  0.00    +0.277 C 
ENDBRANCH  20  22
BRANCH  19  24
ATOM     24  O   UNL     1       7.740  -7.122   2.778  0.00  0.00    -0.486 OA
BRANCH  24  25
ATOM     25  C   UNL     1       8.783  -6.219   2.406  0.00  0.00    +0.167 C 
ATOM     26  C   UNL     1       9.823  -6.153   3.526  0.00  0.00    +0.051 C 
ATOM     27  C   UNL     1       9.448  -6.710   1.120  0.00  0.00    +0.051 C 
ENDBRANCH  24  25
ENDBRANCH  19  24
ENDBRANCH   6  16
BRANCH   1  28
ATOM     28  S   UNL     1       0.926  -1.870   2.662  0.00  0.00    -0.084 S 
BRANCH  28  29
ATOM     29  C   UNL     1       1.005  -0.075   2.913  0.00  0.00    +0.077 C 
BRANCH  29  31
ATOM     30  C   UNL     1       0.236   2.141   2.053  0.00  0.00    +0.004 C 
ATOM     31  C   UNL     1       0.169   0.627   1.841  0.00  0.00    +0.008 C 
ENDBRANCH  29  31
ENDBRANCH  28  29
ENDBRANCH   1  28
TORSDOF 7
