REMARK  Name = ZINC12882779
REMARK  6 active torsions:
REMARK  status: ('A' for Active; 'I' for Inactive)
REMARK    1  A    between atoms: C_1  and  C_2
REMARK    2  A    between atoms: C_16  and  C_18
REMARK    3  A    between atoms: C_18  and  C_19
REMARK    4  A    between atoms: N_27  and  C_30
REMARK    5  A    between atoms: C_30  and  C_31
REMARK    6  A    between atoms: C_31  and  C_32
REMARK                            x       y       z     vdW  Elec       q    Type
REMARK                         _______ _______ _______ _____ _____    ______ ____
ROOT
ATOM      1  C   UNL     1       5.196   3.255   4.166  0.00  0.00    +0.047 C 
ATOM      2  C   UNL     1       4.021   2.389   3.787  0.00  0.00    -0.011 A 
ATOM      3  C   UNL     1       3.766   1.228   4.490  0.00  0.00    +0.046 A 
ATOM      4  C   UNL     1       2.691   0.428   4.149  0.00  0.00    +0.020 A 
ATOM      5  C   UNL     1       1.868   0.791   3.098  0.00  0.00    +0.006 A 
ATOM      6  C   UNL     1       2.119   1.948   2.394  0.00  0.00    -0.027 A 
ATOM      7  C   UNL     1       3.197   2.762   2.729  0.00  0.00    +0.040 A 
ATOM      8  N   UNL     1       3.247   3.871   1.881  0.00  0.00    -0.286 N 
ATOM      9  C   UNL     1       2.250   3.862   0.974  0.00  0.00    +0.211 C 
ATOM     10  O   UNL     1       2.044   4.694   0.117  0.00  0.00    -0.277 OA
ATOM     11  C   UNL     1       1.444   2.618   1.232  0.00  0.00    +0.050 C 
ATOM     12  C   UNL     1       1.412   1.708  -0.002  0.00  0.00    +0.088 C 
ATOM     13  C   UNL     1      -0.013   1.086   0.008  0.00  0.00    +0.073 C 
ATOM     14  C   UNL     1      -0.689   1.663   1.270  0.00  0.00    -0.053 C 
ATOM     15  C   UNL     1      -0.656   1.666  -1.231  0.00  0.00    +0.224 C 
ATOM     16  O   UNL     1      -1.789   1.445  -1.601  0.00  0.00    -0.275 OA
ATOM     17  N   UNL     1       0.221   2.460  -1.857  0.00  0.00    -0.241 N 
ATOM     18  C   UNL     1       1.413   2.553  -1.256  0.00  0.00    +0.225 C 
ATOM     19  O   UNL     1       2.348   3.213  -1.655  0.00  0.00    -0.275 OA
ATOM     20 CL   UNL     1       4.800   0.772   5.808  0.00  0.00    -0.083 Cl
ATOM     21  H   UNL     1       3.920   4.567   1.938  0.00  0.00    +0.155 HD
ATOM     22  N   UNL     1       0.052   2.907   1.522  0.00  0.00    +0.394 N 
ATOM     23  H   UNL     1      -0.292   3.655   0.908  0.00  0.00    -0.083 HD
ATOM     24  H   UNL     1      -0.056   3.192   2.502  0.00  0.00    -0.083 HD
ENDROOT
BRANCH  14  25
ATOM     25  C   UNL     1      -2.166   1.954   0.996  0.00  0.00    +0.020 C 
BRANCH  25  26
ATOM     26  C   UNL     1      -2.834   2.399   2.271  0.00  0.00    -0.049 A 
ATOM     27  C   UNL     1      -3.417   1.466   3.109  0.00  0.00    +0.003 A 
ATOM     28  C   UNL     1      -4.026   1.875   4.281  0.00  0.00    +0.000 A 
ATOM     29  C   UNL     1      -4.061   3.217   4.610  0.00  0.00    +0.000 A 
ATOM     30  C   UNL     1      -3.483   4.150   3.770  0.00  0.00    +0.000 A 
ATOM     31  C   UNL     1      -2.869   3.741   2.601  0.00  0.00    +0.003 A 
ENDBRANCH  25  26
ENDBRANCH  14  25
BRANCH  17  32
ATOM     32  C   UNL     1      -0.099   3.170  -3.097  0.00  0.00    +0.121 C 
BRANCH  32  33
ATOM     33  C   UNL     1       0.264   2.292  -4.296  0.00  0.00    +0.054 C 
BRANCH  33  34
ATOM     34  C   UNL     1      -0.065   3.022  -5.572  0.00  0.00    -0.046 A 
ATOM     35  C   UNL     1      -1.314   2.880  -6.147  0.00  0.00    +0.004 A 
ATOM     36  C   UNL     1      -1.618   3.554  -7.316  0.00  0.00    +0.000 A 
ATOM     37  C   UNL     1      -0.668   4.362  -7.914  0.00  0.00    +0.000 A 
ATOM     38  C   UNL     1       0.582   4.499  -7.342  0.00  0.00    +0.000 A 
ATOM     39  C   UNL     1       0.884   3.829  -6.171  0.00  0.00    +0.004 A 
ENDBRANCH  33  34
ENDBRANCH  32  33
ENDBRANCH  17  32
TORSDOF 5
