REMARK  Name = ZINC35404852
REMARK  15 active torsions:
REMARK  status: ('A' for Active; 'I' for Inactive)
REMARK    1  A    between atoms: C_1  and  C_2
REMARK    2  A    between atoms: C_2  and  C_3
REMARK    3  A    between atoms: C_2  and  C_4
REMARK    4  A    between atoms: C_2  and  C_5
REMARK    5  A    between atoms: C_8  and  C_11
REMARK    6  A    between atoms: C_11  and  N_12
REMARK    7  A    between atoms: N_12  and  C_13
REMARK    8  A    between atoms: N_12  and  C_23
REMARK    9  A    between atoms: C_13  and  C_14
REMARK   10  A    between atoms: C_23  and  C_24
REMARK   11  A    between atoms: C_26  and  C_29
REMARK   12  A    between atoms: N_31  and  C_32
REMARK   13  A    between atoms: C_32  and  C_33
REMARK   14  A    between atoms: C_33  and  O_34
REMARK   15  A    between atoms: O_34  and  C_35
REMARK                            x       y       z     vdW  Elec       q    Type
REMARK                         _______ _______ _______ _____ _____    ______ ____
ROOT
ATOM      1  N   UNL     1       2.602  -0.339  -5.954  0.00  0.00    +0.389 N 
ATOM      2  H   UNL     1       2.859   0.636  -5.939  0.00  0.00    -0.080 HD
ENDROOT
BRANCH   1   3
ATOM      3  C   UNL     1       2.914  -0.949  -4.655  0.00  0.00    -0.042 C 
BRANCH   3   7
ATOM      4  C   UNL     1       7.020  -0.257  -3.704  0.00  0.00    -0.042 A 
ATOM      5  C   UNL     1       6.072   0.706  -3.414  0.00  0.00    +0.004 A 
ATOM      6  C   UNL     1       4.743   0.482  -3.722  0.00  0.00    +0.002 A 
ATOM      7  C   UNL     1       4.363  -0.705  -4.320  0.00  0.00    -0.064 A 
ATOM      8  C   UNL     1       5.311  -1.667  -4.611  0.00  0.00    +0.002 A 
ATOM      9  C   UNL     1       6.641  -1.442  -4.307  0.00  0.00    +0.004 A 
BRANCH   4  11
ATOM     10  C   UNL     1       9.288   0.053  -4.660  0.00  0.00    +0.015 C 
ATOM     11  C   UNL     1       8.469  -0.013  -3.369  0.00  0.00    -0.013 C 
ATOM     12  C   UNL     1       8.989  -1.154  -2.493  0.00  0.00    +0.015 C 
ATOM     13  C   UNL     1       8.601   1.311  -2.613  0.00  0.00    +0.015 C 
ENDBRANCH   4  11
ENDBRANCH   3   7
ENDBRANCH   1   3
BRANCH   1  14
ATOM     14  C   UNL     1       1.162  -0.461  -6.219  0.00  0.00    -0.042 C 
BRANCH  14  15
ATOM     15  C   UNL     1       0.394   0.346  -5.204  0.00  0.00    -0.060 A 
ATOM     16  C   UNL     1      -0.107  -0.267  -4.071  0.00  0.00    +0.005 A 
ATOM     17  C   UNL     1      -0.811   0.469  -3.137  0.00  0.00    +0.050 A 
ATOM     18  C   UNL     1      -1.016   1.825  -3.334  0.00  0.00    +0.166 A 
ATOM     19  C   UNL     1      -0.511   2.443  -4.476  0.00  0.00    +0.166 A 
ATOM     20  C   UNL     1       0.199   1.700  -5.405  0.00  0.00    +0.051 A 
ATOM     21  O   UNL     1      -0.843   3.767  -4.438  0.00  0.00    -0.453 OA
ATOM     22  C   UNL     1      -1.903   3.870  -3.469  0.00  0.00    +0.466 C 
ATOM     23  O   UNL     1      -1.665   2.761  -2.582  0.00  0.00    -0.453 OA
ENDBRANCH  14  15
ENDBRANCH   1  14
BRANCH   1  24
ATOM     24  C   UNL     1       3.354  -1.028  -7.012  0.00  0.00    -0.014 C 
BRANCH  24  25
ATOM     25  C   UNL     1       3.129  -0.326  -8.326  0.00  0.00    +0.063 A 
ATOM     26  N   UNL     1       3.824   0.649  -8.847  0.00  0.00    -0.241 NA
ATOM     27  C   UNL     1       3.449   1.131 -10.036  0.00  0.00    +0.133 A 
ATOM     28  C   UNL     1       2.350   0.543 -10.605  0.00  0.00    +0.079 A 
ATOM     29  S   UNL     1       1.933  -0.620  -9.466  0.00  0.00    -0.082 S 
BRANCH  27  30
ATOM     30  C   UNL     1       4.174   2.230 -10.696  0.00  0.00    +0.263 C 
ATOM     31  O   UNL     1       3.801   2.641 -11.778  0.00  0.00    -0.269 OA
ATOM     32  N   UNL     1       5.250   2.781 -10.100  0.00  0.00    -0.308 N 
ATOM     33  H   UNL     1       5.547   2.453  -9.237  0.00  0.00    +0.149 HD
BRANCH  32  34
ATOM     34  C   UNL     1       5.972   3.874 -10.757  0.00  0.00    +0.132 C 
BRANCH  34  35
ATOM     35  C   UNL     1       7.143   4.313  -9.876  0.00  0.00    +0.178 C 
BRANCH  35  36
ATOM     36  O   UNL     1       8.087   3.246  -9.771  0.00  0.00    -0.381 OA
ATOM     37  C   UNL     1       9.226   3.554  -8.965  0.00  0.00    +0.194 C 
ENDBRANCH  35  36
ENDBRANCH  34  35
ENDBRANCH  32  34
ENDBRANCH  27  30
ENDBRANCH  24  25
ENDBRANCH   1  24
TORSDOF 11
