REMARK  Name = ZINC39237432
REMARK  5 active torsions:
REMARK  status: ('A' for Active; 'I' for Inactive)
REMARK    1  A    between atoms: C_6  and  C_7
REMARK    2  A    between atoms: C_10  and  C_35
REMARK    3  A    between atoms: C_17  and  C_20
REMARK    4  A    between atoms: N_22  and  C_23
REMARK    5  A    between atoms: C_23  and  C_24
REMARK                            x       y       z     vdW  Elec       q    Type
REMARK                         _______ _______ _______ _____ _____    ______ ____
ROOT
ATOM      1  C   UNL     1      -1.293  -0.775   0.011  0.00  0.00    -0.037 C 
ATOM      2  C   UNL     1      -1.618  -1.243  -1.412  0.00  0.00    +0.018 C 
ATOM      3  C   UNL     1      -2.958  -1.994  -1.413  0.00  0.00    +0.173 C 
ATOM      4  N   UNL     1      -2.911  -2.989  -0.346  0.00  0.00    -0.245 NA
ATOM      5  C   UNL     1      -1.506  -3.133   0.124  0.00  0.00    +0.019 C 
ATOM      6  N   UNL     1      -1.161  -1.946   0.899  0.00  0.00    +0.395 N 
ATOM      7  C   UNL     1      -1.558  -4.420   0.960  0.00  0.00    +0.030 C 
ATOM      8  C   UNL     1      -2.744  -5.208   0.352  0.00  0.00    +0.155 C 
ATOM      9  N   UNL     1      -3.290  -4.342  -0.728  0.00  0.00    -0.243 NA
ATOM     10  H   UNL     1      -0.211  -2.019   1.231  0.00  0.00    -0.083 HD
ATOM     11  H   UNL     1      -4.293  -4.432  -0.792  0.00  0.00    +0.142 HD
ATOM     12  H   UNL     1      -1.792  -1.855   1.682  0.00  0.00    -0.083 HD
ENDROOT
BRANCH   1  18
ATOM     13  C   UNL     1      -0.017   1.378   0.010  0.00  0.00    +0.003 A 
ATOM     14  C   UNL     1       1.171   2.086   0.002  0.00  0.00    +0.020 A 
ATOM     15  C   UNL     1       2.378   1.410  -0.013  0.00  0.00    +0.041 A 
ATOM     16  C   UNL     1       2.396   0.027  -0.021  0.00  0.00    +0.020 A 
ATOM     17  C   UNL     1       1.208  -0.679  -0.013  0.00  0.00    +0.003 A 
ATOM     18  C   UNL     1       0.002  -0.004   0.002  0.00  0.00    -0.061 A 
ATOM     19 CL   UNL     1       3.870   2.298  -0.023  0.00  0.00    -0.084 Cl
ENDBRANCH   1  18
BRANCH   8  20
ATOM     20  C   UNL     1      -2.262  -6.516  -0.220  0.00  0.00    +0.232 C 
ATOM     21  O   UNL     1      -2.076  -6.624  -1.414  0.00  0.00    -0.274 OA
ATOM     22  N   UNL     1      -2.038  -7.566   0.594  0.00  0.00    -0.308 N 
ATOM     23  H   UNL     1      -2.187  -7.480   1.549  0.00  0.00    +0.149 HD
BRANCH  22  24
ATOM     24  C   UNL     1      -1.569  -8.838   0.038  0.00  0.00    +0.157 C 
BRANCH  24  25
ATOM     25  C   UNL     1      -1.397  -9.840   1.150  0.00  0.00    +0.034 A 
ATOM     26  H   UNL     1       0.524  -9.428   1.841  0.00  0.00    +0.166 HD
ATOM     27  C   UNL     1      -2.318 -10.743   1.522  0.00  0.00    +0.032 A 
ATOM     28  C   UNL     1      -1.744 -11.508   2.631  0.00  0.00    +0.001 A 
ATOM     29  C   UNL     1      -2.204 -12.561   3.425  0.00  0.00    +0.030 A 
ATOM     30  C   UNL     1      -1.395 -13.072   4.415  0.00  0.00    +0.042 A 
ATOM     31  C   UNL     1      -0.127 -12.547   4.626  0.00  0.00    +0.022 A 
ATOM     32  C   UNL     1       0.341 -11.508   3.852  0.00  0.00    +0.027 A 
ATOM     33  C   UNL     1      -0.459 -10.977   2.846  0.00  0.00    +0.047 A 
ATOM     34  N   UNL     1      -0.278  -9.969   1.925  0.00  0.00    -0.357 N 
ATOM     35 CL   UNL     1      -1.964 -14.381   5.404  0.00  0.00    -0.084 Cl
ENDBRANCH  24  25
ENDBRANCH  22  24
ENDBRANCH   8  20
BRANCH   3  36
ATOM     36  C   UNL     1      -3.163  -2.687  -2.762  0.00  0.00    +0.406 C 
ATOM     37  F   UNL     1      -2.123  -3.596  -2.982  0.00  0.00    -0.169 F 
ATOM     38  F   UNL     1      -4.385  -3.369  -2.756  0.00  0.00    -0.169 F 
ATOM     39  F   UNL     1      -3.168  -1.730  -3.782  0.00  0.00    -0.169 F 
ENDBRANCH   3  36
TORSDOF 5
