REMARK  Name = ZINC44890857
REMARK  4 active torsions:
REMARK  status: ('A' for Active; 'I' for Inactive)
REMARK    1  A    between atoms: C_1  and  C_2
REMARK    2  A    between atoms: C_7  and  C_8
REMARK    3  A    between atoms: C_11  and  C_26
REMARK    4  A    between atoms: C_16  and  O_19
REMARK                            x       y       z     vdW  Elec       q    Type
REMARK                         _______ _______ _______ _____ _____    ______ ____
ROOT
ATOM      1  C   UNL     1      -0.119   0.446   1.981  0.00  0.00    +0.112 C 
ATOM      2  C   UNL     1       1.205   0.815   2.579  0.00  0.00    +0.037 A 
ATOM      3  C   UNL     1       2.372   0.061   2.356  0.00  0.00    +0.067 A 
ATOM      4  N   UNL     1       3.361   0.610   3.002  0.00  0.00    -0.168 NA
ATOM      5  N   UNL     1       2.885   1.738   3.671  0.00  0.00    -0.196 N 
ATOM      6  C   UNL     1       1.535   1.863   3.395  0.00  0.00    +0.166 A 
ATOM      7  N   UNL     1       0.810   2.877   3.893  0.00  0.00    -0.197 NA
ATOM      8  C   UNL     1      -0.382   3.260   3.830  0.00  0.00    +0.199 C 
ATOM      9  C   UNL     1      -1.543   2.637   3.160  0.00  0.00    +0.165 C 
ATOM     10  S   UNL     1      -1.124   1.881   1.584  0.00  0.00    -0.138 S 
ATOM     11  C   UNL     1       3.640   2.592   4.478  0.00  0.00    +0.156 A 
ATOM     12  C   UNL     1       4.796   2.119   5.088  0.00  0.00    +0.048 A 
ATOM     13  C   UNL     1       5.534   2.976   5.886  0.00  0.00    +0.005 A 
ATOM     14  C   UNL     1       5.089   4.281   6.045  0.00  0.00    +0.020 A 
ATOM     15  C   UNL     1       3.931   4.683   5.409  0.00  0.00    +0.113 A 
ATOM     16  N   UNL     1       3.251   3.845   4.650  0.00  0.00    -0.236 NA
ATOM     17  C   UNL     1       2.462  -1.181   1.506  0.00  0.00    +0.068 C 
ENDROOT
BRANCH   1  24
ATOM     18  C   UNL     1      -0.795  -2.361   1.883  0.00  0.00    +0.044 C 
ATOM     19  C   UNL     1      -0.202  -1.687   0.673  0.00  0.00    -0.046 A 
ATOM     20  C   UNL     1       0.013  -2.409  -0.486  0.00  0.00    +0.003 A 
ATOM     21  C   UNL     1       0.556  -1.790  -1.596  0.00  0.00    +0.000 A 
ATOM     22  C   UNL     1       0.884  -0.448  -1.548  0.00  0.00    +0.000 A 
ATOM     23  C   UNL     1       0.668   0.275  -0.389  0.00  0.00    +0.005 A 
ATOM     24  C   UNL     1       0.121  -0.344   0.720  0.00  0.00    -0.027 A 
ENDBRANCH   1  24
BRANCH   8  25
ATOM     25  O   UNL     1      -0.645   4.416   4.473  0.00  0.00    -0.495 OA
ATOM     26  H   UNL     1       0.125   4.809   4.905  0.00  0.00    +0.293 HD
ENDBRANCH   8  25
TORSDOF 2
