REMARK  Name = ZINC12781999
REMARK  7 active torsions:
REMARK  status: ('A' for Active; 'I' for Inactive)
REMARK    1  A    between atoms: C_1  and  C_2
REMARK    2  A    between atoms: C_2  and  C_4
REMARK    3  A    between atoms: C_2  and  N_11
REMARK    4  A    between atoms: C_12  and  C_14
REMARK    5  A    between atoms: C_14  and  N_15
REMARK    6  A    between atoms: C_18  and  C_22
REMARK    7  A    between atoms: C_18  and  C_23
REMARK                            x       y       z     vdW  Elec       q    Type
REMARK                         _______ _______ _______ _____ _____    ______ ____
ROOT
ATOM      1  N   UNL     1       3.215   5.103   1.808  0.00  0.00    -0.215 N 
ATOM      2  C   UNL     1       2.319   5.211   0.807  0.00  0.00    +0.251 C 
ATOM      3  O   UNL     1       1.565   6.137   0.596  0.00  0.00    -0.272 OA
ATOM      4  C   UNL     1       2.452   3.936  -0.002  0.00  0.00    +0.135 C 
ATOM      5  N   UNL     1       3.506   3.187   0.704  0.00  0.00    -0.281 N 
ATOM      6  C   UNL     1       3.888   3.948   1.745  0.00  0.00    +0.310 C 
ATOM      7  O   UNL     1       4.748   3.624   2.540  0.00  0.00    -0.252 OA
ATOM      8  C   UNL     1       2.882   4.247  -1.437  0.00  0.00    +0.047 C 
ATOM      9  H   UNL     1       3.856   2.314   0.465  0.00  0.00    +0.152 HD
ENDROOT
BRANCH   4  10
ATOM     10  C   UNL     1       1.157   3.166   0.007  0.00  0.00    -0.014 A 
ATOM     11  C   UNL     1       1.175   1.783   0.000  0.00  0.00    +0.006 A 
ATOM     12  C   UNL     1      -0.013   1.076   0.008  0.00  0.00    +0.001 A 
ATOM     13  C   UNL     1      -1.219   1.751   0.017  0.00  0.00    +0.015 A 
ATOM     14  C   UNL     1      -1.238   3.133   0.029  0.00  0.00    +0.018 A 
ATOM     15  C   UNL     1      -0.049   3.841   0.021  0.00  0.00    +0.021 A 
ATOM     16 BR   UNL     1      -2.888   4.057   0.049  0.00  0.00    -0.050 Br
ENDBRANCH   4  10
BRANCH   1  17
ATOM     17  C   UNL     1       3.425   6.124   2.838  0.00  0.00    +0.213 C 
BRANCH  17  19
ATOM     18  N   UNL     1       4.846   8.122   3.166  0.00  0.00    -0.307 N 
ATOM     19  C   UNL     1       4.484   7.092   2.376  0.00  0.00    +0.231 C 
ATOM     20  O   UNL     1       5.010   6.944   1.293  0.00  0.00    -0.274 OA
ATOM     21  H   UNL     1       4.425   8.241   4.032  0.00  0.00    +0.149 HD
BRANCH  18  23
ATOM     22  C   UNL     1       5.231  10.146   1.848  0.00  0.00    +0.033 C 
ATOM     23  C   UNL     1       5.874   9.064   2.716  0.00  0.00    +0.100 C 
BRANCH  23  24
ATOM     24  C   UNL     1       6.528   9.703   3.915  0.00  0.00    -0.026 A 
ATOM     25  C   UNL     1       5.761  10.078   5.002  0.00  0.00    +0.005 A 
ATOM     26  C   UNL     1       6.360  10.660   6.103  0.00  0.00    +0.002 A 
ATOM     27  C   UNL     1       7.725  10.877   6.114  0.00  0.00    +0.020 A 
ATOM     28  C   UNL     1       8.492  10.507   5.024  0.00  0.00    +0.041 A 
ATOM     29  C   UNL     1       7.892   9.919   3.924  0.00  0.00    +0.025 A 
ATOM     30 CL   UNL     1      10.207  10.780   5.036  0.00  0.00    -0.084 Cl
ENDBRANCH  23  24
ENDBRANCH  18  23
ENDBRANCH  17  19
ENDBRANCH   1  17
TORSDOF 5
