REMARK  Name = ZINC48464357
REMARK  6 active torsions:
REMARK  status: ('A' for Active; 'I' for Inactive)
REMARK    1  A    between atoms: C_1  and  C_2
REMARK    2  A    between atoms: C_2  and  C_4
REMARK    3  A    between atoms: C_2  and  N_11
REMARK    4  A    between atoms: N_11  and  S_12
REMARK    5  A    between atoms: S_12  and  C_15
REMARK    6  A    between atoms: C_20  and  N_21
REMARK                            x       y       z     vdW  Elec       q    Type
REMARK                         _______ _______ _______ _____ _____    ______ ____
ROOT
ATOM      1  S   UNL     1       2.153  -0.892   1.017  0.00  0.00    +0.061 S 
ATOM      2  O   UNL     1       2.598  -1.521   2.211  0.00  0.00    -0.153 OA
ATOM      3  O   UNL     1       2.080  -1.578  -0.225  0.00  0.00    -0.153 OA
ENDROOT
BRANCH   1   4
ATOM      4  C   UNL     1       3.201   0.502   0.762  0.00  0.00    +0.127 A 
ATOM      5  C   UNL     1       3.795   0.704  -0.469  0.00  0.00    +0.050 A 
ATOM      6  C   UNL     1       4.617   1.798  -0.670  0.00  0.00    +0.043 A 
ATOM      7  C   UNL     1       4.847   2.693   0.360  0.00  0.00    +0.022 A 
ATOM      8  C   UNL     1       4.256   2.496   1.593  0.00  0.00    +0.026 A 
ATOM      9  C   UNL     1       3.425   1.401   1.796  0.00  0.00    +0.051 A 
ATOM     10 CL   UNL     1       5.362   2.049  -2.218  0.00  0.00    -0.083 Cl
BRANCH   9  11
ATOM     11  N   UNL     1       2.821   1.203   3.040  0.00  0.00    -0.356 N 
ATOM     12  H   UNL     1       2.227   0.448   3.176  0.00  0.00    +0.142 HD
ATOM     13  H   UNL     1       2.995   1.820   3.768  0.00  0.00    +0.142 HD
ENDBRANCH   9  11
ENDBRANCH   1   4
BRANCH   1  14
ATOM     14  N   UNL     1       0.633  -0.311   1.327  0.00  0.00    -0.183 NA
ATOM     15  H   UNL     1       0.221  -0.467   2.191  0.00  0.00    +0.149 HD
BRANCH  14  17
ATOM     16  C   UNL     1      -0.511   1.798   0.855  0.00  0.00    +0.031 C 
ATOM     17  C   UNL     1      -0.089   0.438   0.296  0.00  0.00    +0.103 C 
BRANCH  17  18
ATOM     18  C   UNL     1      -1.313  -0.335  -0.123  0.00  0.00    -0.029 A 
ATOM     19  C   UNL     1      -2.072  -0.994   0.826  0.00  0.00    +0.006 A 
ATOM     20  C   UNL     1      -3.195  -1.703   0.443  0.00  0.00    +0.015 A 
ATOM     21  C   UNL     1      -3.559  -1.753  -0.890  0.00  0.00    +0.018 A 
ATOM     22  C   UNL     1      -2.799  -1.094  -1.840  0.00  0.00    +0.015 A 
ATOM     23  C   UNL     1      -1.680  -0.381  -1.455  0.00  0.00    +0.006 A 
ATOM     24 BR   UNL     1      -5.095  -2.723  -1.415  0.00  0.00    -0.050 Br
ENDBRANCH  17  18
ENDBRANCH  14  17
ENDBRANCH   1  14
TORSDOF 5
