REMARK  Name = ZINC12658636
REMARK  10 active torsions:
REMARK  status: ('A' for Active; 'I' for Inactive)
REMARK    1  A    between atoms: C_1  and  C_2
REMARK    2  A    between atoms: C_15  and  C_17
REMARK    3  A    between atoms: C_17  and  C_31
REMARK    4  A    between atoms: C_18  and  C_19
REMARK    5  A    between atoms: C_22  and  O_25
REMARK    6  A    between atoms: O_25  and  C_26
REMARK    7  A    between atoms: C_26  and  C_27
REMARK    8  A    between atoms: C_27  and  C_28
REMARK    9  A    between atoms: C_28  and  C_29
REMARK   10  A    between atoms: C_28  and  C_30
REMARK                            x       y       z     vdW  Elec       q    Type
REMARK                         _______ _______ _______ _____ _____    ______ ____
ROOT
ATOM      1  C   UNL     1       5.426   6.912  -0.208  0.00  0.00    +0.008 C 
ATOM      2  C   UNL     1       4.349   5.887   0.156  0.00  0.00    -0.009 C 
ATOM      3  C   UNL     1       4.631   4.567  -0.568  0.00  0.00    +0.008 C 
ATOM      4  C   UNL     1       3.717   3.470  -0.021  0.00  0.00    +0.037 C 
ATOM      5  C   UNL     1       2.272   3.958  -0.082  0.00  0.00    -0.023 A 
ATOM      6  C   UNL     1       1.993   5.274  -0.199  0.00  0.00    -0.004 A 
ATOM      7  S   UNL     1       0.223   5.367  -0.233  0.00  0.00    -0.073 S 
ATOM      8  C   UNL     1      -0.138   3.635  -0.088  0.00  0.00    +0.116 A 
ATOM      9  C   UNL     1       1.135   3.041  -0.018  0.00  0.00    +0.075 A 
ATOM     10  C   UNL     1       1.152   1.614   0.106  0.00  0.00    +0.260 A 
ATOM     11  O   UNL     1       2.210   1.012   0.173  0.00  0.00    -0.267 OA
ATOM     12  N   UNL     1      -0.016   0.947   0.147  0.00  0.00    -0.306 N 
ATOM     13  H   UNL     1      -0.010  -0.020   0.231  0.00  0.00    +0.170 HD
ATOM     14  C   UNL     1      -1.213   1.607   0.066  0.00  0.00    +0.152 A 
ATOM     15  N   UNL     1      -1.254   2.921  -0.043  0.00  0.00    -0.221 NA
ATOM     16  C   UNL     1       2.972   6.405  -0.283  0.00  0.00    +0.046 C 
ENDROOT
BRANCH  14  17
ATOM     17  C   UNL     1      -2.469   0.842   0.107  0.00  0.00    +0.095 C 
ATOM     18  C   UNL     1      -3.677   1.497   0.027  0.00  0.00    +0.030 C 
BRANCH  18  19
ATOM     19  C   UNL     1      -4.920   0.730  -0.083  0.00  0.00    -0.023 A 
ATOM     20  C   UNL     1      -4.920  -0.525  -0.707  0.00  0.00    +0.011 A 
ATOM     21  C   UNL     1      -6.086  -1.241  -0.801  0.00  0.00    +0.046 A 
ATOM     22  C   UNL     1      -7.269  -0.719  -0.289  0.00  0.00    +0.121 A 
ATOM     23  C   UNL     1      -7.277   0.529   0.326  0.00  0.00    +0.046 A 
ATOM     24  C   UNL     1      -6.116   1.251   0.431  0.00  0.00    +0.011 A 
BRANCH  22  25
ATOM     25  O   UNL     1      -8.421  -1.429  -0.390  0.00  0.00    -0.492 OA
BRANCH  25  26
ATOM     26  C   UNL     1      -8.343  -2.703  -1.033  0.00  0.00    +0.229 C 
BRANCH  26  27
ATOM     27  C   UNL     1      -9.729  -3.351  -1.052  0.00  0.00    +0.044 C 
BRANCH  27  28
ATOM     28  C   UNL     1      -9.646  -4.715  -1.740  0.00  0.00    -0.014 C 
ATOM     29  C   UNL     1     -11.003  -5.415  -1.650  0.00  0.00    +0.007 C 
ATOM     30  C   UNL     1      -9.269  -4.522  -3.210  0.00  0.00    +0.007 C 
ENDBRANCH  27  28
ENDBRANCH  26  27
ENDBRANCH  25  26
ENDBRANCH  22  25
ENDBRANCH  18  19
BRANCH  17  31
ATOM     31  C   UNL     1      -2.435  -0.584   0.231  0.00  0.00    +0.103 C 
ATOM     32  N   UNL     1      -2.408  -1.716   0.330  0.00  0.00    -0.191 NA
ENDBRANCH  17  31
ENDBRANCH  14  17
TORSDOF 7
