REMARK  Name = ZINC03283808
REMARK  6 active torsions:
REMARK  status: ('A' for Active; 'I' for Inactive)
REMARK    1  A    between atoms: C_3  and  S_20
REMARK    2  A    between atoms: C_6  and  N_7
REMARK    3  A    between atoms: C_8  and  C_10
REMARK    4  A    between atoms: C_10  and  O_11
REMARK    5  A    between atoms: O_11  and  C_12
REMARK    6  A    between atoms: S_20  and  N_23
REMARK                            x       y       z     vdW  Elec       q    Type
REMARK                         _______ _______ _______ _____ _____    ______ ____
ROOT
ATOM      1  C   UNL     1      -0.013   1.374   0.193  0.00  0.00    +0.025 A 
ATOM      2  C   UNL     1       1.174   2.082   0.190  0.00  0.00    +0.031 A 
ATOM      3  C   UNL     1       2.374   1.421   0.002  0.00  0.00    +0.113 A 
ATOM      4  C   UNL     1       2.391   0.051  -0.183  0.00  0.00    +0.031 A 
ATOM      5  C   UNL     1       1.208  -0.663  -0.180  0.00  0.00    +0.025 A 
ATOM      6  C   UNL     1       0.001  -0.002   0.007  0.00  0.00    +0.034 A 
ENDROOT
BRANCH   6   7
ATOM      7  N   UNL     1      -1.199  -0.722   0.010  0.00  0.00    -0.283 N 
ATOM      8  C   UNL     1      -2.325  -0.156  -0.469  0.00  0.00    +0.255 C 
ATOM      9  O   UNL     1      -2.280   0.938  -0.990  0.00  0.00    -0.272 OA
ATOM     10  H   UNL     1      -1.221  -1.627   0.357  0.00  0.00    +0.155 HD
BRANCH   8  11
ATOM     11  C   UNL     1      -3.640  -0.884  -0.358  0.00  0.00    +0.325 C 
BRANCH  11  12
ATOM     12  O   UNL     1      -4.676  -0.086  -0.933  0.00  0.00    -0.481 OA
BRANCH  12  13
ATOM     13  C   UNL     1      -5.934  -0.601  -0.914  0.00  0.00    +0.140 A 
ATOM     14  C   UNL     1      -6.167  -1.846  -0.349  0.00  0.00    +0.048 A 
ATOM     15  C   UNL     1      -7.446  -2.368  -0.331  0.00  0.00    +0.023 A 
ATOM     16  C   UNL     1      -8.495  -1.650  -0.876  0.00  0.00    +0.043 A 
ATOM     17  C   UNL     1      -8.266  -0.408  -1.441  0.00  0.00    +0.043 A 
ATOM     18  C   UNL     1      -6.989   0.120  -1.456  0.00  0.00    +0.084 A 
ATOM     19 CL   UNL     1      -6.703   1.682  -2.158  0.00  0.00    -0.080 Cl
ATOM     20 CL   UNL     1     -10.101  -2.309  -0.852  0.00  0.00    -0.083 Cl
ENDBRANCH  12  13
ENDBRANCH  11  12
ENDBRANCH   8  11
ENDBRANCH   6   7
BRANCH   3  21
ATOM     21  S   UNL     1       3.885   2.327  -0.002  0.00  0.00    +0.100 S 
ATOM     22  O   UNL     1       4.821   1.553  -0.740  0.00  0.00    -0.146 OA
ATOM     23  O   UNL     1       3.556   3.664  -0.354  0.00  0.00    -0.146 OA
BRANCH  21  24
ATOM     24  N   UNL     1       4.434   2.370   1.560  0.00  0.00    -0.118 NA
ATOM     25  C   UNL     1       5.539   2.981   1.840  0.00  0.00    +0.117 C 
ATOM     26  N   UNL     1       6.289   3.620   0.840  0.00  0.00    -0.331 N 
ATOM     27  C   UNL     1       6.355   5.052   0.886  0.00  0.00    +0.102 C 
ATOM     28  C   UNL     1       7.494   5.644   1.732  0.00  0.00    +0.019 C 
ATOM     29  C   UNL     1       7.655   4.850   3.053  0.00  0.00    +0.002 C 
ATOM     30  C   UNL     1       6.340   4.460   3.668  0.00  0.00    +0.008 C 
ATOM     31  C   UNL     1       6.043   3.034   3.196  0.00  0.00    +0.073 C 
ATOM     32  H   UNL     1       6.744   3.115   0.148  0.00  0.00    +0.147 HD
ENDBRANCH  21  24
ENDBRANCH   3  21
TORSDOF 6
