REMARK  Name = ZINC12823243
REMARK  7 active torsions:
REMARK  status: ('A' for Active; 'I' for Inactive)
REMARK    1  A    between atoms: C_1  and  C_2
REMARK    2  A    between atoms: C_2  and  C_3
REMARK    3  A    between atoms: C_2  and  C_4
REMARK    4  A    between atoms: C_4  and  C_5
REMARK    5  A    between atoms: N_7  and  C_8
REMARK    6  A    between atoms: C_11  and  N_14
REMARK    7  A    between atoms: C_15  and  C_17
REMARK                            x       y       z     vdW  Elec       q    Type
REMARK                         _______ _______ _______ _____ _____    ______ ____
ROOT
ATOM      1  C   UNL     1      -2.450   9.946  -0.775  0.00  0.00    +0.033 A 
ATOM      2  C   UNL     1      -2.449   9.297  -2.003  0.00  0.00    +0.025 A 
ATOM      3  C   UNL     1      -2.346   7.921  -2.056  0.00  0.00    +0.025 A 
ATOM      4  C   UNL     1      -2.244   7.187  -0.882  0.00  0.00    +0.034 A 
ATOM      5  C   UNL     1      -2.251   7.836   0.346  0.00  0.00    +0.025 A 
ATOM      6  C   UNL     1      -2.349   9.211   0.399  0.00  0.00    +0.025 A 
ENDROOT
BRANCH   1   9
ATOM      7  C   UNL     1      -1.889  12.031   0.227  0.00  0.00    +0.217 C 
ATOM      8  O   UNL     1      -1.268  11.438   1.085  0.00  0.00    -0.275 OA
ATOM      9  N   UNL     1      -2.554  11.342  -0.721  0.00  0.00    -0.285 N 
ATOM     10  H   UNL     1      -3.104  11.813  -1.367  0.00  0.00    +0.155 HD
BRANCH   7  11
ATOM     11  C   UNL     1      -1.916  13.538   0.223  0.00  0.00    +0.099 C 
BRANCH  11  13
ATOM     12  C   UNL     1      -1.013  15.592   1.321  0.00  0.00    +0.008 C 
ATOM     13  C   UNL     1      -1.089  14.066   1.397  0.00  0.00    -0.008 C 
ATOM     14  C   UNL     1      -1.749  13.653   2.713  0.00  0.00    +0.008 C 
ENDBRANCH  11  13
ENDBRANCH   7  11
ENDBRANCH   1   9
BRANCH   4  15
ATOM     15  N   UNL     1      -2.139   5.791  -0.936  0.00  0.00    -0.285 N 
ATOM     16  C   UNL     1      -1.409   5.134  -0.014  0.00  0.00    +0.223 C 
ATOM     17  O   UNL     1      -0.767   5.755   0.807  0.00  0.00    -0.275 OA
ATOM     18  H   UNL     1      -2.593   5.298  -1.637  0.00  0.00    +0.155 HD
BRANCH  16  19
ATOM     19  C   UNL     1      -1.389   3.627  -0.003  0.00  0.00    +0.048 C 
ATOM     20  C   UNL     1      -0.847   3.114  -1.338  0.00  0.00    +0.019 C 
ATOM     21  C   UNL     1      -0.827   1.584  -1.327  0.00  0.00    -0.009 C 
ATOM     22  C   UNL     1       0.072   1.094  -0.190  0.00  0.00    +0.007 C 
ATOM     23  C   UNL     1      -0.470   1.607   1.146  0.00  0.00    -0.009 C 
ATOM     24  C   UNL     1      -0.490   3.137   1.134  0.00  0.00    +0.019 C 
ATOM     25  C   UNL     1      -1.891   1.080   1.356  0.00  0.00    +0.007 C 
ATOM     26  C   UNL     1      -2.790   1.570   0.219  0.00  0.00    -0.009 C 
ATOM     27  C   UNL     1      -2.247   1.057  -1.117  0.00  0.00    +0.007 C 
ATOM     28  C   UNL     1      -2.810   3.100   0.207  0.00  0.00    +0.019 C 
ENDBRANCH  16  19
ENDBRANCH   4  15
TORSDOF 5
