REMARK  Name = ZINC11592193
REMARK  7 active torsions:
REMARK  status: ('A' for Active; 'I' for Inactive)
REMARK    1  A    between atoms: C_1  and  C_2
REMARK    2  A    between atoms: C_5  and  C_25
REMARK    3  A    between atoms: C_10  and  C_12
REMARK    4  A    between atoms: C_12  and  S_13
REMARK    5  A    between atoms: S_13  and  C_14
REMARK    6  A    between atoms: C_17  and  C_20
REMARK    7  A    between atoms: N_18  and  N_19
REMARK                            x       y       z     vdW  Elec       q    Type
REMARK                         _______ _______ _______ _____ _____    ______ ____
ROOT
ATOM      1  C   UNL     1       2.172   6.907  -0.142  0.00  0.00    +0.209 A 
ATOM      2  N   UNL     1       0.953   7.246   0.210  0.00  0.00    -0.121 NA
ATOM      3  N   UNL     1       0.212   6.201   0.307  0.00  0.00    -0.126 NA
ATOM      4  C   UNL     1       0.914   5.126   0.021  0.00  0.00    +0.188 A 
ATOM      5  N   UNL     1       2.193   5.545  -0.271  0.00  0.00    -0.223 N 
ENDROOT
BRANCH   4   6
ATOM      6  C   UNL     1       0.426   3.737   0.018  0.00  0.00    +0.058 A 
ATOM      7  C   UNL     1      -0.866   3.275   0.028  0.00  0.00    +0.019 A 
ATOM      8  C   UNL     1      -1.081   1.915   0.017  0.00  0.00    +0.008 A 
ATOM      9  C   UNL     1      -0.013   1.076   0.008  0.00  0.00    +0.046 A 
ATOM     10  S   UNL     1       1.361   2.216   0.001  0.00  0.00    -0.093 S 
ENDBRANCH   4   6
BRANCH   5  11
ATOM     11  N   UNL     1       3.259   4.765  -0.618  0.00  0.00    -0.295 N 
ATOM     12  H   UNL     1       3.307   4.643  -1.619  0.00  0.00    +0.163 HD
ATOM     13  H   UNL     1       4.120   5.149  -0.259  0.00  0.00    +0.163 HD
ENDBRANCH   5  11
BRANCH   1  14
ATOM     14  S   UNL     1       3.530   8.001  -0.397  0.00  0.00    -0.075 S 
BRANCH  14  15
ATOM     15  C   UNL     1       2.729   9.584  -0.036  0.00  0.00    +0.173 C 
BRANCH  15  23
ATOM     16  C   UNL     1       2.574  12.289   2.846  0.00  0.00    +0.009 C 
ATOM     17  C   UNL     1       2.010  13.132   1.700  0.00  0.00    +0.004 C 
ATOM     18  C   UNL     1       2.900  14.357   1.481  0.00  0.00    +0.009 C 
ATOM     19  C   UNL     1       4.327  13.903   1.163  0.00  0.00    +0.004 C 
ATOM     20  C   UNL     1       4.319  13.075  -0.125  0.00  0.00    +0.111 C 
ATOM     21  N   UNL     1       3.356  11.976   0.025  0.00  0.00    -0.300 N 
ATOM     22  C   UNL     1       1.975  12.295   0.412  0.00  0.00    +0.111 C 
ATOM     23  C   UNL     1       3.730  10.700  -0.194  0.00  0.00    +0.226 C 
ATOM     24  O   UNL     1       4.871  10.450  -0.519  0.00  0.00    -0.275 OA
ATOM     25  C   UNL     1       5.223  15.129   0.977  0.00  0.00    +0.009 C 
ENDBRANCH  15  23
ENDBRANCH  14  15
ENDBRANCH   1  14
TORSDOF 5
