REMARK  Name = ZINC14548248
REMARK  8 active torsions:
REMARK  status: ('A' for Active; 'I' for Inactive)
REMARK    1  A    between atoms: C_1  and  C_2
REMARK    2  A    between atoms: C_2  and  C_3
REMARK    3  A    between atoms: C_3  and  C_5
REMARK    4  A    between atoms: C_3  and  N_6
REMARK    5  A    between atoms: N_6  and  S_7
REMARK    6  A    between atoms: S_7  and  C_10
REMARK    7  A    between atoms: C_23  and  C_26
REMARK    8  A    between atoms: C_35  and  O_36
REMARK                            x       y       z     vdW  Elec       q    Type
REMARK                         _______ _______ _______ _____ _____    ______ ____
ROOT
ATOM      1  C   UNL     1       1.909  -7.115  -0.003  0.00  0.00    +0.106 A 
ATOM      2  C   UNL     1       2.182  -6.918   1.339  0.00  0.00    +0.030 A 
ATOM      3  C   UNL     1       1.706  -5.790   1.976  0.00  0.00    +0.025 A 
ATOM      4  C   UNL     1       0.959  -4.856   1.269  0.00  0.00    +0.031 A 
ATOM      5  C   UNL     1       0.681  -5.050  -0.076  0.00  0.00    -0.018 A 
ATOM      6  C   UNL     1       1.165  -6.189  -0.705  0.00  0.00    +0.034 A 
ATOM      7  C   UNL     1      -0.123  -4.075  -0.876  0.00  0.00    +0.049 C 
ATOM      8  C   UNL     1       0.753  -3.261  -1.797  0.00  0.00    -0.023 C 
ATOM      9  C   UNL     1       0.304  -2.033  -1.884  0.00  0.00    -0.030 C 
ATOM     10  C   UNL     1      -0.941  -1.862  -1.034  0.00  0.00    +0.033 C 
ATOM     11  C   UNL     1      -0.836  -3.023  -0.003  0.00  0.00    +0.029 C 
ATOM     12  C   UNL     1       0.098  -2.555   1.117  0.00  0.00    +0.109 C 
ATOM     13  N   UNL     1       0.486  -3.715   1.927  0.00  0.00    -0.336 N 
ATOM     14  H   UNL     1       0.418  -3.692   2.894  0.00  0.00    +0.147 HD
ENDROOT
BRANCH  12  15
ATOM     15  C   UNL     1       1.328  -1.923   0.518  0.00  0.00    +0.022 A 
ATOM     16  C   UNL     1       1.329  -0.559   0.184  0.00  0.00    -0.009 A 
ATOM     17  C   UNL     1       0.196   0.245   0.397  0.00  0.00    +0.009 A 
ATOM     18  C   UNL     1       0.233   1.563   0.061  0.00  0.00    +0.001 A 
ATOM     19  C   UNL     1       1.379   2.131  -0.492  0.00  0.00    +0.001 A 
ATOM     20  C   UNL     1       2.495   1.383  -0.713  0.00  0.00    +0.008 A 
ATOM     21  C   UNL     1       2.495   0.018  -0.379  0.00  0.00    -0.017 A 
ATOM     22  C   UNL     1       3.629  -0.784  -0.593  0.00  0.00    +0.012 A 
ATOM     23  C   UNL     1       3.596  -2.102  -0.259  0.00  0.00    +0.046 A 
ATOM     24  C   UNL     1       2.447  -2.674   0.296  0.00  0.00    +0.122 A 
BRANCH  24  25
ATOM     25  O   UNL     1       2.444  -3.994   0.620  0.00  0.00    -0.506 OA
ATOM     26  H   UNL     1       2.631  -4.581  -0.125  0.00  0.00    +0.292 HD
ENDBRANCH  24  25
ENDBRANCH  12  15
BRANCH   1  27
ATOM     27  S   UNL     1       2.515  -8.554  -0.819  0.00  0.00    +0.059 S 
ATOM     28  O   UNL     1       2.722  -9.536   0.188  0.00  0.00    -0.153 OA
ATOM     29  O   UNL     1       1.664  -8.776  -1.936  0.00  0.00    -0.153 OA
BRANCH  27  30
ATOM     30  N   UNL     1       4.008  -8.180  -1.429  0.00  0.00    -0.187 NA
ATOM     31  H   UNL     1       4.151  -8.166  -2.388  0.00  0.00    +0.148 HD
BRANCH  30  32
ATOM     32  C   UNL     1       5.114  -7.868  -0.519  0.00  0.00    +0.073 C 
ATOM     33  C   UNL     1       5.212  -6.353  -0.336  0.00  0.00    +0.025 C 
BRANCH  32  35
ATOM     34  C   UNL     1       6.372  -9.924  -1.176  0.00  0.00    +0.005 C 
ATOM     35  C   UNL     1       6.423  -8.396  -1.109  0.00  0.00    +0.017 C 
ENDBRANCH  32  35
ENDBRANCH  30  32
ENDBRANCH  27  30
ENDBRANCH   1  27
TORSDOF 6
