REMARK  Name = ZINC04426997
REMARK  11 active torsions:
REMARK  status: ('A' for Active; 'I' for Inactive)
REMARK    1  A    between atoms: C_1  and  C_2
REMARK    2  A    between atoms: C_2  and  C_3
REMARK    3  A    between atoms: C_2  and  C_4
REMARK    4  A    between atoms: C_2  and  C_5
REMARK    5  A    between atoms: C_8  and  C_11
REMARK    6  A    between atoms: C_14  and  C_25
REMARK    7  A    between atoms: C_20  and  N_24
REMARK    8  A    between atoms: C_21  and  C_22
REMARK    9  A    between atoms: C_25  and  C_26
REMARK   10  A    between atoms: C_25  and  C_27
REMARK   11  A    between atoms: C_25  and  C_28
REMARK                            x       y       z     vdW  Elec       q    Type
REMARK                         _______ _______ _______ _____ _____    ______ ____
ROOT
ATOM      1  C   UNL     1       3.287  -1.859  -4.751  0.00  0.00    +0.101 C 
ATOM      2  C   UNL     1       4.364  -2.896  -4.555  0.00  0.00    +0.050 A 
ATOM      3  C   UNL     1       4.279  -4.149  -3.964  0.00  0.00    +0.076 A 
ATOM      4  N   UNL     1       5.468  -4.703  -4.014  0.00  0.00    -0.175 NA
ATOM      5  N   UNL     1       6.348  -3.809  -4.643  0.00  0.00    -0.246 N 
ATOM      6  H   UNL     1       7.291  -3.961  -4.813  0.00  0.00    +0.192 HD
ATOM      7  C   UNL     1       5.653  -2.708  -4.968  0.00  0.00    +0.222 A 
ATOM      8  O   UNL     1       6.065  -1.575  -5.590  0.00  0.00    -0.423 OA
ATOM      9  C   UNL     1       5.116  -0.732  -6.045  0.00  0.00    +0.200 C 
ATOM     10  C   UNL     1       3.811  -0.809  -5.699  0.00  0.00    +0.098 C 
ENDROOT
BRANCH   1  14
ATOM     11  C   UNL     1       2.317  -0.062  -0.999  0.00  0.00    -0.042 A 
ATOM     12  C   UNL     1       1.309  -0.494  -1.840  0.00  0.00    +0.004 A 
ATOM     13  C   UNL     1       1.623  -1.075  -3.054  0.00  0.00    +0.005 A 
ATOM     14  C   UNL     1       2.945  -1.224  -3.428  0.00  0.00    -0.035 A 
ATOM     15  C   UNL     1       3.954  -0.792  -2.587  0.00  0.00    +0.005 A 
ATOM     16  C   UNL     1       3.640  -0.207  -1.374  0.00  0.00    +0.004 A 
BRANCH  11  18
ATOM     17  C   UNL     1       2.530   1.997   0.367  0.00  0.00    +0.015 C 
ATOM     18  C   UNL     1       1.975   0.571   0.325  0.00  0.00    -0.013 C 
ATOM     19  C   UNL     1       2.594  -0.250   1.458  0.00  0.00    +0.015 C 
ATOM     20  C   UNL     1       0.455   0.610   0.494  0.00  0.00    +0.015 C 
ENDBRANCH  11  18
ENDBRANCH   1  14
BRANCH   3  21
ATOM     21  C   UNL     1       3.039  -4.766  -3.370  0.00  0.00    +0.007 C 
ATOM     22  C   UNL     1       1.892  -4.676  -4.378  0.00  0.00    +0.017 C 
ATOM     23  C   UNL     1       3.310  -6.234  -3.036  0.00  0.00    +0.017 C 
ATOM     24  C   UNL     1       2.658  -4.014  -2.093  0.00  0.00    +0.017 C 
ENDBRANCH   3  21
BRANCH   9  25
ATOM     25  N   UNL     1       5.496   0.263  -6.911  0.00  0.00    -0.328 N 
ATOM     26  H   UNL     1       6.425   0.344  -7.178  0.00  0.00    +0.145 HD
ATOM     27  H   UNL     1       4.836   0.884  -7.256  0.00  0.00    +0.145 HD
ENDBRANCH   9  25
BRANCH  10  28
ATOM     28  C   UNL     1       2.892   0.141  -6.251  0.00  0.00    +0.101 C 
ATOM     29  N   UNL     1       2.163   0.894  -6.690  0.00  0.00    -0.191 NA
ENDBRANCH  10  28
TORSDOF 5
