REMARK  Name = ZINC03954614
REMARK  6 active torsions:
REMARK  status: ('A' for Active; 'I' for Inactive)
REMARK    1  A    between atoms: C_1  and  C_2
REMARK    2  A    between atoms: C_2  and  C_22
REMARK    3  A    between atoms: N_7  and  C_8
REMARK    4  A    between atoms: C_12  and  C_14
REMARK    5  A    between atoms: C_14  and  S_15
REMARK    6  A    between atoms: S_15  and  C_16
REMARK                            x       y       z     vdW  Elec       q    Type
REMARK                         _______ _______ _______ _____ _____    ______ ____
ROOT
ATOM      1  C   UNL     1       1.817  -1.506  -0.381  0.00  0.00    +0.053 C 
ATOM      2  C   UNL     1       0.511  -2.285  -0.547  0.00  0.00    +0.102 C 
ATOM      3  N   UNL     1       0.064  -2.219  -1.951  0.00  0.00    -0.298 N 
ATOM      4  C   UNL     1      -0.491  -1.021  -2.382  0.00  0.00    +0.159 C 
ATOM      5  N   UNL     1      -1.403  -0.418  -1.518  0.00  0.00    -0.263 N 
ATOM      6  C   UNL     1      -1.095  -0.484  -0.160  0.00  0.00    +0.166 C 
ATOM      7  N   UNL     1      -0.544  -1.679   0.286  0.00  0.00    -0.254 N 
ATOM      8  C   UNL     1       0.722  -3.744  -0.138  0.00  0.00    +0.053 C 
ATOM      9  H   UNL     1       0.154  -2.980  -2.547  0.00  0.00    +0.151 HD
ATOM     10  H   UNL     1      -0.525   0.345  -3.892  0.00  0.00    +0.158 HD
ATOM     11  H   UNL     1      -2.204   0.022  -1.843  0.00  0.00    +0.157 HD
ATOM     12  H   UNL     1      -1.695   1.380   0.398  0.00  0.00    +0.158 HD
ATOM     13  N   UNL     1      -0.128  -0.534  -3.559  0.00  0.00    -0.375 N 
ATOM     14  H   UNL     1       0.552  -1.042  -4.137  0.00  0.00    +0.158 HD
ATOM     15  N   UNL     1      -1.291   0.496   0.708  0.00  0.00    -0.374 N 
ATOM     16  H   UNL     1      -1.036   0.366   1.694  0.00  0.00    +0.158 HD
ENDROOT
BRANCH   7  17
ATOM     17  C   UNL     1      -0.970  -2.280   1.475  0.00  0.00    +0.039 A 
ATOM     18  C   UNL     1      -0.274  -2.059   2.656  0.00  0.00    +0.023 A 
ATOM     19  C   UNL     1      -0.698  -2.654   3.828  0.00  0.00    +0.002 A 
ATOM     20  C   UNL     1      -1.814  -3.470   3.826  0.00  0.00    +0.004 A 
ATOM     21  C   UNL     1      -2.510  -3.692   2.652  0.00  0.00    -0.035 A 
ATOM     22  C   UNL     1      -2.094  -3.096   1.478  0.00  0.00    +0.028 A 
BRANCH  21  23
ATOM     23  C   UNL     1      -3.726  -4.582   2.655  0.00  0.00    +0.109 C 
BRANCH  23  24
ATOM     24  S   UNL     1      -5.205  -3.584   2.986  0.00  0.00    -0.121 S 
BRANCH  24  25
ATOM     25  C   UNL     1      -6.523  -4.753   2.957  0.00  0.00    +0.008 A 
ATOM     26  C   UNL     1      -6.259  -6.094   2.709  0.00  0.00    +0.015 A 
ATOM     27  C   UNL     1      -7.294  -7.008   2.693  0.00  0.00    +0.001 A 
ATOM     28  C   UNL     1      -8.594  -6.588   2.912  0.00  0.00    +0.000 A 
ATOM     29  C   UNL     1      -8.861  -5.252   3.153  0.00  0.00    +0.001 A 
ATOM     30  C   UNL     1      -7.830  -4.334   3.176  0.00  0.00    +0.015 A 
ENDBRANCH  24  25
ENDBRANCH  23  24
ENDBRANCH  21  23
ENDBRANCH   7  17
TORSDOF 4
