REMARK  Name = ZINC09108816
REMARK  8 active torsions:
REMARK  status: ('A' for Active; 'I' for Inactive)
REMARK    1  A    between atoms: C_1  and  C_2
REMARK    2  A    between atoms: C_2  and  C_3
REMARK    3  A    between atoms: C_3  and  C_4
REMARK    4  A    between atoms: C_3  and  C_5
REMARK    5  A    between atoms: C_3  and  C_6
REMARK    6  A    between atoms: C_12  and  C_16
REMARK    7  A    between atoms: N_18  and  N_19
REMARK    8  A    between atoms: C_20  and  C_21
REMARK                            x       y       z     vdW  Elec       q    Type
REMARK                         _______ _______ _______ _____ _____    ______ ____
ROOT
ATOM      1  C   UNL     1      -1.413  -2.063   0.004  0.00  0.00    -0.001 C 
ATOM      2  C   UNL     1      -0.696  -2.557  -1.255  0.00  0.00    +0.010 C 
ATOM      3  C   UNL     1      -0.449  -4.067  -1.150  0.00  0.00    +0.055 C 
ATOM      4  C   UNL     1      -1.746  -4.734  -0.768  0.00  0.00    +0.040 A 
ATOM      5  C   UNL     1      -2.812  -4.074  -0.253  0.00  0.00    +0.006 A 
ATOM      6  C   UNL     1      -3.804  -5.046  -0.042  0.00  0.00    +0.152 A 
ATOM      7  N   UNL     1      -3.290  -6.201  -0.430  0.00  0.00    -0.169 NA
ATOM      8  N   UNL     1      -2.086  -6.030  -0.856  0.00  0.00    -0.281 N 
ATOM      9  H   UNL     1      -1.510  -6.735  -1.191  0.00  0.00    +0.189 HD
ATOM     10  C   UNL     1      -2.853  -2.595   0.016  0.00  0.00    +0.043 C 
ENDROOT
BRANCH   6  11
ATOM     11  C   UNL     1      -5.156  -4.823   0.507  0.00  0.00    +0.284 C 
ATOM     12  O   UNL     1      -5.505  -3.703   0.827  0.00  0.00    -0.267 OA
ATOM     13  N   UNL     1      -6.004  -5.860   0.652  0.00  0.00    -0.202 N 
ATOM     14  H   UNL     1      -5.726  -6.753   0.397  0.00  0.00    +0.178 HD
BRANCH  13  15
ATOM     15  N   UNL     1      -7.288  -5.648   1.173  0.00  0.00    -0.187 NA
ATOM     16  C   UNL     1      -8.104  -6.647   1.313  0.00  0.00    +0.138 C 
BRANCH  16  17
ATOM     17  C   UNL     1      -9.455  -6.423   1.861  0.00  0.00    -0.005 A 
ATOM     18  C   UNL     1      -9.861  -5.137   2.224  0.00  0.00    +0.012 A 
ATOM     19  C   UNL     1     -11.125  -4.934   2.735  0.00  0.00    +0.039 A 
ATOM     20  C   UNL     1     -11.993  -6.003   2.889  0.00  0.00    +0.123 A 
ATOM     21  C   UNL     1     -11.596  -7.282   2.531  0.00  0.00    +0.039 A 
ATOM     22  C   UNL     1     -10.336  -7.497   2.013  0.00  0.00    +0.012 A 
ATOM     23  F   UNL     1     -13.231  -5.799   3.390  0.00  0.00    -0.205 F 
ENDBRANCH  16  17
ENDBRANCH  13  15
ENDBRANCH   6  11
BRANCH   1  24
ATOM     24  C   UNL     1      -1.433  -0.534   0.013  0.00  0.00    -0.032 C 
ATOM     25  C   UNL     1      -2.149  -0.040   1.272  0.00  0.00    +0.011 C 
ATOM     26  C   UNL     1      -2.173  -0.027  -1.227  0.00  0.00    +0.011 C 
BRANCH  24  28
ATOM     27  C   UNL     1      -0.019   1.526   0.010  0.00  0.00    +0.004 C 
ATOM     28  C   UNL     1       0.002  -0.004   0.002  0.00  0.00    +0.003 C 
ENDBRANCH  24  28
ENDBRANCH   1  24
TORSDOF 5
