REMARK  Name = ZINC60363046
REMARK  2 active torsions:
REMARK  status: ('A' for Active; 'I' for Inactive)
REMARK    1  A    between atoms: C_4  and  C_7
REMARK    2  A    between atoms: C_8  and  C_9
REMARK                            x       y       z     vdW  Elec       q    Type
REMARK                         _______ _______ _______ _____ _____    ______ ____
ROOT
ATOM      1  C   UNL     1       5.019  -2.743  -0.042  0.00  0.00    +0.156 A 
ATOM      2  N   UNL     1       5.022  -4.076  -0.052  0.00  0.00    -0.213 NA
ATOM      3  C   UNL     1       6.142  -4.774  -0.081  0.00  0.00    +0.134 A 
ATOM      4  C   UNL     1       7.391  -4.088  -0.103  0.00  0.00    +0.051 A 
ATOM      5  C   UNL     1       8.741  -4.649  -0.134  0.00  0.00    -0.025 A 
ATOM      6  C   UNL     1       9.768  -3.775  -0.151  0.00  0.00    -0.004 A 
ATOM      7  S   UNL     1       9.011  -2.171  -0.128  0.00  0.00    -0.073 S 
ATOM      8  C   UNL     1       7.312  -2.679  -0.093  0.00  0.00    +0.114 A 
ATOM      9  N   UNL     1       6.155  -2.052  -0.068  0.00  0.00    -0.221 NA
ATOM     10  C   UNL     1      11.232  -4.094  -0.182  0.00  0.00    +0.043 C 
ATOM     11  C   UNL     1      11.412  -5.574   0.184  0.00  0.00    +0.005 C 
ATOM     12  C   UNL     1      10.424  -6.407  -0.637  0.00  0.00    +0.005 C 
ATOM     13  C   UNL     1       8.998  -6.154  -0.147  0.00  0.00    +0.037 C 
ATOM     14  N   UNL     1       6.104  -6.157  -0.090  0.00  0.00    -0.313 N 
ATOM     15  C   UNL     1       6.191  -6.866   1.195  0.00  0.00    +0.108 C 
ATOM     16  C   UNL     1       5.200  -8.029   1.293  0.00  0.00    +0.038 C 
ATOM     17  C   UNL     1       3.861  -7.631   0.705  0.00  0.00    +0.111 C 
ATOM     18  N   UNL     1       3.903  -7.893  -0.734  0.00  0.00    -0.284 N 
ATOM     19  C   UNL     1       4.472  -7.014  -1.696  0.00  0.00    +0.128 C 
ATOM     20  C   UNL     1       5.974  -6.835  -1.368  0.00  0.00    +0.125 C 
ATOM     21  C   UNL     1       3.367  -9.047  -1.178  0.00  0.00    +0.300 C 
ATOM     22  O   UNL     1       3.451  -9.344  -2.353  0.00  0.00    -0.253 OA
ATOM     23  N   UNL     1       2.736  -9.871  -0.318  0.00  0.00    -0.313 N 
ATOM     24  H   UNL     1       2.603  -9.601   0.604  0.00  0.00    +0.146 HD
ATOM     25  H   UNL     1       2.414 -10.735  -0.622  0.00  0.00    +0.146 HD
ENDROOT
BRANCH   1  27
ATOM     26  C   UNL     1       3.719  -0.680  -0.003  0.00  0.00    +0.011 C 
ATOM     27  C   UNL     1       3.736  -2.023  -0.007  0.00  0.00    +0.049 C 
BRANCH  26  31
ATOM     28  C   UNL     1       0.019   1.395   0.096  0.00  0.00    +0.000 A 
ATOM     29  C   UNL     1       1.206   2.106   0.069  0.00  0.00    +0.001 A 
ATOM     30  C   UNL     1       2.412   1.438   0.037  0.00  0.00    +0.008 A 
ATOM     31  C   UNL     1       2.434   0.041   0.032  0.00  0.00    -0.025 A 
ATOM     32  C   UNL     1       1.231  -0.670   0.059  0.00  0.00    +0.008 A 
ATOM     33  C   UNL     1       0.032   0.011   0.091  0.00  0.00    +0.001 A 
ENDBRANCH  26  31
ENDBRANCH   1  27
TORSDOF 2
