REMARK  Name = ZINC45569558
REMARK  12 active torsions:
REMARK  status: ('A' for Active; 'I' for Inactive)
REMARK    1  A    between atoms: C_1  and  C_2
REMARK    2  A    between atoms: C_2  and  N_3
REMARK    3  A    between atoms: C_5  and  C_14
REMARK    4  A    between atoms: C_14  and  N_15
REMARK    5  A    between atoms: N_15  and  C_16
REMARK    6  A    between atoms: N_15  and  C_17
REMARK    7  A    between atoms: C_17  and  C_18
REMARK    8  A    between atoms: N_20  and  N_21
REMARK    9  A    between atoms: C_24  and  C_28
REMARK   10  A    between atoms: C_24  and  C_29
REMARK   11  A    between atoms: C_29  and  C_30
REMARK   12  A    between atoms: C_30  and  C_31
REMARK                            x       y       z     vdW  Elec       q    Type
REMARK                         _______ _______ _______ _____ _____    ______ ____
ROOT
ATOM      1  C   UNL     1       0.162  -5.120  -6.811  0.00  0.00    +0.213 C 
ATOM      2  O   UNL     1       0.955  -5.787  -6.180  0.00  0.00    -0.276 OA
ATOM      3  N   UNL     1      -0.238  -5.526  -8.032  0.00  0.00    -0.225 N 
ATOM      4  H   UNL     1      -0.873  -4.993  -8.536  0.00  0.00    +0.173 HD
ENDROOT
BRANCH   3   5
ATOM      5  N   UNL     1       0.262  -6.718  -8.573  0.00  0.00    -0.137 N 
ATOM      6  C   UNL     1       1.191  -6.776  -9.547  0.00  0.00    +0.263 C 
ATOM      7  O   UNL     1       1.732  -5.842 -10.100  0.00  0.00    -0.271 OA
ATOM      8  C   UNL     1       1.420  -8.251  -9.808  0.00  0.00    +0.112 C 
ATOM      9  N   UNL     1       0.508  -8.916  -8.861  0.00  0.00    -0.284 N 
ATOM     10  C   UNL     1      -0.121  -7.939  -8.182  0.00  0.00    +0.326 C 
ATOM     11  O   UNL     1      -0.946  -8.143  -7.314  0.00  0.00    -0.251 OA
ATOM     12  C   UNL     1       1.053  -8.607 -11.249  0.00  0.00    +0.041 C 
ATOM     13  H   UNL     1       0.386  -9.871  -8.747  0.00  0.00    +0.151 HD
BRANCH   8  14
ATOM     14  C   UNL     1       2.873  -8.631  -9.512  0.00  0.00    +0.040 C 
BRANCH  14  15
ATOM     15  C   UNL     1       3.075 -10.123  -9.783  0.00  0.00    +0.038 C 
BRANCH  15  16
ATOM     16  C   UNL     1       4.506 -10.496  -9.491  0.00  0.00    -0.047 A 
ATOM     17  C   UNL     1       5.458 -10.416 -10.490  0.00  0.00    +0.003 A 
ATOM     18  C   UNL     1       6.770 -10.759 -10.223  0.00  0.00    +0.000 A 
ATOM     19  C   UNL     1       7.130 -11.182  -8.956  0.00  0.00    +0.000 A 
ATOM     20  C   UNL     1       6.178 -11.261  -7.957  0.00  0.00    +0.000 A 
ATOM     21  C   UNL     1       4.867 -10.914  -8.224  0.00  0.00    +0.003 A 
ENDBRANCH  15  16
ENDBRANCH  14  15
ENDBRANCH   8  14
ENDBRANCH   3   5
BRANCH   1  22
ATOM     22  C   UNL     1      -0.376  -3.838  -6.229  0.00  0.00    +0.020 C 
BRANCH  22  23
ATOM     23  N   UNL     1       0.210  -3.620  -4.899  0.00  0.00    +0.386 N 
ATOM     24  C   UNL     1      -0.239  -4.680  -3.987  0.00  0.00    -0.095 C 
ATOM     25  H   UNL     1       1.217  -3.640  -4.968  0.00  0.00    -0.081 HD
BRANCH  23  26
ATOM     26  C   UNL     1      -0.220  -2.314  -4.383  0.00  0.00    -0.032 C 
BRANCH  26  29
ATOM     27  N   UNL     1       0.688  -0.476  -1.203  0.00  0.00    -0.324 N 
ATOM     28  C   UNL     1      -0.052  -0.728  -2.452  0.00  0.00    +0.147 C 
ATOM     29  C   UNL     1       0.488  -2.032  -3.056  0.00  0.00    +0.174 C 
ATOM     30  O   UNL     1       1.892  -1.890  -3.280  0.00  0.00    -0.487 OA
ATOM     31  C   UNL     1       2.652  -1.417  -2.256  0.00  0.00    +0.142 A 
ATOM     32  C   UNL     1       2.074  -0.700  -1.210  0.00  0.00    +0.072 A 
ATOM     33  C   UNL     1       2.860  -0.214  -0.178  0.00  0.00    +0.027 A 
ATOM     34  C   UNL     1       4.225  -0.439  -0.188  0.00  0.00    +0.002 A 
ATOM     35  C   UNL     1       4.803  -1.147  -1.225  0.00  0.00    +0.004 A 
ATOM     36  C   UNL     1       4.019  -1.644  -2.255  0.00  0.00    +0.047 A 
BRANCH  27  38
ATOM     37  C   UNL     1      -0.019   1.526   0.010  0.00  0.00    +0.024 C 
ATOM     38  C   UNL     1       0.002  -0.004   0.002  0.00  0.00    +0.102 C 
ENDBRANCH  27  38
ENDBRANCH  26  29
ENDBRANCH  23  26
ENDBRANCH  22  23
ENDBRANCH   1  22
TORSDOF 9
