REMARK  Name = ZINC38610860
REMARK  6 active torsions:
REMARK  status: ('A' for Active; 'I' for Inactive)
REMARK    1  A    between atoms: C_1  and  C_2
REMARK    2  A    between atoms: C_2  and  O_3
REMARK    3  A    between atoms: O_3  and  C_4
REMARK    4  A    between atoms: C_4  and  C_6
REMARK    5  A    between atoms: C_8  and  N_17
REMARK    6  A    between atoms: C_18  and  C_20
REMARK                            x       y       z     vdW  Elec       q    Type
REMARK                         _______ _______ _______ _____ _____    ______ ____
ROOT
ATOM      1  C   UNL     1       3.431  -3.728  -2.640  0.00  0.00    +0.234 C 
ATOM      2  C   UNL     1       3.061  -2.310  -2.261  0.00  0.00    +0.053 C 
ATOM      3  C   UNL     1       1.678  -2.278  -2.230  0.00  0.00    +0.020 A 
ATOM      4  C   UNL     1       0.753  -1.245  -1.942  0.00  0.00    +0.050 A 
ATOM      5  C   UNL     1      -0.578  -1.503  -1.988  0.00  0.00    +0.124 A 
ATOM      6  C   UNL     1      -1.068  -2.773  -2.313  0.00  0.00    +0.040 A 
ATOM      7  C   UNL     1      -0.241  -3.807  -2.599  0.00  0.00    +0.029 A 
ATOM      8  C   UNL     1       1.165  -3.615  -2.573  0.00  0.00    +0.045 A 
ATOM      9  N   UNL     1       2.163  -4.446  -2.807  0.00  0.00    -0.367 N 
ATOM     10  F   UNL     1      -1.452  -0.510  -1.712  0.00  0.00    -0.205 F 
ATOM     11  H   UNL     1       2.074  -5.380  -3.051  0.00  0.00    +0.161 HD
ENDROOT
BRANCH   2  12
ATOM     12  N   UNL     1       3.914  -1.279  -2.003  0.00  0.00    -0.286 N 
ATOM     13  C   UNL     1       5.242  -1.502  -1.941  0.00  0.00    +0.223 C 
ATOM     14  O   UNL     1       5.687  -2.596  -2.217  0.00  0.00    -0.275 OA
ATOM     15  H   UNL     1       3.566  -0.385  -1.864  0.00  0.00    +0.155 HD
BRANCH  13  16
ATOM     16  C   UNL     1       6.174  -0.392  -1.528  0.00  0.00    +0.049 C 
ATOM     17  C   UNL     1       5.812   0.080  -0.119  0.00  0.00    +0.019 C 
ATOM     18  C   UNL     1       6.759   1.207   0.300  0.00  0.00    -0.008 C 
ATOM     19  C   UNL     1       8.200   0.694   0.288  0.00  0.00    +0.007 C 
ATOM     20  C   UNL     1       8.562   0.222  -1.121  0.00  0.00    -0.008 C 
ATOM     21  C   UNL     1       7.615  -0.905  -1.540  0.00  0.00    +0.019 C 
ATOM     22  C   UNL     1       8.428   1.390  -2.100  0.00  0.00    +0.021 C 
ATOM     23  C   UNL     1       6.987   1.903  -2.089  0.00  0.00    +0.028 C 
ATOM     24  C   UNL     1       6.625   2.375  -0.679  0.00  0.00    +0.021 C 
ATOM     25  C   UNL     1       6.041   0.776  -2.507  0.00  0.00    +0.034 C 
ATOM     26 BR   UNL     1       6.816   3.404  -3.347  0.00  0.00    -0.084 Br
ENDBRANCH  13  16
ENDBRANCH   2  12
BRANCH   1  27
ATOM     27  C   UNL     1       4.206  -3.734  -3.932  0.00  0.00    +0.336 C 
ATOM     28  O   UNL     1       3.633  -3.557  -4.981  0.00  0.00    -0.248 OA
BRANCH  27  29
ATOM     29  O   UNL     1       5.532  -3.937  -3.918  0.00  0.00    -0.463 OA
BRANCH  29  31
ATOM     30  C   UNL     1       7.698  -4.176  -4.964  0.00  0.00    +0.048 C 
ATOM     31  C   UNL     1       6.203  -3.930  -5.180  0.00  0.00    +0.229 C 
ENDBRANCH  29  31
ENDBRANCH  27  29
ENDBRANCH   1  27
TORSDOF 5
