REMARK  Name = ZINC09092433
REMARK  10 active torsions:
REMARK  status: ('A' for Active; 'I' for Inactive)
REMARK    1  A    between atoms: C_1  and  C_2
REMARK    2  A    between atoms: C_2  and  C_3
REMARK    3  A    between atoms: C_3  and  C_5
REMARK    4  A    between atoms: C_3  and  C_6
REMARK    5  A    between atoms: C_9  and  N_12
REMARK    6  A    between atoms: C_13  and  C_15
REMARK    7  A    between atoms: C_15  and  S_16
REMARK    8  A    between atoms: S_16  and  C_17
REMARK    9  A    between atoms: C_20  and  C_23
REMARK   10  A    between atoms: N_21  and  N_22
REMARK                            x       y       z     vdW  Elec       q    Type
REMARK                         _______ _______ _______ _____ _____    ______ ____
ROOT
ATOM      1  S   UNL     1      -0.782  -8.787   4.220  0.00  0.00    -0.075 S 
ENDROOT
BRANCH   1   2
ATOM      2  C   UNL     1      -0.689 -10.547   4.198  0.00  0.00    +0.209 A 
ATOM      3  N   UNL     1      -0.154 -11.287   3.253  0.00  0.00    -0.121 NA
ATOM      4  N   UNL     1      -0.257 -12.532   3.556  0.00  0.00    -0.127 NA
ATOM      5  C   UNL     1      -0.863 -12.662   4.713  0.00  0.00    +0.183 A 
ATOM      6  N   UNL     1      -1.153 -11.395   5.163  0.00  0.00    -0.224 N 
BRANCH   5   7
ATOM      7  C   UNL     1      -1.171 -13.932   5.406  0.00  0.00    +0.035 A 
ATOM      8  C   UNL     1      -2.449 -14.158   5.920  0.00  0.00    +0.013 A 
ATOM      9  C   UNL     1      -2.730 -15.344   6.565  0.00  0.00    +0.001 A 
ATOM     10  C   UNL     1      -1.749 -16.310   6.702  0.00  0.00    +0.001 A 
ATOM     11  C   UNL     1      -0.480 -16.094   6.195  0.00  0.00    +0.016 A 
ATOM     12  C   UNL     1      -0.187 -14.912   5.543  0.00  0.00    +0.029 A 
ATOM     13 BR   UNL     1       1.546 -14.621   4.843  0.00  0.00    -0.050 Br
ENDBRANCH   5   7
BRANCH   6  14
ATOM     14  N   UNL     1      -1.778 -11.055   6.329  0.00  0.00    -0.295 N 
ATOM     15  H   UNL     1      -2.771 -10.942   6.188  0.00  0.00    +0.163 HD
ATOM     16  H   UNL     1      -1.590 -11.735   7.051  0.00  0.00    +0.163 HD
ENDBRANCH   6  14
ENDBRANCH   1   2
BRANCH   1  17
ATOM     17  C   UNL     1       0.007  -8.287   2.665  0.00  0.00    +0.173 C 
BRANCH  17  19
ATOM     18  N   UNL     1       0.529  -6.181   1.476  0.00  0.00    -0.285 N 
ATOM     19  C   UNL     1      -0.006  -6.784   2.556  0.00  0.00    +0.227 C 
ATOM     20  O   UNL     1      -0.499  -6.116   3.441  0.00  0.00    -0.275 OA
ATOM     21  H   UNL     1       0.856  -6.715   0.735  0.00  0.00    +0.155 HD
BRANCH  18  25
ATOM     22  C   UNL     1       0.784  -2.026   1.320  0.00  0.00    -0.044 A 
ATOM     23  C   UNL     1       0.910  -2.680   2.532  0.00  0.00    +0.006 A 
ATOM     24  C   UNL     1       0.826  -4.057   2.587  0.00  0.00    +0.023 A 
ATOM     25  C   UNL     1       0.615  -4.786   1.424  0.00  0.00    +0.033 A 
ATOM     26  C   UNL     1       0.489  -4.126   0.208  0.00  0.00    +0.023 A 
ATOM     27  C   UNL     1       0.569  -2.748   0.160  0.00  0.00    +0.006 A 
BRANCH  22  28
ATOM     28  C   UNL     1       0.877  -0.523   1.263  0.00  0.00    +0.016 C 
ATOM     29  C   UNL     1      -0.222   0.089   2.135  0.00  0.00    +0.012 C 
BRANCH  28  31
ATOM     30  C   UNL     1       2.387   1.437   1.606  0.00  0.00    +0.004 C 
ATOM     31  C   UNL     1       2.246  -0.076   1.779  0.00  0.00    +0.004 C 
ENDBRANCH  28  31
ENDBRANCH  22  28
ENDBRANCH  18  25
ENDBRANCH  17  19
ENDBRANCH   1  17
TORSDOF 8
