REMARK  Name = ZINC37425595
REMARK  14 active torsions:
REMARK  status: ('A' for Active; 'I' for Inactive)
REMARK    1  A    between atoms: C_1  and  C_2
REMARK    2  A    between atoms: C_2  and  C_3
REMARK    3  A    between atoms: C_3  and  C_5
REMARK    4  A    between atoms: C_3  and  N_6
REMARK    5  A    between atoms: C_7  and  C_9
REMARK    6  A    between atoms: C_9  and  N_10
REMARK    7  A    between atoms: C_13  and  C_24
REMARK    8  A    between atoms: N_15  and  C_16
REMARK    9  A    between atoms: C_20  and  C_23
REMARK   10  A    between atoms: C_21  and  C_22
REMARK   11  A    between atoms: C_24  and  C_25
REMARK   12  A    between atoms: C_24  and  C_26
REMARK   13  A    between atoms: C_24  and  C_27
REMARK   14  A    between atoms: C_28  and  C_34
REMARK                            x       y       z     vdW  Elec       q    Type
REMARK                         _______ _______ _______ _____ _____    ______ ____
ROOT
ATOM      1  N   UNL     1      -3.897  -2.896  -2.011  0.00  0.00    -0.246 N 
ATOM      2  C   UNL     1      -5.232  -3.043  -2.418  0.00  0.00    +0.136 A 
ATOM      3  C   UNL     1      -6.289  -2.971  -1.576  0.00  0.00    +0.034 A 
ATOM      4  C   UNL     1      -7.450  -3.156  -2.329  0.00  0.00    +0.075 A 
ATOM      5  N   UNL     1      -7.103  -3.336  -3.580  0.00  0.00    -0.169 NA
ATOM      6  N   UNL     1      -5.703  -3.272  -3.667  0.00  0.00    -0.217 N 
ATOM      7  C   UNL     1      -6.191  -2.738  -0.090  0.00  0.00    +0.112 C 
ATOM      8  S   UNL     1      -5.750  -0.986   0.196  0.00  0.00    -0.138 S 
ATOM      9  C   UNL     1      -4.512  -0.691  -1.110  0.00  0.00    +0.166 C 
ATOM     10  C   UNL     1      -3.581  -1.861  -1.226  0.00  0.00    +0.231 C 
ATOM     11  O   UNL     1      -2.536  -1.868  -0.610  0.00  0.00    -0.274 OA
ENDROOT
BRANCH   6  12
ATOM     12  C   UNL     1      -4.936  -3.418  -4.830  0.00  0.00    +0.071 A 
ATOM     13  C   UNL     1      -3.830  -2.604  -5.041  0.00  0.00    +0.028 A 
ATOM     14  C   UNL     1      -3.076  -2.750  -6.189  0.00  0.00    +0.002 A 
ATOM     15  C   UNL     1      -3.421  -3.705  -7.128  0.00  0.00    +0.004 A 
ATOM     16  C   UNL     1      -4.520  -4.517  -6.920  0.00  0.00    -0.046 A 
ATOM     17  C   UNL     1      -5.275  -4.380  -5.772  0.00  0.00    -0.022 A 
ATOM     18  C   UNL     1      -6.470  -5.269  -5.544  0.00  0.00    +0.046 C 
ATOM     19  C   UNL     1      -4.893  -5.556  -7.946  0.00  0.00    +0.044 C 
ENDBRANCH   6  12
BRANCH   7  20
ATOM     20  C   UNL     1      -7.517  -3.043   0.558  0.00  0.00    -0.030 A 
ATOM     21  C   UNL     1      -7.742  -4.287   1.117  0.00  0.00    +0.008 A 
ATOM     22  C   UNL     1      -8.957  -4.567   1.712  0.00  0.00    +0.038 A 
ATOM     23  C   UNL     1      -9.949  -3.602   1.749  0.00  0.00    +0.123 A 
ATOM     24  C   UNL     1      -9.722  -2.356   1.188  0.00  0.00    +0.038 A 
ATOM     25  C   UNL     1      -8.504  -2.076   0.598  0.00  0.00    +0.008 A 
ATOM     26  F   UNL     1     -11.138  -3.875   2.330  0.00  0.00    -0.205 F 
ENDBRANCH   7  20
BRANCH   4  27
ATOM     27  C   UNL     1      -8.859  -3.151  -1.794  0.00  0.00    +0.007 C 
ATOM     28  C   UNL     1      -9.208  -1.748  -1.291  0.00  0.00    +0.017 C 
ATOM     29  C   UNL     1      -9.828  -3.549  -2.909  0.00  0.00    +0.017 C 
ATOM     30  C   UNL     1      -8.970  -4.149  -0.640  0.00  0.00    +0.017 C 
ENDBRANCH   4  27
BRANCH   1  31
ATOM     31  C   UNL     1      -2.875  -3.858  -2.432  0.00  0.00    +0.210 C 
BRANCH  31  33
ATOM     32  N   UNL     1      -1.815  -5.906  -1.538  0.00  0.00    -0.311 N 
ATOM     33  C   UNL     1      -2.708  -4.911  -1.367  0.00  0.00    +0.231 C 
ATOM     34  O   UNL     1      -3.377  -4.863  -0.356  0.00  0.00    -0.274 OA
ATOM     35  H   UNL     1      -1.281  -5.945  -2.346  0.00  0.00    +0.149 HD
BRANCH  32  36
ATOM     36  C   UNL     1      -1.653  -6.930  -0.503  0.00  0.00    +0.070 C 
ATOM     37  C   UNL     1      -2.697  -8.030  -0.705  0.00  0.00    +0.028 C 
BRANCH  36  39
ATOM     38  C   UNL     1       0.790  -6.461  -0.274  0.00  0.00    +0.005 C 
ATOM     39  C   UNL     1      -0.251  -7.534  -0.599  0.00  0.00    +0.018 C 
ENDBRANCH  36  39
ENDBRANCH  32  36
ENDBRANCH  31  33
ENDBRANCH   1  31
TORSDOF 7
