REMARK  Name = ZINC36306639
REMARK  15 active torsions:
REMARK  status: ('A' for Active; 'I' for Inactive)
REMARK    1  A    between atoms: C_1  and  C_2
REMARK    2  A    between atoms: C_2  and  C_3
REMARK    3  A    between atoms: C_2  and  C_4
REMARK    4  A    between atoms: C_4  and  N_5
REMARK    5  A    between atoms: N_5  and  C_6
REMARK    6  A    between atoms: N_5  and  C_27
REMARK    7  A    between atoms: C_6  and  C_7
REMARK    8  A    between atoms: C_8  and  C_21
REMARK    9  A    between atoms: N_10  and  C_20
REMARK   10  A    between atoms: C_11  and  O_12
REMARK   11  A    between atoms: O_12  and  C_13
REMARK   12  A    between atoms: C_27  and  C_28
REMARK   13  A    between atoms: C_28  and  C_30
REMARK   14  A    between atoms: C_28  and  O_37
REMARK   15  A    between atoms: C_30  and  C_31
REMARK                            x       y       z     vdW  Elec       q    Type
REMARK                         _______ _______ _______ _____ _____    ______ ____
ROOT
ATOM      1  C   UNL     1      -2.986  -2.404  -1.454  0.00  0.00    +0.025 A 
ATOM      2  C   UNL     1      -4.026  -1.456  -1.388  0.00  0.00    +0.098 A 
ATOM      3  N   UNL     1      -4.745  -1.561  -2.485  0.00  0.00    -0.168 NA
ATOM      4  N   UNL     1      -4.190  -2.572  -3.280  0.00  0.00    -0.235 N 
ATOM      5  C   UNL     1      -3.107  -3.072  -2.630  0.00  0.00    +0.221 A 
ATOM      6  C   UNL     1      -4.686  -3.010  -4.587  0.00  0.00    +0.176 C 
ENDROOT
BRANCH   2   7
ATOM      7  C   UNL     1      -4.268  -0.505  -0.275  0.00  0.00    +0.002 A 
ATOM      8  C   UNL     1      -4.578   0.826  -0.547  0.00  0.00    +0.010 A 
ATOM      9  C   UNL     1      -4.803   1.706   0.492  0.00  0.00    +0.001 A 
ATOM     10  C   UNL     1      -4.721   1.268   1.802  0.00  0.00    +0.000 A 
ATOM     11  C   UNL     1      -4.415  -0.052   2.078  0.00  0.00    +0.001 A 
ATOM     12  C   UNL     1      -4.193  -0.942   1.046  0.00  0.00    +0.010 A 
ENDBRANCH   2   7
BRANCH   1  13
ATOM     13  C   UNL     1      -1.925  -2.631  -0.409  0.00  0.00    -0.035 C 
BRANCH  13  14
ATOM     14  N   UNL     1      -0.650  -2.071  -0.875  0.00  0.00    +0.384 N 
ATOM     15  H   UNL     1      -0.438  -2.436  -1.792  0.00  0.00    -0.081 HD
BRANCH  14  16
ATOM     16  C   UNL     1      -0.754  -0.607  -0.943  0.00  0.00    -0.075 C 
BRANCH  16  18
ATOM     17  C   UNL     1      -1.601   1.314  -2.298  0.00  0.00    +0.005 C 
ATOM     18  C   UNL     1      -1.394  -0.202  -2.272  0.00  0.00    -0.034 C 
ATOM     19  C   UNL     1      -0.476  -0.611  -3.426  0.00  0.00    +0.005 C 
ENDBRANCH  16  18
ENDBRANCH  14  16
BRANCH  14  20
ATOM     20  C   UNL     1       0.420  -2.443   0.060  0.00  0.00    -0.046 C 
BRANCH  20  21
ATOM     21  C   UNL     1       1.772  -2.020  -0.518  0.00  0.00    +0.102 C 
BRANCH  21  22
ATOM     22  O   UNL     1       2.020  -2.740  -1.727  0.00  0.00    -0.393 OA
ATOM     23  H   UNL     1       2.046  -3.700  -1.615  0.00  0.00    +0.210 HD
ENDBRANCH  21  22
BRANCH  21  24
ATOM     24  C   UNL     1       2.878  -2.326   0.494  0.00  0.00    +0.064 C 
BRANCH  24  25
ATOM     25  C   UNL     1       4.192  -1.799  -0.021  0.00  0.00    -0.045 A 
ATOM     26  C   UNL     1       4.999  -2.602  -0.806  0.00  0.00    +0.004 A 
ATOM     27  C   UNL     1       6.204  -2.118  -1.279  0.00  0.00    +0.000 A 
ATOM     28  C   UNL     1       6.602  -0.831  -0.968  0.00  0.00    +0.000 A 
ATOM     29  C   UNL     1       5.795  -0.028  -0.185  0.00  0.00    +0.000 A 
ATOM     30  C   UNL     1       4.588  -0.510   0.285  0.00  0.00    +0.004 A 
ENDBRANCH  24  25
ENDBRANCH  21  24
ENDBRANCH  20  21
ENDBRANCH  14  20
ENDBRANCH  13  14
ENDBRANCH   1  13
BRANCH   5  31
ATOM     31  O   UNL     1      -2.294  -4.063  -3.074  0.00  0.00    -0.435 OA
BRANCH  31  32
ATOM     32  C   UNL     1      -2.660  -5.348  -2.825  0.00  0.00    +0.165 A 
ATOM     33  C   UNL     1      -3.882  -5.620  -2.229  0.00  0.00    +0.049 A 
ATOM     34  C   UNL     1      -4.252  -6.927  -1.977  0.00  0.00    +0.004 A 
ATOM     35  C   UNL     1      -3.405  -7.965  -2.318  0.00  0.00    +0.003 A 
ATOM     36  C   UNL     1      -2.186  -7.699  -2.913  0.00  0.00    +0.042 A 
ATOM     37  C   UNL     1      -1.812  -6.393  -3.173  0.00  0.00    +0.165 A 
ATOM     38  F   UNL     1      -0.623  -6.133  -3.758  0.00  0.00    -0.202 F 
ENDBRANCH  31  32
ENDBRANCH   5  31
TORSDOF 12
