REMARK  Name = ZINC36278228
REMARK  11 active torsions:
REMARK  status: ('A' for Active; 'I' for Inactive)
REMARK    1  A    between atoms: C_1  and  C_2
REMARK    2  A    between atoms: C_2  and  O_3
REMARK    3  A    between atoms: O_3  and  C_4
REMARK    4  A    between atoms: C_4  and  C_6
REMARK    5  A    between atoms: C_6  and  C_7
REMARK    6  A    between atoms: C_8  and  C_17
REMARK    7  A    between atoms: C_11  and  N_16
REMARK    8  A    between atoms: C_17  and  N_18
REMARK    9  A    between atoms: C_20  and  C_29
REMARK   10  A    between atoms: C_25  and  C_27
REMARK   11  A    between atoms: C_25  and  C_28
REMARK                            x       y       z     vdW  Elec       q    Type
REMARK                         _______ _______ _______ _____ _____    ______ ____
ROOT
ATOM      1  C   UNL     1       1.496  -3.885   2.424  0.00  0.00    +0.072 A 
ATOM      2  C   UNL     1       0.538  -4.689   2.937  0.00  0.00    +0.030 A 
ATOM      3  N   UNL     1       0.896  -5.978   2.652  0.00  0.00    -0.303 N 
ATOM      4  C   UNL     1       0.308  -7.182   2.925  0.00  0.00    +0.115 A 
ATOM      5  C   UNL     1       0.886  -8.338   2.519  0.00  0.00    +0.041 A 
ATOM      6  C   UNL     1       2.103  -8.309   1.810  0.00  0.00    +0.028 A 
ATOM      7  C   UNL     1       2.694  -7.116   1.534  0.00  0.00    +0.048 A 
ATOM      8  C   UNL     1       2.079  -5.923   1.964  0.00  0.00    +0.138 A 
ATOM      9  N   UNL     1       2.419  -4.647   1.833  0.00  0.00    -0.232 NA
ENDROOT
BRANCH   5  10
ATOM     10  N   UNL     1       0.273  -9.565   2.806  0.00  0.00    -0.357 N 
ATOM     11  H   UNL     1      -0.565  -9.586   3.295  0.00  0.00    +0.142 HD
ATOM     12  H   UNL     1       0.686 -10.393   2.516  0.00  0.00    +0.142 HD
ENDBRANCH   5  10
BRANCH   1  13
ATOM     13  C   UNL     1       1.516  -2.381   2.500  0.00  0.00    +0.177 C 
BRANCH  13  14
ATOM     14  C   UNL     1       0.801  -1.808   1.304  0.00  0.00    +0.313 C 
ATOM     15  O   UNL     1       0.324  -2.546   0.475  0.00  0.00    -0.250 OA
BRANCH  14  16
ATOM     16  O   UNL     1       0.693  -0.477   1.160  0.00  0.00    -0.465 OA
BRANCH  16  18
ATOM     17  C   UNL     1      -0.019   1.526   0.010  0.00  0.00    +0.048 C 
ATOM     18  C   UNL     1       0.002  -0.004   0.002  0.00  0.00    +0.229 C 
ENDBRANCH  16  18
ENDBRANCH  14  16
ENDBRANCH  13  14
ENDBRANCH   1  13
BRANCH   2  19
ATOM     19  C   UNL     1      -0.694  -4.247   3.684  0.00  0.00    -0.022 C 
BRANCH  19  20
ATOM     20  N   UNL     1      -0.397  -4.174   5.110  0.00  0.00    +0.386 N 
ATOM     21  C   UNL     1      -0.067  -5.501   5.662  0.00  0.00    -0.071 C 
ATOM     22  C   UNL     1      -0.774  -5.589   7.036  0.00  0.00    -0.048 C 
ATOM     23  C   UNL     1      -1.156  -4.118   7.349  0.00  0.00    -0.011 C 
ATOM     24  C   UNL     1      -1.512  -3.636   5.916  0.00  0.00    -0.067 C 
ATOM     25  C   UNL     1      -2.847  -4.248   5.541  0.00  0.00    -0.009 C 
ATOM     26  C   UNL     1      -3.076  -5.694   5.921  0.00  0.00    -0.036 C 
ATOM     27  C   UNL     1      -2.081  -6.357   6.848  0.00  0.00    +0.011 C 
ATOM     28  C   UNL     1      -3.193  -6.537   4.635  0.00  0.00    +0.011 C 
ATOM     29  C   UNL     1      -4.464  -5.772   6.608  0.00  0.00    +0.011 C 
ATOM     30  C   UNL     1       0.128  -6.205   8.116  0.00  0.00    +0.009 C 
ATOM     31  H   UNL     1       0.415  -3.568   5.243  0.00  0.00    -0.081 HD
ENDBRANCH  19  20
ENDBRANCH   2  19
TORSDOF 7
