REMARK  Name = ZINC35465070
REMARK  9 active torsions:
REMARK  status: ('A' for Active; 'I' for Inactive)
REMARK    1  A    between atoms: C_1  and  C_2
REMARK    2  A    between atoms: C_2  and  C_3
REMARK    3  A    between atoms: C_13  and  C_15
REMARK    4  A    between atoms: C_15  and  C_19
REMARK    5  A    between atoms: C_16  and  O_17
REMARK    6  A    between atoms: O_17  and  C_18
REMARK    7  A    between atoms: C_19  and  O_21
REMARK    8  A    between atoms: O_21  and  C_22
REMARK    9  A    between atoms: C_28  and  O_29
REMARK                            x       y       z     vdW  Elec       q    Type
REMARK                         _______ _______ _______ _____ _____    ______ ____
ROOT
ATOM      1  C   UNL     1       0.742  -0.511   1.242  0.00  0.00    -0.020 C 
ATOM      2  C   UNL     1      -0.042  -0.105   2.499  0.00  0.00    -0.074 C 
ATOM      3  N   UNL     1       0.667  -0.637   3.655  0.00  0.00    +0.383 N 
ATOM      4  C   UNL     1       0.081  -0.302   4.963  0.00  0.00    -0.077 C 
ATOM      5  C   UNL     1       0.678  -1.377   5.914  0.00  0.00    +0.001 C 
ATOM      6  C   UNL     1       1.039  -2.556   4.989  0.00  0.00    +0.064 C 
ATOM      7  C   UNL     1       0.582  -2.123   3.602  0.00  0.00    -0.048 C 
ATOM      8  C   UNL     1       1.472  -2.592   2.461  0.00  0.00    -0.005 C 
ATOM      9  C   UNL     1       0.882  -2.030   1.157  0.00  0.00    +0.029 C 
ATOM     10  C   UNL     1       2.495  -2.873   5.044  0.00  0.00    +0.028 A 
ATOM     11  C   UNL     1       2.584  -4.199   5.488  0.00  0.00    +0.041 A 
ATOM     12  C   UNL     1       3.831  -4.805   5.647  0.00  0.00    +0.024 A 
ATOM     13  C   UNL     1       4.952  -4.045   5.349  0.00  0.00    +0.005 A 
ATOM     14  C   UNL     1       4.856  -2.741   4.912  0.00  0.00    +0.046 A 
ATOM     15  C   UNL     1       3.616  -2.120   4.748  0.00  0.00    +0.123 A 
ATOM     16  N   UNL     1       1.319  -4.719   5.708  0.00  0.00    -0.284 N 
ATOM     17  C   UNL     1       0.348  -3.818   5.439  0.00  0.00    +0.226 C 
ATOM     18  O   UNL     1      -0.848  -3.992   5.540  0.00  0.00    -0.275 OA
ATOM     19  H   UNL     1       1.151  -5.622   6.020  0.00  0.00    +0.155 HD
ATOM     20  H   UNL     1       1.633  -0.348   3.627  0.00  0.00    -0.081 HD
ENDROOT
BRANCH   1  22
ATOM     21  C   UNL     1      -0.019   1.526   0.010  0.00  0.00    +0.004 C 
ATOM     22  C   UNL     1       0.002  -0.004   0.002  0.00  0.00    -0.001 C 
ENDBRANCH   1  22
BRANCH   9  23
ATOM     23  C   UNL     1       1.792  -2.382   0.009  0.00  0.00    +0.074 C 
ATOM     24  C   UNL     1       1.336  -3.145  -1.001  0.00  0.00    +0.197 C 
BRANCH  24  25
ATOM     25  O   UNL     1       2.150  -3.460  -2.028  0.00  0.00    -0.502 OA
ATOM     26  C   UNL     1       1.600  -4.273  -3.067  0.00  0.00    +0.276 C 
ENDBRANCH  24  25
BRANCH  23  27
ATOM     27  C   UNL     1       3.127  -1.911  -0.006  0.00  0.00    +0.338 C 
ATOM     28  O   UNL     1       3.862  -2.196  -0.934  0.00  0.00    -0.245 OA
BRANCH  27  29
ATOM     29  O   UNL     1       3.584  -1.147   1.007  0.00  0.00    -0.465 OA
ATOM     30  C   UNL     1       4.941  -0.706   0.926  0.00  0.00    +0.280 C 
ENDBRANCH  27  29
ENDBRANCH  23  27
ENDBRANCH   9  23
BRANCH  15  31
ATOM     31  O   UNL     1       3.516  -0.835   4.318  0.00  0.00    -0.506 OA
ATOM     32  H   UNL     1       3.518  -0.180   5.030  0.00  0.00    +0.292 HD
ENDBRANCH  15  31
TORSDOF 6
