REMARK  Name = ZINC21375065
REMARK  7 active torsions:
REMARK  status: ('A' for Active; 'I' for Inactive)
REMARK    1  A    between atoms: C_1  and  C_2
REMARK    2  A    between atoms: C_2  and  C_4
REMARK    3  A    between atoms: C_2  and  O_15
REMARK    4  A    between atoms: C_12  and  C_14
REMARK    5  A    between atoms: O_15  and  C_16
REMARK    6  A    between atoms: C_16  and  C_18
REMARK    7  A    between atoms: C_20  and  N_26
REMARK                            x       y       z     vdW  Elec       q    Type
REMARK                         _______ _______ _______ _____ _____    ______ ____
ROOT
ATOM      1  O   UNL     1       0.606  -0.678   1.100  0.00  0.00    -0.448 OA
ENDROOT
BRANCH   1   3
ATOM      2  C   UNL     1       0.221   1.501   0.127  0.00  0.00    +0.062 C 
ATOM      3  C   UNL     1      -0.018  -0.005   0.004  0.00  0.00    +0.259 C 
BRANCH   3   4
ATOM      4  C   UNL     1       0.569  -0.503  -1.291  0.00  0.00    +0.256 C 
ATOM      5  O   UNL     1       1.561  -1.202  -1.278  0.00  0.00    -0.272 OA
ATOM      6  N   UNL     1      -0.008  -0.173  -2.463  0.00  0.00    -0.295 N 
ATOM      7  C   UNL     1      -1.140   0.763  -2.502  0.00  0.00    +0.127 C 
ATOM      8  C   UNL     1      -0.792   1.913  -3.456  0.00  0.00    +0.126 C 
ATOM      9  N   UNL     1      -0.300   1.343  -4.719  0.00  0.00    -0.299 N 
ATOM     10  C   UNL     1       0.832   0.407  -4.679  0.00  0.00    +0.126 C 
ATOM     11  C   UNL     1       0.488  -0.739  -3.726  0.00  0.00    +0.127 C 
ATOM     12  C   UNL     1      -0.877   1.673  -5.891  0.00  0.00    +0.213 C 
ATOM     13  O   UNL     1      -1.872   2.366  -5.903  0.00  0.00    -0.276 OA
ATOM     14  C   UNL     1      -0.286   1.181  -7.187  0.00  0.00    +0.109 C 
ENDBRANCH   3   4
ENDBRANCH   1   3
BRANCH   1  15
ATOM     15  C   UNL     1      -0.136  -0.857   2.210  0.00  0.00    +0.360 C 
ATOM     16  O   UNL     1      -1.281  -0.454   2.247  0.00  0.00    -0.243 OA
BRANCH  15  17
ATOM     17  C   UNL     1       0.444  -1.545   3.384  0.00  0.00    +0.169 A 
ATOM     18  C   UNL     1      -0.331  -1.732   4.526  0.00  0.00    +0.095 A 
ATOM     19  C   UNL     1       0.231  -2.384   5.625  0.00  0.00    +0.067 A 
ATOM     20  C   UNL     1       1.551  -2.821   5.530  0.00  0.00    +0.100 A 
ATOM     21  C   UNL     1       2.257  -2.598   4.359  0.00  0.00    +0.150 A 
ATOM     22  N   UNL     1       1.698  -1.984   3.337  0.00  0.00    -0.226 NA
ATOM     23 CL   UNL     1       3.902  -3.140   4.235  0.00  0.00    -0.060 Cl
ATOM     24 CL   UNL     1       2.303  -3.637   6.866  0.00  0.00    -0.078 Cl
ATOM     25 CL   UNL     1      -1.970  -1.163   4.582  0.00  0.00    -0.079 Cl
BRANCH  19  26
ATOM     26  N   UNL     1      -0.508  -2.591   6.787  0.00  0.00    -0.356 N 
ATOM     27  H   UNL     1      -1.426  -2.281   6.840  0.00  0.00    +0.142 HD
ATOM     28  H   UNL     1      -0.106  -3.046   7.543  0.00  0.00    +0.142 HD
ENDBRANCH  19  26
ENDBRANCH  15  17
ENDBRANCH   1  15
TORSDOF 5
