REMARK  Name = ZINC39912626
REMARK  11 active torsions:
REMARK  status: ('A' for Active; 'I' for Inactive)
REMARK    1  A    between atoms: C_1  and  C_2
REMARK    2  A    between atoms: C_2  and  C_3
REMARK    3  A    between atoms: C_3  and  O_4
REMARK    4  A    between atoms: O_4  and  C_5
REMARK    5  A    between atoms: C_8  and  C_11
REMARK    6  A    between atoms: C_14  and  C_29
REMARK    7  A    between atoms: N_21  and  C_22
REMARK    8  A    between atoms: C_22  and  C_23
REMARK    9  A    between atoms: C_31  and  C_37
REMARK   10  A    between atoms: C_33  and  C_36
REMARK   11  A    between atoms: C_34  and  O_35
REMARK                            x       y       z     vdW  Elec       q    Type
REMARK                         _______ _______ _______ _____ _____    ______ ____
ROOT
ATOM      1  C   UNL     1       3.215  -4.431  -5.617  0.00  0.00    +0.142 C 
ATOM      2  C   UNL     1       2.195  -5.012  -6.558  0.00  0.00    +0.035 A 
ATOM      3  C   UNL     1       1.108  -4.781  -7.407  0.00  0.00    +0.102 A 
ATOM      4  N   UNL     1       0.747  -5.944  -7.912  0.00  0.00    -0.173 NA
ATOM      5  N   UNL     1       1.498  -6.887  -7.465  0.00  0.00    -0.272 N 
ATOM      6  H   UNL     1       1.416  -7.824  -7.701  0.00  0.00    +0.189 HD
ATOM      7  C   UNL     1       2.430  -6.372  -6.609  0.00  0.00    +0.126 A 
ATOM      8  C   UNL     1       3.566  -6.682  -5.734  0.00  0.00    +0.266 C 
ATOM      9  O   UNL     1       4.024  -7.796  -5.558  0.00  0.00    -0.268 OA
ATOM     10  N   UNL     1       4.031  -5.560  -5.152  0.00  0.00    -0.281 N 
ENDROOT
BRANCH   3  11
ATOM     11  C   UNL     1       0.476  -3.467  -7.689  0.00  0.00    +0.044 A 
ATOM     12  C   UNL     1       1.040  -2.298  -7.185  0.00  0.00    +0.017 A 
ATOM     13  C   UNL     1       0.449  -1.079  -7.449  0.00  0.00    -0.049 A 
ATOM     14  C   UNL     1      -0.702  -1.014  -8.214  0.00  0.00    +0.010 A 
ATOM     15  C   UNL     1      -1.270  -2.169  -8.718  0.00  0.00    -0.008 A 
ATOM     16  C   UNL     1      -0.683  -3.398  -8.466  0.00  0.00    +0.129 A 
ATOM     17  C   UNL     1      -2.524  -2.090  -9.550  0.00  0.00    +0.047 C 
ATOM     18  C   UNL     1       1.060   0.186  -6.903  0.00  0.00    +0.044 C 
BRANCH  16  19
ATOM     19  O   UNL     1      -1.237  -4.534  -8.967  0.00  0.00    -0.506 OA
ATOM     20  H   UNL     1      -1.890  -4.944  -8.383  0.00  0.00    +0.292 HD
ENDBRANCH  16  19
ENDBRANCH   3  11
BRANCH   1  24
ATOM     21  C   UNL     1       1.267  -2.562  -2.305  0.00  0.00    +0.121 A 
ATOM     22  C   UNL     1       1.163  -3.933  -2.489  0.00  0.00    +0.046 A 
ATOM     23  C   UNL     1       1.794  -4.535  -3.560  0.00  0.00    +0.009 A 
ATOM     24  C   UNL     1       2.528  -3.772  -4.449  0.00  0.00    -0.022 A 
ATOM     25  C   UNL     1       2.634  -2.405  -4.268  0.00  0.00    +0.009 A 
ATOM     26  C   UNL     1       2.000  -1.798  -3.201  0.00  0.00    +0.046 A 
BRANCH  21  27
ATOM     27  O   UNL     1       0.648  -1.967  -1.252  0.00  0.00    -0.492 OA
BRANCH  27  28
ATOM     28  C   UNL     1      -0.089  -2.816  -0.369  0.00  0.00    +0.229 C 
BRANCH  28  30
ATOM     29  C   UNL     1      -1.500  -2.883   1.692  0.00  0.00    +0.007 C 
ATOM     30  C   UNL     1      -0.711  -1.974   0.747  0.00  0.00    +0.038 C 
ENDBRANCH  28  30
ENDBRANCH  27  28
ENDBRANCH  21  27
ENDBRANCH   1  24
BRANCH  10  31
ATOM     31  C   UNL     1       5.156  -5.479  -4.217  0.00  0.00    +0.145 C 
BRANCH  31  32
ATOM     32  C   UNL     1       4.650  -5.646  -2.808  0.00  0.00    -0.012 A 
ATOM     33  C   UNL     1       4.253  -4.542  -2.068  0.00  0.00    +0.008 A 
ATOM     34  C   UNL     1       3.795  -4.744  -0.775  0.00  0.00    +0.020 A 
ATOM     35  C   UNL     1       3.749  -6.030  -0.270  0.00  0.00    +0.111 A 
ATOM     36  N   UNL     1       4.136  -7.056  -1.002  0.00  0.00    -0.263 NA
ATOM     37  C   UNL     1       4.571  -6.902  -2.237  0.00  0.00    +0.115 A 
ENDBRANCH  31  32
ENDBRANCH  10  31
TORSDOF 8
