REMARK  Name = ZINC15004261
REMARK  8 active torsions:
REMARK  status: ('A' for Active; 'I' for Inactive)
REMARK    1  A    between atoms: C_1  and  O_2
REMARK    2  A    between atoms: O_2  and  C_3
REMARK    3  A    between atoms: C_8  and  C_9
REMARK    4  A    between atoms: C_9  and  N_10
REMARK    5  A    between atoms: C_21  and  N_62
REMARK    6  A    between atoms: C_25  and  C_26
REMARK    7  A    between atoms: C_25  and  N_62
REMARK    8  A    between atoms: C_26  and  O_32
REMARK                            x       y       z     vdW  Elec       q    Type
REMARK                         _______ _______ _______ _____ _____    ______ ____
ROOT
ATOM      1  N   UNL     1      -0.929   2.001   4.378  0.00  0.00    -0.294 N 
ATOM      2  C   UNL     1      -0.264   0.861   4.056  0.00  0.00    +0.203 A 
ATOM      3  N   UNL     1       0.701   0.405   4.808  0.00  0.00    -0.230 NA
ATOM      4  C   UNL     1       1.056   1.039   5.923  0.00  0.00    +0.116 A 
ATOM      5  C   UNL     1       0.423   2.220   6.341  0.00  0.00    +0.076 A 
ATOM      6  C   UNL     1      -0.627   2.696   5.490  0.00  0.00    +0.263 A 
ATOM      7  O   UNL     1      -1.237   3.715   5.768  0.00  0.00    -0.267 OA
ATOM      8  C   UNL     1       0.919   2.805   7.587  0.00  0.00    -0.023 A 
ATOM      9  C   UNL     1       1.927   2.159   8.208  0.00  0.00    -0.006 A 
ATOM     10  S   UNL     1       2.271   0.753   7.184  0.00  0.00    -0.073 S 
ATOM     11  C   UNL     1       2.605   2.550   9.485  0.00  0.00    +0.027 C 
ATOM     12  C   UNL     1       1.738   3.601  10.192  0.00  0.00    -0.067 C 
ATOM     13  C   UNL     1       1.335   4.671   9.173  0.00  0.00    -0.011 C 
ATOM     14  C   UNL     1       0.336   4.088   8.174  0.00  0.00    +0.035 C 
ENDROOT
BRANCH  12  15
ATOM     15  N   UNL     1       2.509   4.230  11.280  0.00  0.00    +0.383 N 
ATOM     16  H   UNL     1       2.133   5.167  11.465  0.00  0.00    -0.085 HD
ATOM     17  H   UNL     1       3.493   4.307  10.997  0.00  0.00    -0.085 HD
BRANCH  15  18
ATOM     18  C   UNL     1       2.418   3.419  12.509  0.00  0.00    -0.047 C 
BRANCH  18  19
ATOM     19  C   UNL     1       3.226   4.095  13.618  0.00  0.00    +0.051 C 
ATOM     20  C   UNL     1       4.661   4.322  13.137  0.00  0.00    +0.033 C 
ATOM     21  C   UNL     1       5.470   4.998  14.246  0.00  0.00    +0.003 C 
ATOM     22  C   UNL     1       5.483   4.102  15.486  0.00  0.00    +0.000 C 
ATOM     23  C   UNL     1       4.049   3.874  15.967  0.00  0.00    +0.003 C 
ATOM     24  C   UNL     1       3.240   3.198  14.858  0.00  0.00    +0.033 C 
BRANCH  19  25
ATOM     25  O   UNL     1       2.629   5.351  13.945  0.00  0.00    -0.390 OA
ATOM     26  H   UNL     1       2.587   5.971  13.204  0.00  0.00    +0.210 HD
ENDBRANCH  19  25
ENDBRANCH  18  19
ENDBRANCH  15  18
ENDBRANCH  12  15
BRANCH   1  27
ATOM     27  C   UNL     1      -2.001   2.479   3.501  0.00  0.00    +0.165 C 
BRANCH  27  33
ATOM     28  C   UNL     1      -0.787   2.892   1.346  0.00  0.00    +0.125 A 
ATOM     29  C   UNL     1      -0.253   3.751   0.396  0.00  0.00    +0.046 A 
ATOM     30  C   UNL     1      -0.367   5.117   0.561  0.00  0.00    +0.004 A 
ATOM     31  C   UNL     1      -1.003   5.630   1.677  0.00  0.00    +0.001 A 
ATOM     32  C   UNL     1      -1.531   4.776   2.627  0.00  0.00    +0.009 A 
ATOM     33  C   UNL     1      -1.425   3.409   2.465  0.00  0.00    +0.014 A 
BRANCH  28  35
ATOM     34  C   UNL     1      -0.013   1.086   0.008  0.00  0.00    +0.277 C 
ATOM     35  O   UNL     1      -0.682   1.547   1.184  0.00  0.00    -0.495 OA
ENDBRANCH  28  35
ENDBRANCH  27  33
ENDBRANCH   1  27
TORSDOF 7
