REMARK  Name = ZINC36700528
REMARK  13 active torsions:
REMARK  status: ('A' for Active; 'I' for Inactive)
REMARK    1  A    between atoms: C_1  and  C_2
REMARK    2  A    between atoms: C_2  and  C_3
REMARK    3  A    between atoms: C_2  and  C_4
REMARK    4  A    between atoms: C_4  and  C_6
REMARK    5  A    between atoms: C_4  and  N_22
REMARK    6  A    between atoms: N_8  and  C_9
REMARK    7  A    between atoms: C_9  and  C_10
REMARK    8  A    between atoms: C_10  and  C_12
REMARK    9  A    between atoms: C_10  and  N_19
REMARK   10  A    between atoms: N_19  and  C_20
REMARK   11  A    between atoms: N_19  and  C_21
REMARK   12  A    between atoms: N_22  and  S_23
REMARK   13  A    between atoms: S_23  and  C_26
REMARK                            x       y       z     vdW  Elec       q    Type
REMARK                         _______ _______ _______ _____ _____    ______ ____
ROOT
ATOM      1  C   UNL     1      -2.504   0.019  -1.496  0.00  0.00    +0.232 C 
ATOM      2  O   UNL     1      -2.948  -0.678  -2.384  0.00  0.00    -0.274 OA
ATOM      3  N   UNL     1      -2.764   1.341  -1.484  0.00  0.00    -0.315 N 
ATOM      4  H   UNL     1      -2.352   1.911  -0.816  0.00  0.00    +0.149 HD
ENDROOT
BRANCH   1   5
ATOM      5  C   UNL     1      -1.661  -0.593  -0.408  0.00  0.00    +0.165 C 
BRANCH   5   7
ATOM      6  C   UNL     1       0.655  -0.787   0.509  0.00  0.00    +0.009 C 
ATOM      7  C   UNL     1      -0.190  -0.248  -0.646  0.00  0.00    +0.010 C 
ATOM      8  C   UNL     1       0.277  -0.882  -1.958  0.00  0.00    +0.009 C 
ENDBRANCH   5   7
BRANCH   5   9
ATOM      9  N   UNL     1      -1.829  -2.049  -0.420  0.00  0.00    -0.178 NA
ATOM     10  H   UNL     1      -1.510  -2.567  -1.175  0.00  0.00    +0.149 HD
BRANCH   9  11
ATOM     11  S   UNL     1      -2.564  -2.809   0.854  0.00  0.00    +0.062 S 
ATOM     12  O   UNL     1      -2.534  -4.200   0.569  0.00  0.00    -0.153 OA
ATOM     13  O   UNL     1      -1.996  -2.260   2.036  0.00  0.00    -0.153 OA
BRANCH  11  14
ATOM     14  C   UNL     1      -4.259  -2.328   0.840  0.00  0.00    +0.140 A 
ATOM     15  C   UNL     1      -5.239  -3.257   0.545  0.00  0.00    +0.031 A 
ATOM     16  C   UNL     1      -6.569  -2.880   0.534  0.00  0.00    +0.002 A 
ATOM     17  C   UNL     1      -6.921  -1.573   0.818  0.00  0.00    +0.003 A 
ATOM     18  C   UNL     1      -5.943  -0.643   1.114  0.00  0.00    +0.040 A 
ATOM     19  C   UNL     1      -4.611  -1.021   1.130  0.00  0.00    +0.150 A 
ATOM     20  F   UNL     1      -3.654  -0.113   1.424  0.00  0.00    -0.203 F 
ENDBRANCH  11  14
ENDBRANCH   9  11
ENDBRANCH   5   9
ENDBRANCH   1   5
BRANCH   3  21
ATOM     21  C   UNL     1      -3.671   1.919  -2.479  0.00  0.00    +0.093 C 
BRANCH  21  22
ATOM     22  C   UNL     1      -3.703   3.440  -2.317  0.00  0.00    -0.020 C 
BRANCH  22  23
ATOM     23  C   UNL     1      -2.351   4.011  -2.659  0.00  0.00    -0.041 A 
ATOM     24  C   UNL     1      -1.428   4.249  -1.658  0.00  0.00    +0.003 A 
ATOM     25  C   UNL     1      -0.188   4.772  -1.972  0.00  0.00    +0.000 A 
ATOM     26  C   UNL     1       0.131   5.058  -3.287  0.00  0.00    +0.001 A 
ATOM     27  C   UNL     1      -0.791   4.820  -4.288  0.00  0.00    +0.020 A 
ATOM     28  C   UNL     1      -2.031   4.290  -3.976  0.00  0.00    +0.043 A 
ATOM     29 CL   UNL     1      -3.187   3.985  -5.234  0.00  0.00    -0.083 Cl
ENDBRANCH  22  23
BRANCH  22  30
ATOM     30  N   UNL     1      -4.040   3.778  -0.928  0.00  0.00    +0.382 N 
ATOM     31  C   UNL     1      -4.183   5.234  -0.799  0.00  0.00    -0.096 C 
ATOM     32  C   UNL     1      -5.305   3.127  -0.559  0.00  0.00    -0.096 C 
ATOM     33  H   UNL     1      -3.305   3.456  -0.316  0.00  0.00    -0.082 HD
ENDBRANCH  22  30
ENDBRANCH  21  22
ENDBRANCH   3  21
TORSDOF 9
