REMARK  Name = ZINC08424717
REMARK  8 active torsions:
REMARK  status: ('A' for Active; 'I' for Inactive)
REMARK    1  A    between atoms: C_1  and  C_2
REMARK    2  A    between atoms: C_2  and  O_3
REMARK    3  A    between atoms: O_3  and  C_4
REMARK    4  A    between atoms: C_4  and  C_6
REMARK    5  A    between atoms: C_7  and  C_31
REMARK    6  A    between atoms: C_14  and  C_15
REMARK    7  A    between atoms: C_20  and  O_21
REMARK    8  A    between atoms: C_24  and  C_26
REMARK                            x       y       z     vdW  Elec       q    Type
REMARK                         _______ _______ _______ _____ _____    ______ ____
ROOT
ATOM      1  C   UNL     1      -3.604   2.337   1.061  0.00  0.00    +0.085 C 
ATOM      2  C   UNL     1      -3.385   3.639   0.708  0.00  0.00    +0.053 C 
ATOM      3  N   UNL     1      -2.171   4.049   0.362  0.00  0.00    -0.228 NA
ATOM      4  C   UNL     1      -1.107   3.287   0.323  0.00  0.00    +0.178 A 
ATOM      5  N   UNL     1      -1.109   1.947   0.634  0.00  0.00    -0.274 N 
ATOM      6  C   UNL     1       0.044   1.269   0.562  0.00  0.00    +0.268 A 
ATOM      7  O   UNL     1       0.093   0.083   0.832  0.00  0.00    -0.266 OA
ATOM      8  C   UNL     1       1.248   2.000   0.142  0.00  0.00    +0.081 A 
ATOM      9  C   UNL     1       2.521   1.550  -0.013  0.00  0.00    +0.032 C 
ATOM     10  S   UNL     1       0.585   3.639  -0.108  0.00  0.00    -0.046 S 
ATOM     11  C   UNL     1      -2.428   1.387   1.043  0.00  0.00    +0.168 C 
ATOM     12  C   UNL     1      -4.531   4.617   0.712  0.00  0.00    +0.066 C 
ENDROOT
BRANCH   9  13
ATOM     13  C   UNL     1       2.809   0.115   0.089  0.00  0.00    +0.019 A 
ATOM     14  C   UNL     1       1.951  -0.820  -0.502  0.00  0.00    +0.026 A 
ATOM     15  C   UNL     1       2.232  -2.166  -0.408  0.00  0.00    +0.019 A 
ATOM     16  C   UNL     1       3.355  -2.599   0.281  0.00  0.00    +0.019 A 
ATOM     17  C   UNL     1       4.207  -1.688   0.875  0.00  0.00    +0.047 A 
ATOM     18  C   UNL     1       3.945  -0.331   0.785  0.00  0.00    +0.124 A 
ATOM     19 BR   UNL     1       1.077  -3.428  -1.213  0.00  0.00    -0.050 Br
BRANCH  18  20
ATOM     20  O   UNL     1       4.782   0.565   1.368  0.00  0.00    -0.506 OA
ATOM     21  H   UNL     1       4.551   0.782   2.282  0.00  0.00    +0.292 HD
ENDBRANCH  18  20
ENDBRANCH   9  13
BRANCH  11  22
ATOM     22  C   UNL     1      -2.759   0.257   0.103  0.00  0.00    +0.017 A 
ATOM     23  C   UNL     1      -3.196  -0.993   0.392  0.00  0.00    +0.013 A 
ATOM     24  C   UNL     1      -3.441  -1.874  -0.645  0.00  0.00    +0.008 A 
ATOM     25  C   UNL     1      -3.227  -1.465  -1.919  0.00  0.00    +0.045 A 
ATOM     26  S   UNL     1      -2.669   0.214  -1.679  0.00  0.00    -0.099 S 
ENDBRANCH  11  22
BRANCH   1  27
ATOM     27  C   UNL     1      -4.885   1.894   1.429  0.00  0.00    +0.339 C 
ATOM     28  O   UNL     1      -5.820   2.674   1.438  0.00  0.00    -0.245 OA
BRANCH  27  29
ATOM     29  O   UNL     1      -5.079   0.602   1.774  0.00  0.00    -0.462 OA
BRANCH  29  31
ATOM     30  C   UNL     1      -6.431  -1.267   2.495  0.00  0.00    +0.048 C 
ATOM     31  C   UNL     1      -6.407   0.221   2.138  0.00  0.00    +0.229 C 
ENDBRANCH  29  31
ENDBRANCH  27  29
ENDBRANCH   1  27
TORSDOF 6
