REMARK  Name = ZINC08890153
REMARK  3 active torsions:
REMARK  status: ('A' for Active; 'I' for Inactive)
REMARK    1  A    between atoms: N_12  and  C_16
REMARK    2  A    between atoms: C_16  and  C_17
REMARK    3  A    between atoms: N_22  and  C_23
REMARK                            x       y       z     vdW  Elec       q    Type
REMARK                         _______ _______ _______ _____ _____    ______ ____
ROOT
ATOM      1  C   UNL     1      -1.540   5.291   2.809  0.00  0.00    +0.238 C 
ATOM      2  O   UNL     1      -1.890   4.202   2.407  0.00  0.00    -0.274 OA
ATOM      3  N   UNL     1      -2.221   5.892   3.805  0.00  0.00    -0.239 N 
ATOM      4  C   UNL     1      -3.292   5.284   4.352  0.00  0.00    +0.306 C 
ATOM      5  O   UNL     1      -3.643   4.192   3.949  0.00  0.00    -0.252 OA
ATOM      6  N   UNL     1      -3.973   5.885   5.348  0.00  0.00    -0.294 N 
ATOM      7  H   UNL     1      -1.941   6.763   4.127  0.00  0.00    +0.159 HD
ATOM      8  H   UNL     1      -3.693   6.756   5.670  0.00  0.00    +0.151 HD
ENDROOT
BRANCH   6   9
ATOM      9  C   UNL     1      -5.136   5.223   5.943  0.00  0.00    +0.037 C 
ATOM     10  C   UNL     1      -4.708   3.883   6.545  0.00  0.00    +0.029 C 
ATOM     11  C   UNL     1      -5.924   3.192   7.167  0.00  0.00    -0.008 C 
ATOM     12  C   UNL     1      -6.509   4.081   8.265  0.00  0.00    +0.007 C 
ATOM     13  C   UNL     1      -6.937   5.421   7.663  0.00  0.00    -0.008 C 
ATOM     14  C   UNL     1      -5.722   6.112   7.042  0.00  0.00    +0.029 C 
ATOM     15  C   UNL     1      -7.995   5.181   6.584  0.00  0.00    +0.007 C 
ATOM     16  C   UNL     1      -7.409   4.292   5.485  0.00  0.00    -0.008 C 
ATOM     17  C   UNL     1      -6.981   2.952   6.087  0.00  0.00    +0.007 C 
ATOM     18  C   UNL     1      -6.194   4.983   4.864  0.00  0.00    +0.029 C 
ENDBRANCH   6   9
BRANCH   1  19
ATOM     19  C   UNL     1      -0.343   5.972   2.197  0.00  0.00    +0.214 C 
BRANCH  19  31
ATOM     20  C   UNL     1       1.209  -0.678  -0.013  0.00  0.00    +0.000 A 
ATOM     21  C   UNL     1       0.002  -0.004   0.002  0.00  0.00    +0.000 A 
ATOM     22  C   UNL     1      -0.017   1.376   0.010  0.00  0.00    +0.006 A 
ATOM     23  C   UNL     1       1.169   2.092   0.002  0.00  0.00    -0.012 A 
ATOM     24  C   UNL     1       2.378   1.416  -0.009  0.00  0.00    -0.042 A 
ATOM     25  C   UNL     1       2.394   0.032  -0.018  0.00  0.00    +0.004 A 
ATOM     26  C   UNL     1       3.521   2.410  -0.005  0.00  0.00    +0.038 C 
ATOM     27  C   UNL     1       2.889   3.756  -0.428  0.00  0.00    +0.045 C 
ATOM     28  C   UNL     1       1.427   3.575  -0.002  0.00  0.00    +0.138 C 
ATOM     29  C   UNL     1       1.173   4.187   1.351  0.00  0.00    +0.251 C 
ATOM     30  O   UNL     1       1.709   3.903   2.400  0.00  0.00    -0.272 OA
ATOM     31  N   UNL     1       0.218   5.120   1.145  0.00  0.00    -0.215 N 
ATOM     32  C   UNL     1      -0.153   5.170  -0.141  0.00  0.00    +0.310 C 
ATOM     33  O   UNL     1      -0.997   5.930  -0.573  0.00  0.00    -0.252 OA
ATOM     34  N   UNL     1       0.517   4.282  -0.903  0.00  0.00    -0.281 N 
ATOM     35  H   UNL     1       0.415   4.139  -1.858  0.00  0.00    +0.152 HD
ENDBRANCH  19  31
ENDBRANCH   1  19
TORSDOF 3
