REMARK  Name = ZINC23175010
REMARK  5 active torsions:
REMARK  status: ('A' for Active; 'I' for Inactive)
REMARK    1  A    between atoms: C_4  and  C_7
REMARK    2  A    between atoms: C_7  and  C_9
REMARK    3  A    between atoms: C_7  and  N_18
REMARK    4  A    between atoms: C_19  and  C_21
REMARK    5  A    between atoms: C_21  and  C_22
REMARK                            x       y       z     vdW  Elec       q    Type
REMARK                         _______ _______ _______ _____ _____    ______ ____
ROOT
ATOM      1  N   UNL     1      -2.257   1.580   0.910  0.00  0.00    -0.301 N 
ATOM      2  C   UNL     1      -3.209   2.346   1.478  0.00  0.00    +0.220 C 
ATOM      3  O   UNL     1      -3.243   3.537   1.253  0.00  0.00    -0.275 OA
ATOM      4  H   UNL     1      -2.226   0.500   1.114  0.00  0.00    +0.150 HD
ENDROOT
BRANCH   1   5
ATOM      5  C   UNL     1      -1.263   2.186   0.020  0.00  0.00    +0.169 C 
BRANCH   5   6
ATOM      6  C   UNL     1      -0.016   1.340   0.009  0.00  0.00    +0.131 A 
ATOM      7  C   UNL     1       1.235   1.819   0.000  0.00  0.00    +0.055 A 
ATOM      8  C   UNL     1       2.121   0.649  -0.015  0.00  0.00    +0.020 A 
ATOM      9  C   UNL     1       3.504   0.473  -0.029  0.00  0.00    +0.011 A 
ATOM     10  C   UNL     1       4.026  -0.791  -0.040  0.00  0.00    +0.001 A 
ATOM     11  C   UNL     1       3.189  -1.897  -0.038  0.00  0.00    +0.004 A 
ATOM     12  C   UNL     1       1.819  -1.743  -0.024  0.00  0.00    +0.047 A 
ATOM     13  C   UNL     1       1.268  -0.468  -0.013  0.00  0.00    +0.135 A 
ATOM     14  O   UNL     1       0.002  -0.004   0.002  0.00  0.00    -0.457 OA
ENDBRANCH   5   6
BRANCH   5  18
ATOM     15  C   UNL     1      -2.854   2.426  -3.937  0.00  0.00    +0.000 A 
ATOM     16  C   UNL     1      -2.102   3.469  -3.430  0.00  0.00    +0.000 A 
ATOM     17  C   UNL     1      -1.587   3.392  -2.150  0.00  0.00    +0.006 A 
ATOM     18  C   UNL     1      -1.825   2.271  -1.376  0.00  0.00    -0.020 A 
ATOM     19  C   UNL     1      -2.573   1.226  -1.885  0.00  0.00    +0.006 A 
ATOM     20  C   UNL     1      -3.092   1.306  -3.163  0.00  0.00    +0.000 A 
ENDBRANCH   5  18
ENDBRANCH   1   5
BRANCH   2  21
ATOM     21  C   UNL     1      -4.231   1.723   2.394  0.00  0.00    +0.153 C 
BRANCH  21  22
ATOM     22  C   UNL     1      -5.174   2.787   2.893  0.00  0.00    +0.078 A 
ATOM     23  C   UNL     1      -6.266   2.430   3.798  0.00  0.00    +0.011 A 
ATOM     24  C   UNL     1      -6.464   1.118   4.234  0.00  0.00    +0.010 A 
ATOM     25  C   UNL     1      -7.495   0.836   5.085  0.00  0.00    +0.001 A 
ATOM     26  C   UNL     1      -8.348   1.838   5.530  0.00  0.00    +0.001 A 
ATOM     27  C   UNL     1      -8.175   3.142   5.121  0.00  0.00    +0.014 A 
ATOM     28  C   UNL     1      -7.129   3.454   4.252  0.00  0.00    +0.050 A 
ATOM     29  C   UNL     1      -6.891   4.823   3.780  0.00  0.00    +0.272 A 
ATOM     30  O   UNL     1      -7.612   5.737   4.140  0.00  0.00    -0.266 OA
ATOM     31  N   UNL     1      -5.860   5.050   2.941  0.00  0.00    -0.242 N 
ATOM     32  H   UNL     1      -5.663   6.068   2.574  0.00  0.00    +0.192 HD
ATOM     33  N   UNL     1      -5.020   4.021   2.514  0.00  0.00    -0.175 NA
ENDBRANCH  21  22
ENDBRANCH   2  21
TORSDOF 5
