REMARK  Name = ZINC63541098
REMARK  8 active torsions:
REMARK  status: ('A' for Active; 'I' for Inactive)
REMARK    1  A    between atoms: C_1  and  O_2
REMARK    2  A    between atoms: O_2  and  C_3
REMARK    3  A    between atoms: C_6  and  C_9
REMARK    4  A    between atoms: C_13  and  C_24
REMARK    5  A    between atoms: C_18  and  C_20
REMARK    6  A    between atoms: N_26  and  C_27
REMARK    7  A    between atoms: C_27  and  C_28
REMARK    8  A    between atoms: C_28  and  C_29
REMARK                            x       y       z     vdW  Elec       q    Type
REMARK                         _______ _______ _______ _____ _____    ______ ____
ROOT
ATOM      1  C   UNL     1       2.577  -2.540   4.292  0.00  0.00    +0.070 C 
ATOM      2  N   UNL     1       3.110  -1.805   5.237  0.00  0.00    -0.254 NA
ATOM      3  C   UNL     1       3.785  -2.443   6.370  0.00  0.00    +0.246 C 
ATOM      4  C   UNL     1       3.477  -1.723   7.663  0.00  0.00    +0.073 C 
ATOM      5  H   UNL     1       2.641  -4.691   8.380  0.00  0.00    +0.170 HD
ATOM      6  C   UNL     1       2.954  -2.640   8.505  0.00  0.00    +0.100 C 
ATOM      7  N   UNL     1       2.868  -3.869   7.918  0.00  0.00    -0.269 N 
ATOM      8  N   UNL     1       3.169  -3.777   6.548  0.00  0.00    -0.220 N 
ATOM      9  C   UNL     1       2.926  -4.624   5.497  0.00  0.00    +0.132 C 
ATOM     10  C   UNL     1       2.628  -4.005   4.325  0.00  0.00    +0.057 C 
ENDROOT
BRANCH   1  14
ATOM     11  C   UNL     1       0.625  -0.618   1.041  0.00  0.00    +0.120 A 
ATOM     12  C   UNL     1       1.202   0.142   2.050  0.00  0.00    +0.046 A 
ATOM     13  C   UNL     1       1.835  -0.477   3.106  0.00  0.00    +0.013 A 
ATOM     14  C   UNL     1       1.897  -1.870   3.159  0.00  0.00    +0.000 A 
ATOM     15  C   UNL     1       1.317  -2.631   2.144  0.00  0.00    +0.013 A 
ATOM     16  C   UNL     1       0.680  -2.005   1.094  0.00  0.00    +0.046 A 
BRANCH  11  18
ATOM     17  C   UNL     1      -0.017   1.425   0.010  0.00  0.00    +0.277 C 
ATOM     18  O   UNL     1       0.002  -0.004   0.002  0.00  0.00    -0.495 OA
ENDBRANCH  11  18
ENDBRANCH   1  14
BRANCH   9  19
ATOM     19  C   UNL     1       2.979  -6.124   5.633  0.00  0.00    +0.432 C 
ATOM     20  F   UNL     1       2.688  -6.715   4.399  0.00  0.00    -0.165 F 
ATOM     21  F   UNL     1       4.259  -6.510   6.045  0.00  0.00    -0.165 F 
ATOM     22  F   UNL     1       2.038  -6.539   6.582  0.00  0.00    -0.165 F 
ENDBRANCH   9  19
BRANCH   4  23
ATOM     23  C   UNL     1       3.695  -0.353   7.938  0.00  0.00    +0.245 C 
ATOM     24  O   UNL     1       3.401   0.104   9.027  0.00  0.00    -0.270 OA
ATOM     25  N   UNL     1       4.229   0.447   6.993  0.00  0.00    -0.311 N 
ATOM     26  H   UNL     1       4.463   0.083   6.125  0.00  0.00    +0.149 HD
BRANCH  25  27
ATOM     27  C   UNL     1       4.455   1.866   7.278  0.00  0.00    +0.109 C 
BRANCH  27  28
ATOM     28  C   UNL     1       5.065   2.542   6.048  0.00  0.00    +0.052 C 
BRANCH  28  29
ATOM     29  C   UNL     1       5.297   4.002   6.341  0.00  0.00    -0.040 C 
ATOM     30  C   UNL     1       6.446   4.572   6.770  0.00  0.00    -0.001 A 
ATOM     31  C   UNL     1       7.772   4.025   7.082  0.00  0.00    +0.010 A 
ATOM     32  C   UNL     1       8.746   4.865   7.501  0.00  0.00    +0.001 A 
ATOM     33  C   UNL     1       8.521   6.241   7.645  0.00  0.00    +0.002 A 
ATOM     34  C   UNL     1       7.330   6.817   7.378  0.00  0.00    +0.026 A 
ATOM     35  C   UNL     1       6.235   6.029   6.930  0.00  0.00    +0.043 A 
ATOM     36  N   UNL     1       5.003   6.346   6.612  0.00  0.00    -0.380 N 
ATOM     37  C   UNL     1       4.295   5.127   6.208  0.00  0.00    +0.144 C 
ATOM     38  H   UNL     1       4.625   7.239   6.635  0.00  0.00    +0.160 HD
ENDBRANCH  28  29
ENDBRANCH  27  28
ENDBRANCH  25  27
ENDBRANCH   4  23
TORSDOF 7
