REMARK  Name = ZINC09881495
REMARK  6 active torsions:
REMARK  status: ('A' for Active; 'I' for Inactive)
REMARK    1  A    between atoms: C_6  and  N_7
REMARK    2  A    between atoms: C_8  and  C_25
REMARK    3  A    between atoms: C_11  and  S_12
REMARK    4  A    between atoms: S_12  and  C_13
REMARK    5  A    between atoms: C_13  and  C_14
REMARK    6  A    between atoms: C_25  and  N_52
REMARK                            x       y       z     vdW  Elec       q    Type
REMARK                         _______ _______ _______ _____ _____    ______ ____
ROOT
ATOM      1  N   UNL     1      -3.201   5.691   0.048  0.00  0.00    -0.276 N 
ATOM      2  C   UNL     1      -4.569   5.627   0.053  0.00  0.00    +0.122 A 
ATOM      3  N   UNL     1      -4.897   4.366   0.048  0.00  0.00    -0.135 NA
ATOM      4  N   UNL     1      -3.841   3.634   0.034  0.00  0.00    -0.122 NA
ATOM      5  C   UNL     1      -2.770   4.393   0.039  0.00  0.00    +0.196 A 
ENDROOT
BRANCH   1  11
ATOM      6  C   UNL     1      -2.432   7.706   1.141  0.00  0.00    +0.029 A 
ATOM      7  C   UNL     1      -1.646   8.842   1.144  0.00  0.00    +0.040 A 
ATOM      8  C   UNL     1      -0.841   9.131   0.054  0.00  0.00    +0.124 A 
ATOM      9  C   UNL     1      -0.819   8.279  -1.037  0.00  0.00    +0.040 A 
ATOM     10  C   UNL     1      -1.600   7.140  -1.041  0.00  0.00    +0.029 A 
ATOM     11  C   UNL     1      -2.407   6.848   0.050  0.00  0.00    +0.050 A 
ATOM     12  F   UNL     1      -0.077  10.245   0.057  0.00  0.00    -0.205 F 
ENDBRANCH   1  11
BRANCH   5  13
ATOM     13  S   UNL     1      -1.095   3.845   0.028  0.00  0.00    -0.078 S 
BRANCH  13  14
ATOM     14  C   UNL     1      -1.352   2.053   0.019  0.00  0.00    +0.151 C 
BRANCH  14  15
ATOM     15  C   UNL     1      -0.016   1.355   0.009  0.00  0.00    +0.121 A 
ATOM     16  N   UNL     1       0.002  -0.004   0.002  0.00  0.00    -0.309 N 
ATOM     17  H   UNL     1      -0.828  -0.505   0.008  0.00  0.00    +0.170 HD
ATOM     18  C   UNL     1       1.192  -0.652  -0.013  0.00  0.00    +0.266 A 
ATOM     19  O   UNL     1       1.242  -1.871  -0.019  0.00  0.00    -0.267 OA
ATOM     20  C   UNL     1       2.358   0.114  -0.020  0.00  0.00    +0.102 A 
ATOM     21  C   UNL     1       2.311   1.519  -0.012  0.00  0.00    +0.085 A 
ATOM     22  N   UNL     1       1.057   2.079   0.003  0.00  0.00    -0.232 NA
ATOM     23  C   UNL     1       3.555   2.164  -0.020  0.00  0.00    +0.036 A 
ATOM     24  C   UNL     1       4.696   1.441  -0.035  0.00  0.00    +0.048 A 
ATOM     25  S   UNL     1       4.095  -0.240  -0.038  0.00  0.00    -0.090 S 
ENDBRANCH  14  15
ENDBRANCH  13  14
ENDBRANCH   5  13
BRANCH   2  26
ATOM     26  C   UNL     1      -5.518   6.797   0.063  0.00  0.00    -0.001 C 
BRANCH  26  32
ATOM     27  C   UNL     1      -4.641   7.700  -2.005  0.00  0.00    -0.078 C 
ATOM     28  C   UNL     1      -4.970   7.955  -3.477  0.00  0.00    -0.019 C 
ATOM     29  C   UNL     1      -6.115   8.968  -3.572  0.00  0.00    -0.004 C 
ATOM     30  C   UNL     1      -7.327   8.428  -2.809  0.00  0.00    -0.019 C 
ATOM     31  C   UNL     1      -6.931   8.159  -1.355  0.00  0.00    -0.078 C 
ATOM     32  N   UNL     1      -5.842   7.159  -1.332  0.00  0.00    +0.384 N 
ATOM     33  H   UNL     1      -6.152   6.317  -1.832  0.00  0.00    -0.081 HD
ENDBRANCH  26  32
ENDBRANCH   2  26
TORSDOF 6
