REMARK  Name = ZINC08440864
REMARK  8 active torsions:
REMARK  status: ('A' for Active; 'I' for Inactive)
REMARK    1  A    between atoms: C_1  and  C_2
REMARK    2  A    between atoms: C_2  and  O_3
REMARK    3  A    between atoms: O_3  and  C_4
REMARK    4  A    between atoms: C_4  and  C_6
REMARK    5  A    between atoms: C_12  and  C_13
REMARK    6  A    between atoms: C_21  and  N_34
REMARK    7  A    between atoms: C_22  and  C_32
REMARK    8  A    between atoms: C_23  and  C_25
REMARK                            x       y       z     vdW  Elec       q    Type
REMARK                         _______ _______ _______ _____ _____    ______ ____
ROOT
ATOM      1  C   UNL     1      -1.338   5.037   1.609  0.00  0.00    +0.080 C 
ATOM      2  C   UNL     1      -2.423   5.872   1.593  0.00  0.00    +0.100 A 
ATOM      3  N   UNL     1      -3.296   5.989   0.530  0.00  0.00    -0.257 N 
ATOM      4  C   UNL     1      -4.323   6.854   0.657  0.00  0.00    +0.271 A 
ATOM      5  O   UNL     1      -5.126   7.002  -0.245  0.00  0.00    -0.266 OA
ATOM      6  C   UNL     1      -4.447   7.612   1.907  0.00  0.00    +0.080 A 
ATOM      7  C   UNL     1      -5.380   8.530   2.269  0.00  0.00    +0.030 C 
ATOM      8  S   UNL     1      -3.041   7.003   2.822  0.00  0.00    -0.065 S 
ATOM      9  C   UNL     1      -3.081   5.215  -0.616  0.00  0.00    +0.118 C 
ATOM     10  C   UNL     1      -2.057   4.346  -0.756  0.00  0.00    +0.079 C 
ATOM     11  C   UNL     1      -1.073   4.183   0.384  0.00  0.00    +0.102 C 
ENDROOT
BRANCH   7  12
ATOM     12  C   UNL     1      -6.360   9.008   1.286  0.00  0.00    -0.005 A 
ATOM     13  C   UNL     1      -5.959   9.303  -0.023  0.00  0.00    +0.009 A 
ATOM     14  C   UNL     1      -6.885   9.751  -0.940  0.00  0.00    +0.001 A 
ATOM     15  C   UNL     1      -8.210   9.910  -0.571  0.00  0.00    +0.001 A 
ATOM     16  C   UNL     1      -8.617   9.622   0.720  0.00  0.00    +0.020 A 
ATOM     17  C   UNL     1      -7.703   9.167   1.650  0.00  0.00    +0.048 A 
ATOM     18 CL   UNL     1      -8.216   8.799   3.267  0.00  0.00    -0.083 Cl
ENDBRANCH   7  12
BRANCH  11  19
ATOM     19  C   UNL     1      -1.076   2.737   0.807  0.00  0.00    -0.033 A 
ATOM     20  C   UNL     1      -2.243   2.153   1.264  0.00  0.00    +0.004 A 
ATOM     21  C   UNL     1      -2.248   0.825   1.647  0.00  0.00    +0.002 A 
ATOM     22  C   UNL     1      -1.084   0.083   1.584  0.00  0.00    +0.020 A 
ATOM     23  C   UNL     1       0.084   0.666   1.128  0.00  0.00    +0.041 A 
ATOM     24  C   UNL     1       0.087   1.994   0.739  0.00  0.00    +0.024 A 
ATOM     25 CL   UNL     1       1.545  -0.267   1.042  0.00  0.00    -0.084 Cl
ENDBRANCH  11  19
BRANCH   9  26
ATOM     26  N   UNL     1      -3.963   5.349  -1.661  0.00  0.00    -0.343 N 
ATOM     27  H   UNL     1      -4.883   5.606  -1.489  0.00  0.00    +0.144 HD
ATOM     28  H   UNL     1      -3.667   5.186  -2.570  0.00  0.00    +0.144 HD
ENDBRANCH   9  26
BRANCH   1  29
ATOM     29  C   UNL     1      -0.495   4.973   2.727  0.00  0.00    +0.339 C 
ATOM     30  O   UNL     1      -0.724   5.666   3.702  0.00  0.00    -0.245 OA
BRANCH  29  31
ATOM     31  O   UNL     1       0.570   4.142   2.723  0.00  0.00    -0.462 OA
BRANCH  31  33
ATOM     32  C   UNL     1       2.534   3.134   3.707  0.00  0.00    +0.048 C 
ATOM     33  C   UNL     1       1.386   4.128   3.896  0.00  0.00    +0.229 C 
ENDBRANCH  31  33
ENDBRANCH  29  31
ENDBRANCH   1  29
BRANCH  10  34
ATOM     34  C   UNL     1      -1.905   3.590  -1.963  0.00  0.00    +0.099 C 
ATOM     35  N   UNL     1      -1.783   2.990  -2.920  0.00  0.00    -0.191 NA
ENDBRANCH  10  34
TORSDOF 7
