REMARK  Name = ZINC23410154
REMARK  8 active torsions:
REMARK  status: ('A' for Active; 'I' for Inactive)
REMARK    1  A    between atoms: C_4  and  C_7
REMARK    2  A    between atoms: C_7  and  O_8
REMARK    3  A    between atoms: O_8  and  C_9
REMARK    4  A    between atoms: C_12  and  C_15
REMARK    5  A    between atoms: C_24  and  C_32
REMARK    6  A    between atoms: C_25  and  N_31
REMARK    7  A    between atoms: C_26  and  C_27
REMARK    8  A    between atoms: C_26  and  C_29
REMARK                            x       y       z     vdW  Elec       q    Type
REMARK                         _______ _______ _______ _____ _____    ______ ____
ROOT
ATOM      1  C   UNL     1       2.222   3.700  -0.996  0.00  0.00    +0.066 C 
ATOM      2  C   UNL     1       1.348   3.063   0.086  0.00  0.00    +0.030 C 
ATOM      3  C   UNL     1      -0.064   3.598   0.066  0.00  0.00    +0.009 C 
ATOM      4  C   UNL     1      -1.029   2.641  -0.630  0.00  0.00    +0.005 C 
ATOM      5  C   UNL     1      -0.985   1.293   0.098  0.00  0.00    +0.027 C 
ATOM      6  C   UNL     1       0.419   0.757  -0.009  0.00  0.00    -0.022 C 
ATOM      7  C   UNL     1       1.455   1.572  -0.040  0.00  0.00    -0.029 C 
ATOM      8  C   UNL     1       2.821   1.010  -0.211  0.00  0.00    +0.074 C 
ATOM      9  C   UNL     1       3.840   1.839  -0.550  0.00  0.00    +0.054 C 
ATOM     10  C   UNL     1       3.680   3.317  -0.742  0.00  0.00    +0.188 C 
ENDROOT
BRANCH   1  14
ATOM     11  C   UNL     1       1.014   2.272  -4.838  0.00  0.00    +0.121 A 
ATOM     12  C   UNL     1       0.498   3.462  -4.345  0.00  0.00    +0.046 A 
ATOM     13  C   UNL     1       0.890   3.921  -3.103  0.00  0.00    +0.007 A 
ATOM     14  C   UNL     1       1.796   3.196  -2.351  0.00  0.00    -0.041 A 
ATOM     15  C   UNL     1       2.315   2.013  -2.842  0.00  0.00    +0.007 A 
ATOM     16  C   UNL     1       1.922   1.546  -4.081  0.00  0.00    +0.046 A 
BRANCH  11  17
ATOM     17  O   UNL     1       0.629   1.818  -6.060  0.00  0.00    -0.487 OA
BRANCH  17  18
ATOM     18  C   UNL     1       1.201   0.585  -6.503  0.00  0.00    +0.264 C 
BRANCH  18  22
ATOM     19  C   UNL     1      -0.329  -0.385 -10.372  0.00  0.00    +0.000 A 
ATOM     20  C   UNL     1       0.820   0.374 -10.253  0.00  0.00    +0.000 A 
ATOM     21  C   UNL     1       1.315   0.688  -9.002  0.00  0.00    +0.007 A 
ATOM     22  C   UNL     1       0.661   0.243  -7.868  0.00  0.00    -0.010 A 
ATOM     23  C   UNL     1      -0.486  -0.519  -7.987  0.00  0.00    +0.007 A 
ATOM     24  C   UNL     1      -0.984  -0.829  -9.238  0.00  0.00    +0.000 A 
ENDBRANCH  18  22
ENDBRANCH  17  18
ENDBRANCH  11  17
ENDBRANCH   1  14
BRANCH   9  25
ATOM     25  N   UNL     1       5.082   1.296  -0.725  0.00  0.00    -0.358 N 
ATOM     26  H   UNL     1       5.930   1.940  -1.000  0.00  0.00    +0.142 HD
ATOM     27  H   UNL     1       5.234   0.214  -0.591  0.00  0.00    +0.142 HD
ENDBRANCH   9  25
BRANCH  10  28
ATOM     28  C   UNL     1       4.156   4.012   0.465  0.00  0.00    +0.091 C 
ATOM     29  N   UNL     1       4.524   4.549   1.396  0.00  0.00    -0.194 NA
ENDBRANCH  10  28
BRANCH  10  30
ATOM     30  C   UNL     1       4.494   3.741  -1.893  0.00  0.00    +0.091 C 
ATOM     31  N   UNL     1       5.121   4.069  -2.781  0.00  0.00    -0.194 NA
ENDBRANCH  10  30
BRANCH   8  32
ATOM     32  C   UNL     1       3.057  -0.389  -0.019  0.00  0.00    +0.101 C 
ATOM     33  N   UNL     1       3.245  -1.499   0.133  0.00  0.00    -0.191 NA
ENDBRANCH   8  32
TORSDOF 8
