REMARK  Name = ZINC11662485
REMARK  7 active torsions:
REMARK  status: ('A' for Active; 'I' for Inactive)
REMARK    1  A    between atoms: C_3  and  C_9
REMARK    2  A    between atoms: N_11  and  C_12
REMARK    3  A    between atoms: N_11  and  C_19
REMARK    4  A    between atoms: C_12  and  C_13
REMARK    5  A    between atoms: C_13  and  N_67
REMARK    6  A    between atoms: C_19  and  C_20
REMARK    7  A    between atoms: C_26  and  N_69
REMARK                            x       y       z     vdW  Elec       q    Type
REMARK                         _______ _______ _______ _____ _____    ______ ____
ROOT
ATOM      1  C   UNL     1       4.524   1.427  -2.870  0.00  0.00    +0.249 C 
ATOM      2  O   UNL     1       3.792   2.285  -3.324  0.00  0.00    -0.270 OA
ATOM      3  N   UNL     1       4.052   0.183  -2.657  0.00  0.00    -0.299 N 
ENDROOT
BRANCH   1   6
ATOM      4  C   UNL     1       8.216   1.055  -2.295  0.00  0.00    +0.004 A 
ATOM      5  C   UNL     1       6.903   0.749  -2.587  0.00  0.00    +0.016 A 
ATOM      6  C   UNL     1       5.929   1.749  -2.551  0.00  0.00    +0.075 A 
ATOM      7  C   UNL     1       6.291   3.055  -2.206  0.00  0.00    +0.170 A 
ATOM      8  C   UNL     1       7.611   3.347  -1.908  0.00  0.00    +0.159 A 
ATOM      9  C   UNL     1       8.570   2.349  -1.953  0.00  0.00    +0.041 A 
ATOM     10  F   UNL     1       7.965   4.607  -1.574  0.00  0.00    -0.202 F 
ATOM     11  F   UNL     1       5.354   4.028  -2.162  0.00  0.00    -0.202 F 
ENDBRANCH   1   6
BRANCH   3  12
ATOM     12  C   UNL     1       4.923  -0.842  -2.077  0.00  0.00    +0.089 C 
BRANCH  12  13
ATOM     13  C   UNL     1       5.271  -1.880  -3.145  0.00  0.00    -0.060 C 
BRANCH  13  19
ATOM     14  C   UNL     1       7.353  -2.469  -2.059  0.00  0.00    -0.079 C 
ATOM     15  C   UNL     1       8.080  -3.585  -1.306  0.00  0.00    -0.019 C 
ATOM     16  C   UNL     1       8.282  -4.779  -2.244  0.00  0.00    -0.004 C 
ATOM     17  C   UNL     1       6.921  -5.244  -2.767  0.00  0.00    -0.019 C 
ATOM     18  C   UNL     1       6.228  -4.079  -3.477  0.00  0.00    -0.079 C 
ATOM     19  N   UNL     1       6.040  -2.973  -2.515  0.00  0.00    +0.381 N 
ATOM     20  H   UNL     1       5.518  -3.323  -1.703  0.00  0.00    -0.082 HD
ENDBRANCH  13  19
ENDBRANCH  12  13
ENDBRANCH   3  12
BRANCH   3  21
ATOM     21  C   UNL     1       2.667  -0.145  -3.005  0.00  0.00    +0.109 C 
BRANCH  21  22
ATOM     22  C   UNL     1       1.783  -0.010  -1.764  0.00  0.00    -0.010 C 
ATOM     23  C   UNL     1       1.740   1.456  -1.323  0.00  0.00    +0.001 C 
ATOM     24  C   UNL     1       0.806   1.591  -0.117  0.00  0.00    -0.018 C 
ATOM     25  C   UNL     1      -0.584   1.074  -0.494  0.00  0.00    -0.078 C 
ATOM     26  C   UNL     1       0.365  -0.480  -2.093  0.00  0.00    -0.073 C 
ATOM     27  N   UNL     1      -0.477  -0.348  -0.886  0.00  0.00    +0.382 N 
ATOM     28  H   UNL     1      -0.043  -0.873  -0.117  0.00  0.00    -0.081 HD
BRANCH  27  29
ATOM     29  C   UNL     1      -1.822  -0.902  -1.145  0.00  0.00    -0.069 C 
ATOM     30  C   UNL     1      -2.662  -0.837   0.148  0.00  0.00    -0.015 C 
ATOM     31  C   UNL     1      -3.481  -2.151   0.136  0.00  0.00    -0.002 C 
ATOM     32  C   UNL     1      -2.471  -3.178  -0.435  0.00  0.00    -0.002 C 
ATOM     33  C   UNL     1      -1.701  -2.391  -1.515  0.00  0.00    -0.015 C 
ENDBRANCH  27  29
ENDBRANCH  21  22
ENDBRANCH   3  21
TORSDOF 7
