REMARK  Name = ZINC03200235
REMARK  6 active torsions:
REMARK  status: ('A' for Active; 'I' for Inactive)
REMARK    1  A    between atoms: C_4  and  S_7
REMARK    2  A    between atoms: S_7  and  N_10
REMARK    3  A    between atoms: N_10  and  N_11
REMARK    4  A    between atoms: N_11  and  C_12
REMARK    5  A    between atoms: N_22  and  C_25
REMARK    6  A    between atoms: C_30  and  C_31
REMARK                            x       y       z     vdW  Elec       q    Type
REMARK                         _______ _______ _______ _____ _____    ______ ____
ROOT
ATOM      1  C   UNL     1       2.664   6.134  -3.094  0.00  0.00    +0.099 C 
ATOM      2  C   UNL     1       1.844   6.777  -3.994  0.00  0.00    +0.060 C 
ATOM      3  C   UNL     1       2.347   7.901  -4.812  0.00  0.00    +0.000 A 
ATOM      4  C   UNL     1       3.660   8.345  -4.717  0.00  0.00    +0.009 A 
ATOM      5  C   UNL     1       4.083   9.395  -5.506  0.00  0.00    +0.001 A 
ATOM      6  C   UNL     1       3.211  10.004  -6.397  0.00  0.00    +0.001 A 
ATOM      7  C   UNL     1       1.906   9.573  -6.510  0.00  0.00    +0.014 A 
ATOM      8  C   UNL     1       1.458   8.514  -5.720  0.00  0.00    +0.046 A 
ATOM      9  C   UNL     1       0.077   8.024  -5.810  0.00  0.00    +0.258 C 
ATOM     10  O   UNL     1      -0.696   8.551  -6.588  0.00  0.00    -0.269 OA
ATOM     11  N   UNL     1      -0.348   7.003  -5.047  0.00  0.00    -0.202 N 
ATOM     12  C   UNL     1       0.445   6.371  -4.166  0.00  0.00    +0.259 C 
ATOM     13  O   UNL     1      -0.002   5.452  -3.505  0.00  0.00    -0.269 OA
ENDROOT
BRANCH  11  14
ATOM     14  C   UNL     1      -1.677   6.579  -5.176  0.00  0.00    +0.056 A 
ATOM     15  C   UNL     1      -2.668   7.146  -4.384  0.00  0.00    +0.024 A 
ATOM     16  C   UNL     1      -3.977   6.726  -4.514  0.00  0.00    +0.002 A 
ATOM     17  C   UNL     1      -4.302   5.743  -5.430  0.00  0.00    +0.001 A 
ATOM     18  C   UNL     1      -3.318   5.177  -6.220  0.00  0.00    +0.014 A 
ATOM     19  C   UNL     1      -2.008   5.596  -6.098  0.00  0.00    +0.077 A 
BRANCH  19  20
ATOM     20  C   UNL     1      -0.937   4.983  -6.963  0.00  0.00    +0.419 C 
ATOM     21  F   UNL     1      -1.510   4.024  -7.806  0.00  0.00    -0.166 F 
ATOM     22  F   UNL     1      -0.333   5.981  -7.735  0.00  0.00    -0.166 F 
ATOM     23  F   UNL     1       0.027   4.374  -6.152  0.00  0.00    -0.166 F 
ENDBRANCH  19  20
ENDBRANCH  11  14
BRANCH   1  24
ATOM     24  N   UNL     1       2.240   4.997  -2.481  0.00  0.00    -0.268 N 
ATOM     25  H   UNL     1       1.396   4.594  -2.738  0.00  0.00    +0.167 HD
BRANCH  24  26
ATOM     26  N   UNL     1       3.022   4.409  -1.478  0.00  0.00    -0.110 NA
ATOM     27  H   UNL     1       3.946   4.176  -1.658  0.00  0.00    +0.171 HD
BRANCH  26  28
ATOM     28  S   UNL     1       2.367   4.110   0.013  0.00  0.00    +0.073 S 
ATOM     29  O   UNL     1       1.823   5.340   0.472  0.00  0.00    -0.152 OA
ATOM     30  O   UNL     1       3.346   3.389   0.749  0.00  0.00    -0.152 OA
BRANCH  28  34
ATOM     31  C   UNL     1      -1.125   1.296  -0.602  0.00  0.00    +0.000 A 
ATOM     32  C   UNL     1       0.140   0.788  -0.370  0.00  0.00    +0.002 A 
ATOM     33  C   UNL     1       1.206   1.647  -0.184  0.00  0.00    +0.028 A 
ATOM     34  C   UNL     1       1.008   3.015  -0.224  0.00  0.00    +0.107 A 
ATOM     35  C   UNL     1      -0.258   3.523  -0.451  0.00  0.00    +0.028 A 
ATOM     36  C   UNL     1      -1.324   2.664  -0.638  0.00  0.00    +0.002 A 
ENDBRANCH  28  34
ENDBRANCH  26  28
ENDBRANCH  24  26
ENDBRANCH   1  24
TORSDOF 6
