REMARK  Name = ZINC64760451
REMARK  4 active torsions:
REMARK  status: ('A' for Active; 'I' for Inactive)
REMARK    1  A    between atoms: C_1  and  N_2
REMARK    2  A    between atoms: N_2  and  C_3
REMARK    3  A    between atoms: C_10  and  C_12
REMARK    4  A    between atoms: C_23  and  C_25
REMARK                            x       y       z     vdW  Elec       q    Type
REMARK                         _______ _______ _______ _____ _____    ______ ____
ROOT
ATOM      1  C   UNL     1       1.674  -3.483  -7.873  0.00  0.00    +0.254 C 
ATOM      2  O   UNL     1       1.621  -4.690  -8.024  0.00  0.00    -0.269 OA
ATOM      3  N   UNL     1       0.847  -2.679  -8.569  0.00  0.00    -0.281 N 
ATOM      4  C   UNL     1       1.003  -1.221  -8.547  0.00  0.00    +0.144 C 
ATOM      5  C   UNL     1       0.871  -0.674  -9.946  0.00  0.00    -0.027 A 
ATOM      6  C   UNL     1       1.228   0.650 -10.161  0.00  0.00    +0.005 A 
ATOM      7  C   UNL     1       1.119   1.210 -11.417  0.00  0.00    +0.000 A 
ATOM      8  C   UNL     1       0.649   0.446 -12.470  0.00  0.00    +0.000 A 
ATOM      9  C   UNL     1       0.298  -0.870 -12.258  0.00  0.00    +0.004 A 
ATOM     10  C   UNL     1       0.412  -1.439 -10.995  0.00  0.00    -0.040 A 
ATOM     11  C   UNL     1       0.035  -2.889 -10.846  0.00  0.00    +0.067 C 
ATOM     12  C   UNL     1      -0.245  -3.230  -9.389  0.00  0.00    +0.167 C 
ENDROOT
BRANCH   1  22
ATOM     13  C   UNL     1       6.737   0.799  -2.663  0.00  0.00    +0.131 C 
ATOM     14  N   UNL     1       6.820  -0.642  -2.912  0.00  0.00    -0.316 N 
ATOM     15  C   UNL     1       7.840  -1.445  -2.232  0.00  0.00    +0.131 C 
ATOM     16  C   UNL     1       5.938  -1.243  -3.787  0.00  0.00    +0.162 A 
ATOM     17  N   UNL     1       4.966  -0.697  -4.491  0.00  0.00    -0.218 NA
ATOM     18  C   UNL     1       4.192  -1.411  -5.298  0.00  0.00    +0.118 A 
ATOM     19  C   UNL     1       4.438  -2.794  -5.387  0.00  0.00    +0.049 A 
ATOM     20  S   UNL     1       5.823  -2.960  -4.263  0.00  0.00    -0.052 S 
ATOM     21  C   UNL     1       3.637  -3.539  -6.224  0.00  0.00    +0.038 A 
ATOM     22  C   UNL     1       2.636  -2.906  -6.935  0.00  0.00    +0.077 A 
ATOM     23  S   UNL     1       2.813  -1.209  -6.421  0.00  0.00    -0.064 S 
ENDBRANCH   1  22
BRANCH  12  24
ATOM     24  C   UNL     1      -0.304  -4.726  -9.221  0.00  0.00    +0.231 C 
ATOM     25  O   UNL     1      -0.347  -5.211  -8.110  0.00  0.00    -0.274 OA
ATOM     26  N   UNL     1      -0.309  -5.526 -10.305  0.00  0.00    -0.328 N 
ATOM     27  H   UNL     1      -0.275  -5.139 -11.194  0.00  0.00    +0.145 HD
ATOM     28  H   UNL     1      -0.347  -6.490 -10.197  0.00  0.00    +0.145 HD
ENDBRANCH  12  24
TORSDOF 2
