REMARK  Name = ZINC12514303
REMARK  8 active torsions:
REMARK  status: ('A' for Active; 'I' for Inactive)
REMARK    1  A    between atoms: C_1  and  C_2
REMARK    2  A    between atoms: C_5  and  C_31
REMARK    3  A    between atoms: C_6  and  C_8
REMARK    4  A    between atoms: C_10  and  C_27
REMARK    5  A    between atoms: C_11  and  C_26
REMARK    6  A    between atoms: N_12  and  C_16
REMARK    7  A    between atoms: C_27  and  O_29
REMARK    8  A    between atoms: O_29  and  C_30
REMARK                            x       y       z     vdW  Elec       q    Type
REMARK                         _______ _______ _______ _____ _____    ______ ____
ROOT
ATOM      1  C   UNL     1       5.955  -1.680   0.479  0.00  0.00    +0.141 C 
ATOM      2  C   UNL     1       4.551  -2.249   0.503  0.00  0.00    +0.078 C 
ATOM      3  C   UNL     1       3.519  -1.377   0.478  0.00  0.00    +0.027 C 
ATOM      4  N   UNL     1       3.737  -0.029   0.432  0.00  0.00    -0.255 N 
ATOM      5  C   UNL     1       4.955   0.526   0.404  0.00  0.00    +0.142 C 
ATOM      6  S   UNL     1       5.086   2.232   0.339  0.00  0.00    -0.018 S 
ATOM      7  N   UNL     1       6.081  -0.214   0.430  0.00  0.00    -0.315 N 
ATOM      8  C   UNL     1       2.106  -1.899   0.500  0.00  0.00    +0.062 C 
ATOM      9  H   UNL     1       6.954   0.210   0.413  0.00  0.00    +0.149 HD
ENDROOT
BRANCH   4  10
ATOM     10  C   UNL     1       2.622   0.821   0.408  0.00  0.00    +0.044 A 
ATOM     11  C   UNL     1       2.055   1.188  -0.805  0.00  0.00    +0.027 A 
ATOM     12  C   UNL     1       0.957   2.026  -0.829  0.00  0.00    +0.051 A 
ATOM     13  C   UNL     1       0.417   2.503   0.356  0.00  0.00    +0.162 A 
ATOM     14  C   UNL     1       0.981   2.134   1.572  0.00  0.00    +0.164 A 
ATOM     15  C   UNL     1       2.084   1.294   1.596  0.00  0.00    +0.073 A 
ATOM     16  O   UNL     1       0.460   2.584   2.747  0.00  0.00    -0.485 OA
ATOM     17  C   UNL     1      -0.410   3.718   2.672  0.00  0.00    +0.270 C 
ATOM     18  C   UNL     1      -1.404   3.487   1.526  0.00  0.00    +0.270 C 
ATOM     19  O   UNL     1      -0.660   3.335   0.312  0.00  0.00    -0.485 OA
ENDBRANCH   4  10
BRANCH   1  25
ATOM     20  C   UNL     1       5.828  -3.631   5.085  0.00  0.00    +0.044 C 
ATOM     21  C   UNL     1       6.614  -3.101   3.914  0.00  0.00    -0.050 A 
ATOM     22  C   UNL     1       7.995  -3.060   3.969  0.00  0.00    +0.003 A 
ATOM     23  C   UNL     1       8.715  -2.574   2.895  0.00  0.00    +0.004 A 
ATOM     24  C   UNL     1       8.056  -2.131   1.764  0.00  0.00    -0.045 A 
ATOM     25  C   UNL     1       6.675  -2.167   1.710  0.00  0.00    -0.019 A 
ATOM     26  C   UNL     1       5.954  -2.654   2.785  0.00  0.00    +0.009 A 
ATOM     27  C   UNL     1       8.841  -1.606   0.590  0.00  0.00    +0.044 C 
ENDBRANCH   1  25
BRANCH   2  28
ATOM     28  C   UNL     1       4.328  -3.644   0.549  0.00  0.00    +0.339 C 
ATOM     29  O   UNL     1       3.196  -4.076   0.668  0.00  0.00    -0.245 OA
BRANCH  28  30
ATOM     30  O   UNL     1       5.370  -4.497   0.463  0.00  0.00    -0.465 OA
ATOM     31  C   UNL     1       5.071  -5.894   0.517  0.00  0.00    +0.280 C 
ENDBRANCH  28  30
ENDBRANCH   2  28
TORSDOF 4
