REMARK  Name = ZINC04833297
REMARK  7 active torsions:
REMARK  status: ('A' for Active; 'I' for Inactive)
REMARK    1  A    between atoms: C_1  and  S_2
REMARK    2  A    between atoms: S_2  and  C_3
REMARK    3  A    between atoms: C_6  and  C_9
REMARK    4  A    between atoms: C_11  and  C_29
REMARK    5  A    between atoms: C_13  and  C_22
REMARK    6  A    between atoms: C_13  and  O_28
REMARK    7  A    between atoms: C_17  and  C_19
REMARK                            x       y       z     vdW  Elec       q    Type
REMARK                         _______ _______ _______ _____ _____    ______ ____
ROOT
ATOM      1  C   UNL     1       0.838   5.930  -1.475  0.00  0.00    +0.061 C 
ATOM      2  C   UNL     1       1.171   4.436  -1.572  0.00  0.00    +0.155 C 
ATOM      3  C   UNL     1       1.189   3.846  -0.161  0.00  0.00    +0.175 C 
ATOM      4  N   UNL     1      -0.030   4.200   0.555  0.00  0.00    -0.282 N 
ATOM      5  C   UNL     1      -0.835   5.205   0.210  0.00  0.00    +0.228 C 
ATOM      6  O   UNL     1      -1.801   5.432   0.907  0.00  0.00    -0.275 OA
ATOM      7  C   UNL     1      -0.608   6.073  -0.995  0.00  0.00    +0.169 C 
ATOM      8  H   UNL     1      -0.271   3.670   1.331  0.00  0.00    +0.152 HD
ENDROOT
BRANCH   1  12
ATOM      9  C   UNL     1       3.472   7.813   1.315  0.00  0.00    +0.008 A 
ATOM     10  C   UNL     1       3.935   7.450   0.056  0.00  0.00    +0.015 A 
ATOM     11  C   UNL     1       3.081   6.842  -0.843  0.00  0.00    +0.005 A 
ATOM     12  C   UNL     1       1.767   6.594  -0.491  0.00  0.00    -0.042 A 
ATOM     13  C   UNL     1       1.301   6.959   0.759  0.00  0.00    +0.005 A 
ATOM     14  C   UNL     1       2.151   7.562   1.665  0.00  0.00    +0.015 A 
BRANCH   9  16
ATOM     15  C   UNL     1       3.523   8.865   3.929  0.00  0.00    +0.090 C 
ATOM     16  S   UNL     1       4.558   8.590   2.465  0.00  0.00    -0.129 S 
ENDBRANCH   9  16
ENDBRANCH   1  12
BRANCH   3  17
ATOM     17  C   UNL     1       1.296   2.345  -0.251  0.00  0.00    +0.003 A 
ATOM     18  C   UNL     1       0.151   1.571  -0.291  0.00  0.00    +0.008 A 
ATOM     19  C   UNL     1       0.250   0.195  -0.373  0.00  0.00    +0.000 A 
ATOM     20  C   UNL     1       1.493  -0.407  -0.417  0.00  0.00    +0.000 A 
ATOM     21  C   UNL     1       2.638   0.366  -0.377  0.00  0.00    +0.000 A 
ATOM     22  C   UNL     1       2.540   1.743  -0.294  0.00  0.00    +0.008 A 
ENDBRANCH   3  17
BRANCH   7  23
ATOM     23  C   UNL     1      -1.544   5.651  -2.098  0.00  0.00    +0.223 C 
ATOM     24  O   UNL     1      -2.412   4.833  -1.878  0.00  0.00    -0.275 OA
ATOM     25  N   UNL     1      -1.416   6.183  -3.330  0.00  0.00    -0.329 N 
ATOM     26  H   UNL     1      -0.722   6.837  -3.506  0.00  0.00    +0.145 HD
ATOM     27  H   UNL     1      -2.019   5.912  -4.040  0.00  0.00    +0.145 HD
ENDBRANCH   7  23
BRANCH   3  28
ATOM     28  O   UNL     1       2.319   4.359   0.547  0.00  0.00    -0.366 OA
ATOM     29  H   UNL     1       2.403   4.022   1.450  0.00  0.00    +0.212 HD
ENDBRANCH   3  28
BRANCH   2  30
ATOM     30  C   UNL     1       0.148   3.754  -2.380  0.00  0.00    +0.071 C 
ATOM     31  N   UNL     1      -0.642   3.227  -3.004  0.00  0.00    -0.196 NA
ENDBRANCH   2  30
TORSDOF 6
