REMARK  Name = ZINC08264086
REMARK  9 active torsions:
REMARK  status: ('A' for Active; 'I' for Inactive)
REMARK    1  A    between atoms: C_1  and  C_2
REMARK    2  A    between atoms: C_5  and  C_8
REMARK    3  A    between atoms: C_8  and  C_10
REMARK    4  A    between atoms: C_8  and  N_49
REMARK    5  A    between atoms: C_16  and  C_17
REMARK    6  A    between atoms: C_16  and  N_49
REMARK    7  A    between atoms: N_22  and  C_23
REMARK    8  A    between atoms: C_23  and  C_24
REMARK    9  A    between atoms: C_23  and  C_25
REMARK                            x       y       z     vdW  Elec       q    Type
REMARK                         _______ _______ _______ _____ _____    ______ ____
ROOT
ATOM      1  N   UNL     1      -0.005  -0.010   0.007  0.00  0.00    +0.392 N 
ATOM      2  H   UNL     1      -0.885  -0.356  -0.393  0.00  0.00    -0.084 HD
ATOM      3  H   UNL     1       0.089  -0.350   0.971  0.00  0.00    -0.084 HD
ENDROOT
BRANCH   1   4
ATOM      4  C   UNL     1      -0.018   1.465   0.010  0.00  0.00    -0.009 C 
BRANCH   4   9
ATOM      5  C   UNL     1      -2.724   3.329   4.763  0.00  0.00    +0.044 C 
ATOM      6  C   UNL     1      -2.018   2.843   3.524  0.00  0.00    -0.050 A 
ATOM      7  C   UNL     1      -0.885   3.495   3.073  0.00  0.00    +0.003 A 
ATOM      8  C   UNL     1      -0.238   3.049   1.936  0.00  0.00    +0.002 A 
ATOM      9  C   UNL     1      -0.723   1.951   1.250  0.00  0.00    -0.057 A 
ATOM     10  C   UNL     1      -1.859   1.302   1.698  0.00  0.00    +0.002 A 
ATOM     11  C   UNL     1      -2.503   1.745   2.838  0.00  0.00    +0.003 A 
ENDBRANCH   4   9
BRANCH   4  12
ATOM     12  C   UNL     1      -0.747   1.964  -1.211  0.00  0.00    -0.057 A 
ATOM     13  C   UNL     1      -1.884   1.313  -1.651  0.00  0.00    +0.002 A 
ATOM     14  C   UNL     1      -2.555   1.774  -2.768  0.00  0.00    +0.000 A 
ATOM     15  C   UNL     1      -2.084   2.880  -3.451  0.00  0.00    +0.000 A 
ATOM     16  C   UNL     1      -0.943   3.527  -3.014  0.00  0.00    +0.000 A 
ATOM     17  C   UNL     1      -0.275   3.069  -1.894  0.00  0.00    +0.002 A 
ENDBRANCH   4  12
ENDBRANCH   1   4
BRANCH   1  18
ATOM     18  C   UNL     1       1.125  -0.511  -0.798  0.00  0.00    +0.017 C 
BRANCH  18  19
ATOM     19  C   UNL     1       1.113  -2.018  -0.783  0.00  0.00    +0.203 C 
ATOM     20  O   UNL     1       0.254  -2.611  -0.167  0.00  0.00    -0.277 OA
ATOM     21  N   UNL     1       2.057  -2.706  -1.455  0.00  0.00    -0.242 N 
ATOM     22  C   UNL     1       2.046  -4.054  -1.441  0.00  0.00    +0.306 C 
ATOM     23  O   UNL     1       1.185  -4.648  -0.823  0.00  0.00    -0.252 OA
ATOM     24  N   UNL     1       2.990  -4.742  -2.113  0.00  0.00    -0.297 N 
ATOM     25  H   UNL     1       2.744  -2.232  -1.948  0.00  0.00    +0.159 HD
ATOM     26  H   UNL     1       3.678  -4.268  -2.606  0.00  0.00    +0.151 HD
BRANCH  24  27
ATOM     27  C   UNL     1       2.978  -6.207  -2.098  0.00  0.00    +0.068 C 
ATOM     28  C   UNL     1       3.683  -6.735  -3.349  0.00  0.00    +0.027 C 
ATOM     29  C   UNL     1       3.707  -6.710  -0.851  0.00  0.00    +0.027 C 
ENDBRANCH  24  27
ENDBRANCH  18  19
ENDBRANCH   1  18
TORSDOF 6
