REMARK  Name = ZINC12212626
REMARK  9 active torsions:
REMARK  status: ('A' for Active; 'I' for Inactive)
REMARK    1  A    between atoms: C_1  and  O_2
REMARK    2  A    between atoms: O_2  and  C_3
REMARK    3  A    between atoms: C_8  and  C_18
REMARK    4  A    between atoms: C_18  and  N_19
REMARK    5  A    between atoms: N_19  and  C_20
REMARK    6  A    between atoms: C_20  and  C_21
REMARK    7  A    between atoms: C_21  and  C_22
REMARK    8  A    between atoms: C_29  and  C_31
REMARK    9  A    between atoms: C_31  and  C_32
REMARK                            x       y       z     vdW  Elec       q    Type
REMARK                         _______ _______ _______ _____ _____    ______ ____
ROOT
ATOM      1  C   UNL     1      -7.848   0.750  -3.999  0.00  0.00    +0.122 A 
ATOM      2  C   UNL     1      -7.456   0.748  -2.656  0.00  0.00    +0.046 A 
ATOM      3  C   UNL     1      -6.601   1.692  -2.179  0.00  0.00    +0.013 A 
ATOM      4  C   UNL     1      -6.103   2.683  -3.040  0.00  0.00    -0.001 A 
ATOM      5  C   UNL     1      -5.215   3.674  -2.574  0.00  0.00    +0.018 A 
ATOM      6  C   UNL     1      -4.767   4.609  -3.458  0.00  0.00    +0.008 A 
ATOM      7  C   UNL     1      -5.195   4.570  -4.793  0.00  0.00    +0.104 A 
ATOM      8  C   UNL     1      -6.494   2.695  -4.401  0.00  0.00    +0.051 A 
ATOM      9  C   UNL     1      -7.377   1.708  -4.868  0.00  0.00    +0.071 A 
ATOM     10  N   UNL     1      -4.734   5.531  -5.680  0.00  0.00    -0.312 N 
ATOM     11  C   UNL     1      -5.851   6.288  -6.263  0.00  0.00    +0.134 C 
ATOM     12  C   UNL     1      -5.296   7.375  -7.188  0.00  0.00    +0.178 C 
ATOM     13  O   UNL     1      -4.473   6.767  -8.188  0.00  0.00    -0.377 OA
ATOM     14  C   UNL     1      -3.375   6.022  -7.655  0.00  0.00    +0.178 C 
ATOM     15  C   UNL     1      -3.911   4.922  -6.735  0.00  0.00    +0.134 C 
ATOM     16  N   UNL     1      -6.042   3.638  -5.298  0.00  0.00    -0.343 N 
ATOM     17  H   UNL     1      -6.327   3.637  -6.284  0.00  0.00    +0.167 HD
ENDROOT
BRANCH   1  19
ATOM     18  C   UNL     1      -9.156  -1.171  -3.500  0.00  0.00    +0.277 C 
ATOM     19  O   UNL     1      -8.703  -0.204  -4.450  0.00  0.00    -0.495 OA
ENDBRANCH   1  19
BRANCH   6  20
ATOM     20  C   UNL     1      -3.817   5.686  -3.001  0.00  0.00    +0.146 C 
BRANCH  20  21
ATOM     21  N   UNL     1      -3.418   5.430  -1.615  0.00  0.00    -0.296 N 
ATOM     22  C   UNL     1      -2.381   4.610  -1.354  0.00  0.00    +0.220 C 
ATOM     23  O   UNL     1      -1.778   4.085  -2.266  0.00  0.00    -0.275 OA
BRANCH  21  24
ATOM     24  C   UNL     1      -4.146   6.064  -0.514  0.00  0.00    +0.113 C 
BRANCH  24  25
ATOM     25  C   UNL     1      -3.565   7.455  -0.252  0.00  0.00    +0.054 C 
BRANCH  25  26
ATOM     26  C   UNL     1      -4.232   8.059   0.957  0.00  0.00    -0.046 A 
ATOM     27  C   UNL     1      -5.428   8.738   0.820  0.00  0.00    +0.006 A 
ATOM     28  C   UNL     1      -6.042   9.288   1.929  0.00  0.00    +0.038 A 
ATOM     29  C   UNL     1      -5.454   9.167   3.176  0.00  0.00    +0.123 A 
ATOM     30  C   UNL     1      -4.253   8.490   3.312  0.00  0.00    +0.038 A 
ATOM     31  C   UNL     1      -3.644   7.937   2.202  0.00  0.00    +0.006 A 
ATOM     32  F   UNL     1      -6.051   9.708   4.261  0.00  0.00    -0.205 F 
ENDBRANCH  25  26
ENDBRANCH  24  25
ENDBRANCH  21  24
BRANCH  22  33
ATOM     33  C   UNL     1      -1.970   4.346   0.072  0.00  0.00    +0.131 C 
BRANCH  33  34
ATOM     34  C   UNL     1      -0.793   3.404   0.089  0.00  0.00    -0.032 A 
ATOM     35  C   UNL     1      -0.990   2.037   0.135  0.00  0.00    +0.011 A 
ATOM     36  C   UNL     1       0.089   1.217   0.154  0.00  0.00    +0.045 A 
ATOM     37  S   UNL     1       1.439   2.384   0.095  0.00  0.00    -0.105 S 
ATOM     38  C   UNL     1       0.473   3.885   0.055  0.00  0.00    +0.049 A 
ENDBRANCH  33  34
ENDBRANCH  22  33
ENDBRANCH  20  21
ENDBRANCH   6  20
TORSDOF 8
