REMARK  Name = ZINC13572655
REMARK  9 active torsions:
REMARK  status: ('A' for Active; 'I' for Inactive)
REMARK    1  A    between atoms: C_1  and  C_2
REMARK    2  A    between atoms: C_9  and  O_27
REMARK    3  A    between atoms: C_14  and  O_21
REMARK    4  A    between atoms: C_15  and  O_19
REMARK    5  A    between atoms: C_16  and  O_17
REMARK    6  A    between atoms: O_17  and  C_18
REMARK    7  A    between atoms: O_19  and  C_20
REMARK    8  A    between atoms: O_21  and  C_22
REMARK    9  A    between atoms: C_24  and  C_26
REMARK                            x       y       z     vdW  Elec       q    Type
REMARK                         _______ _______ _______ _____ _____    ______ ____
ROOT
ATOM      1  C   UNL     1      -0.554   1.476  -0.329  0.00  0.00    +0.008 C 
ATOM      2  C   UNL     1      -0.462  -0.050  -0.274  0.00  0.00    -0.007 C 
ATOM      3  C   UNL     1      -1.865  -0.633  -0.108  0.00  0.00    +0.039 C 
ATOM      4  C   UNL     1      -1.944  -1.970  -0.816  0.00  0.00    -0.032 A 
ATOM      5  C   UNL     1      -2.060  -2.034  -2.185  0.00  0.00    +0.054 A 
ATOM      6  C   UNL     1      -2.162  -3.268  -2.815  0.00  0.00    +0.170 A 
ATOM      7  C   UNL     1      -2.146  -4.437  -2.060  0.00  0.00    +0.208 A 
ATOM      8  C   UNL     1      -2.019  -4.374  -0.680  0.00  0.00    +0.171 A 
ATOM      9  C   UNL     1      -1.907  -3.130  -0.046  0.00  0.00    +0.035 A 
ATOM     10  C   UNL     1      -1.710  -3.063   1.415  0.00  0.00    +0.035 A 
ATOM     11  C   UNL     1      -0.576  -2.463   1.960  0.00  0.00    -0.032 A 
ATOM     12  C   UNL     1      -0.419  -2.353   3.321  0.00  0.00    +0.054 A 
ATOM     13  C   UNL     1      -1.384  -2.875   4.174  0.00  0.00    +0.165 A 
ATOM     14  C   UNL     1      -2.506  -3.506   3.649  0.00  0.00    +0.204 A 
ATOM     15  C   UNL     1      -2.675  -3.602   2.275  0.00  0.00    +0.173 A 
ATOM     16  C   UNL     1       0.505  -1.980   1.014  0.00  0.00    +0.039 C 
ATOM     17  C   UNL     1       0.433  -0.458   0.893  0.00  0.00    -0.007 C 
ATOM     18  C   UNL     1      -0.132   0.125   2.189  0.00  0.00    +0.008 C 
ATOM     19  O   UNL     1      -2.269  -5.504  -2.905  0.00  0.00    -0.449 OA
ATOM     20  C   UNL     1      -2.767  -4.958  -4.141  0.00  0.00    +0.467 C 
ATOM     21  O   UNL     1      -2.288  -3.601  -4.133  0.00  0.00    -0.452 OA
ENDROOT
BRANCH  15  22
ATOM     22  O   UNL     1      -3.775  -4.216   1.765  0.00  0.00    -0.491 OA
ATOM     23  C   UNL     1      -4.877  -3.381   1.404  0.00  0.00    +0.277 C 
ENDBRANCH  15  22
BRANCH  14  24
ATOM     24  O   UNL     1      -3.441  -4.032   4.485  0.00  0.00    -0.488 OA
ATOM     25  C   UNL     1      -4.440  -3.140   4.985  0.00  0.00    +0.277 C 
ENDBRANCH  14  24
BRANCH  13  26
ATOM     26  O   UNL     1      -1.231  -2.768   5.521  0.00  0.00    -0.491 OA
ATOM     27  C   UNL     1      -0.054  -2.106   5.990  0.00  0.00    +0.277 C 
ENDBRANCH  13  26
BRANCH   8  28
ATOM     28  O   UNL     1      -2.006  -5.517   0.056  0.00  0.00    -0.503 OA
ATOM     29  H   UNL     1      -1.123  -5.888   0.190  0.00  0.00    +0.292 HD
ENDBRANCH   8  28
TORSDOF 4
