REMARK  Name = ZINC00797887
REMARK  7 active torsions:
REMARK  status: ('A' for Active; 'I' for Inactive)
REMARK    1  A    between atoms: C_1  and  C_2
REMARK    2  A    between atoms: C_3  and  C_32
REMARK    3  A    between atoms: C_4  and  C_17
REMARK    4  A    between atoms: C_20  and  C_22
REMARK    5  A    between atoms: C_25  and  N_29
REMARK    6  A    between atoms: C_32  and  O_34
REMARK    7  A    between atoms: O_34  and  C_35
REMARK                            x       y       z     vdW  Elec       q    Type
REMARK                         _______ _______ _______ _____ _____    ______ ____
ROOT
ATOM      1  C   UNL     1      -4.355  -0.725  -5.161  0.00  0.00    +0.061 C 
ATOM      2  C   UNL     1      -4.195  -1.067  -3.701  0.00  0.00    +0.016 C 
ATOM      3  C   UNL     1      -4.918  -0.386  -2.802  0.00  0.00    +0.068 C 
ATOM      4  C   UNL     1      -4.832  -0.635  -1.320  0.00  0.00    +0.129 C 
ATOM      5  C   UNL     1      -4.080  -1.920  -1.081  0.00  0.00    +0.037 C 
ATOM      6  C   UNL     1      -3.376  -2.558  -2.070  0.00  0.00    +0.047 C 
ATOM      7  N   UNL     1      -3.318  -2.060  -3.353  0.00  0.00    -0.317 N 
ATOM      8  C   UNL     1      -2.761  -3.768  -1.514  0.00  0.00    +0.007 A 
ATOM      9  C   UNL     1      -1.959  -4.745  -2.084  0.00  0.00    +0.010 A 
ATOM     10  C   UNL     1      -1.539  -5.785  -1.251  0.00  0.00    +0.001 A 
ATOM     11  C   UNL     1      -1.899  -5.847   0.075  0.00  0.00    +0.001 A 
ATOM     12  C   UNL     1      -2.707  -4.869   0.665  0.00  0.00    +0.012 A 
ATOM     13  C   UNL     1      -3.130  -3.834  -0.147  0.00  0.00    +0.031 A 
ATOM     14  C   UNL     1      -3.974  -2.650   0.124  0.00  0.00    +0.193 C 
ATOM     15  O   UNL     1      -4.484  -2.359   1.189  0.00  0.00    -0.287 OA
ATOM     16  H   UNL     1      -2.594  -2.437  -4.090  0.00  0.00    +0.152 HD
ENDROOT
BRANCH   4  17
ATOM     17  C   UNL     1      -4.103   0.506  -0.658  0.00  0.00    +0.118 A 
ATOM     18  C   UNL     1      -4.606   1.311   0.297  0.00  0.00    +0.046 A 
ATOM     19  C   UNL     1      -3.595   2.232   0.637  0.00  0.00    +0.050 A 
ATOM     20  C   UNL     1      -2.522   1.940  -0.145  0.00  0.00    +0.136 A 
ATOM     21  O   UNL     1      -2.843   0.889  -0.923  0.00  0.00    -0.459 OA
BRANCH  20  22
ATOM     22  C   UNL     1      -1.225   2.649  -0.138  0.00  0.00    +0.031 A 
ATOM     23  C   UNL     1      -1.187   4.042  -0.229  0.00  0.00    +0.015 A 
ATOM     24  C   UNL     1       0.027   4.697  -0.227  0.00  0.00    +0.033 A 
ATOM     25  C   UNL     1       1.206   3.978  -0.130  0.00  0.00    +0.127 A 
ATOM     26  C   UNL     1       1.175   2.598  -0.034  0.00  0.00    +0.048 A 
ATOM     27  C   UNL     1      -0.033   1.930  -0.034  0.00  0.00    +0.031 A 
ATOM     28 BR   UNL     1      -0.072   0.044   0.097  0.00  0.00    -0.049 Br
BRANCH  25  29
ATOM     29  N   UNL     1       2.504   4.688  -0.129  0.00  0.00    +0.056 N 
ATOM     30  O   UNL     1       3.543   4.058  -0.043  0.00  0.00    -0.126 OA
ATOM     31  O   UNL     1       2.534   5.903  -0.214  0.00  0.00    -0.126 OA
ENDBRANCH  25  29
ENDBRANCH  20  22
ENDBRANCH   4  17
BRANCH   3  32
ATOM     32  C   UNL     1      -5.805   0.614  -3.267  0.00  0.00    +0.337 C 
ATOM     33  O   UNL     1      -5.818   0.915  -4.446  0.00  0.00    -0.245 OA
BRANCH  32  34
ATOM     34  O   UNL     1      -6.637   1.233  -2.403  0.00  0.00    -0.465 OA
ATOM     35  C   UNL     1      -7.505   2.232  -2.941  0.00  0.00    +0.280 C 
ENDBRANCH  32  34
ENDBRANCH   3  32
TORSDOF 5
