REMARK  Name = ZINC27368670
REMARK  11 active torsions:
REMARK  status: ('A' for Active; 'I' for Inactive)
REMARK    1  A    between atoms: C_1  and  C_2
REMARK    2  A    between atoms: C_2  and  C_3
REMARK    3  A    between atoms: C_2  and  C_4
REMARK    4  A    between atoms: C_4  and  C_6
REMARK    5  A    between atoms: C_4  and  N_11
REMARK    6  A    between atoms: N_11  and  C_12
REMARK    7  A    between atoms: C_12  and  C_13
REMARK    8  A    between atoms: C_13  and  O_14
REMARK    9  A    between atoms: O_14  and  C_15
REMARK   10  A    between atoms: C_18  and  S_21
REMARK   11  A    between atoms: S_21  and  N_24
REMARK                            x       y       z     vdW  Elec       q    Type
REMARK                         _______ _______ _______ _____ _____    ______ ____
ROOT
ATOM      1  C   UNL     1      -0.359   1.747   3.940  0.00  0.00    +0.210 C 
ENDROOT
BRANCH   1   2
ATOM      2  C   UNL     1       0.422   1.335   2.691  0.00  0.00    -0.040 C 
BRANCH   2   3
ATOM      3  N   UNL     1       0.158  -0.080   2.393  0.00  0.00    +0.386 N 
ATOM      4  H   UNL     1      -0.929  -0.228   2.321  0.00  0.00    -0.085 HD
ATOM      5  H   UNL     1       0.558  -0.693   3.214  0.00  0.00    -0.085 HD
BRANCH   3   6
ATOM      6  C   UNL     1       0.793  -0.479   1.130  0.00  0.00    -0.031 C 
BRANCH   6   7
ATOM      7  C   UNL     1       2.217  -0.895   1.393  0.00  0.00    -0.024 A 
ATOM      8  C   UNL     1       3.328  -0.651   0.654  0.00  0.00    +0.009 A 
ATOM      9  C   UNL     1       4.545  -1.133   1.096  0.00  0.00    +0.008 A 
ATOM     10  C   UNL     1       4.592  -1.844   2.249  0.00  0.00    +0.045 A 
ATOM     11  S   UNL     1       2.879  -1.843   2.753  0.00  0.00    -0.103 S 
ENDBRANCH   6   7
BRANCH   6  13
ATOM     12  C   UNL     1      -1.382  -1.191   0.128  0.00  0.00    +0.006 C 
ATOM     13  C   UNL     1       0.023  -1.652   0.521  0.00  0.00    -0.027 C 
ATOM     14  C   UNL     1      -0.080  -2.782   1.548  0.00  0.00    +0.006 C 
ENDBRANCH   6  13
ENDBRANCH   3   6
ENDBRANCH   2   3
ENDBRANCH   1   2
BRANCH   1  15
ATOM     15  O   UNL     1       0.134   1.025   5.070  0.00  0.00    -0.494 OA
BRANCH  15  16
ATOM     16  C   UNL     1      -0.456   1.276   6.268  0.00  0.00    +0.121 A 
ATOM     17  C   UNL     1      -1.485   2.202   6.356  0.00  0.00    +0.047 A 
ATOM     18  C   UNL     1      -2.088   2.450   7.574  0.00  0.00    +0.032 A 
ATOM     19  C   UNL     1      -1.658   1.786   8.707  0.00  0.00    +0.105 A 
ATOM     20  C   UNL     1      -0.629   0.866   8.624  0.00  0.00    +0.032 A 
ATOM     21  C   UNL     1      -0.027   0.610   7.407  0.00  0.00    +0.047 A 
BRANCH  19  22
ATOM     22  S   UNL     1      -2.423   2.111  10.261  0.00  0.00    +0.056 S 
ATOM     23  O   UNL     1      -3.724   2.609   9.977  0.00  0.00    -0.153 OA
ATOM     24  O   UNL     1      -2.207   0.962  11.068  0.00  0.00    -0.153 OA
BRANCH  22  25
ATOM     25  N   UNL     1      -1.586   3.351  10.969  0.00  0.00    -0.204 NA
ATOM     26  H   UNL     1      -2.034   3.586  11.946  0.00  0.00    +0.144 HD
ATOM     27  H   UNL     1      -1.630   4.240  10.323  0.00  0.00    +0.144 HD
ENDBRANCH  22  25
ENDBRANCH  19  22
ENDBRANCH  15  16
ENDBRANCH   1  15
TORSDOF 9
