REMARK  Name = ZINC38678599
REMARK  7 active torsions:
REMARK  status: ('A' for Active; 'I' for Inactive)
REMARK    1  A    between atoms: C_5  and  C_7
REMARK    2  A    between atoms: C_8  and  C_9
REMARK    3  A    between atoms: C_9  and  O_11
REMARK    4  A    between atoms: O_11  and  C_12
REMARK    5  A    between atoms: C_19  and  N_32
REMARK    6  A    between atoms: C_20  and  C_30
REMARK    7  A    between atoms: C_21  and  C_23
REMARK                            x       y       z     vdW  Elec       q    Type
REMARK                         _______ _______ _______ _____ _____    ______ ____
ROOT
ATOM      1  C   UNL     1      -1.054  -6.369  -0.056  0.00  0.00    +0.135 A 
ATOM      2  C   UNL     1       0.134  -7.088  -0.029  0.00  0.00    +0.047 A 
ATOM      3  C   UNL     1       0.106  -8.467  -0.071  0.00  0.00    +0.012 A 
ATOM      4  C   UNL     1      -1.102  -9.139  -0.140  0.00  0.00    +0.008 A 
ATOM      5  C   UNL     1      -2.290  -8.426  -0.167  0.00  0.00    +0.138 A 
ATOM      6  C   UNL     1      -2.265  -7.038  -0.119  0.00  0.00    +0.093 A 
ATOM      7  O   UNL     1      -3.484  -9.067  -0.235  0.00  0.00    -0.441 OA
ATOM      8  C   UNL     1      -3.538 -10.341  -0.658  0.00  0.00    +0.199 C 
ATOM      9  C   UNL     1      -2.446 -11.142  -0.660  0.00  0.00    +0.098 C 
ATOM     10  C   UNL     1      -1.110 -10.644  -0.185  0.00  0.00    +0.099 C 
ENDROOT
BRANCH  10  11
ATOM     11  C   UNL     1      -0.837 -11.186   1.194  0.00  0.00    -0.021 A 
ATOM     12  C   UNL     1      -1.690 -10.881   2.238  0.00  0.00    +0.005 A 
ATOM     13  C   UNL     1      -1.439 -11.379   3.503  0.00  0.00    +0.000 A 
ATOM     14  C   UNL     1      -0.336 -12.181   3.725  0.00  0.00    +0.001 A 
ATOM     15  C   UNL     1       0.518 -12.487   2.682  0.00  0.00    +0.015 A 
ATOM     16  C   UNL     1       0.264 -11.993   1.414  0.00  0.00    +0.022 A 
ATOM     17 BR   UNL     1       1.427 -12.417  -0.015  0.00  0.00    -0.050 Br
ENDBRANCH  10  11
BRANCH   8  18
ATOM     18  N   UNL     1      -4.735 -10.845  -1.100  0.00  0.00    -0.328 N 
ATOM     19  H   UNL     1      -5.526 -10.283  -1.104  0.00  0.00    +0.145 HD
ATOM     20  H   UNL     1      -4.790 -11.763  -1.409  0.00  0.00    +0.145 HD
ENDBRANCH   8  18
BRANCH   9  21
ATOM     21  C   UNL     1      -2.568 -12.492  -1.123  0.00  0.00    +0.101 C 
ATOM     22  N   UNL     1      -2.664 -13.562  -1.491  0.00  0.00    -0.191 NA
ENDBRANCH   9  21
BRANCH   1  23
ATOM     23  O   UNL     1      -1.028  -5.011  -0.015  0.00  0.00    -0.423 OA
BRANCH  23  24
ATOM     24  C   UNL     1      -0.705  -4.349  -1.145  0.00  0.00    +0.337 C 
ATOM     25  O   UNL     1      -0.361  -4.967  -2.135  0.00  0.00    -0.245 OA
BRANCH  24  27
ATOM     26  C   UNL     1      -0.446  -2.227  -2.312  0.00  0.00    +0.016 C 
ATOM     27  C   UNL     1      -0.769  -2.889  -1.181  0.00  0.00    +0.092 C 
BRANCH  26  32
ATOM     28  C   UNL     1      -0.964   1.334  -1.253  0.00  0.00    +0.001 A 
ATOM     29  C   UNL     1      -0.632   2.010  -2.415  0.00  0.00    +0.001 A 
ATOM     30  C   UNL     1      -0.239   1.312  -3.543  0.00  0.00    +0.020 A 
ATOM     31  C   UNL     1      -0.175  -0.067  -3.518  0.00  0.00    +0.048 A 
ATOM     32  C   UNL     1      -0.510  -0.757  -2.347  0.00  0.00    -0.006 A 
ATOM     33  C   UNL     1      -0.906  -0.043  -1.212  0.00  0.00    +0.009 A 
ATOM     34 CL   UNL     1       0.317  -0.941  -4.934  0.00  0.00    -0.083 Cl
ENDBRANCH  26  32
ENDBRANCH  24  27
ENDBRANCH  23  24
ENDBRANCH   1  23
TORSDOF 7
