REMARK  Name = ZINC59331625
REMARK  15 active torsions:
REMARK  status: ('A' for Active; 'I' for Inactive)
REMARK    1  A    between atoms: C_1  and  C_2
REMARK    2  A    between atoms: C_2  and  N_3
REMARK    3  A    between atoms: N_3  and  C_4
REMARK    4  A    between atoms: N_3  and  C_6
REMARK    5  A    between atoms: C_4  and  C_5
REMARK    6  A    between atoms: C_9  and  N_13
REMARK    7  A    between atoms: C_10  and  C_12
REMARK    8  A    between atoms: C_17  and  C_37
REMARK    9  A    between atoms: C_18  and  N_22
REMARK   10  A    between atoms: N_22  and  C_23
REMARK   11  A    between atoms: C_23  and  N_25
REMARK   12  A    between atoms: C_26  and  C_28
REMARK   13  A    between atoms: C_28  and  O_29
REMARK   14  A    between atoms: O_29  and  C_30
REMARK   15  A    between atoms: C_35  and  C_36
REMARK                            x       y       z     vdW  Elec       q    Type
REMARK                         _______ _______ _______ _____ _____    ______ ____
ROOT
ATOM      1  N   UNL     1      -0.146  -6.894  -1.638  0.00  0.00    -0.149 N 
ATOM      2  N   UNL     1       0.362  -7.802  -0.879  0.00  0.00    -0.147 NA
ATOM      3  C   UNL     1       0.243  -8.976  -1.479  0.00  0.00    +0.114 A 
ATOM      4  C   UNL     1       0.586 -10.308  -1.186  0.00  0.00    +0.037 A 
ATOM      5  C   UNL     1       0.295 -11.287  -2.080  0.00  0.00    -0.027 A 
ATOM      6  C   UNL     1      -0.342 -11.007  -3.296  0.00  0.00    +0.038 A 
ATOM      7  C   UNL     1      -0.701  -9.736  -3.639  0.00  0.00    +0.055 A 
ATOM      8  C   UNL     1      -0.426  -8.679  -2.755  0.00  0.00    +0.115 A 
ATOM      9  N   UNL     1      -0.619  -7.369  -2.737  0.00  0.00    -0.147 NA
ATOM     10  C   UNL     1       0.668 -12.711  -1.757  0.00  0.00    +0.046 C 
ENDROOT
BRANCH   1  14
ATOM     11  C   UNL     1      -0.258  -2.851  -0.634  0.00  0.00    +0.014 A 
ATOM     12  C   UNL     1      -0.645  -3.802   0.291  0.00  0.00    +0.024 A 
ATOM     13  C   UNL     1      -0.610  -5.143  -0.038  0.00  0.00    +0.031 A 
ATOM     14  C   UNL     1      -0.184  -5.535  -1.301  0.00  0.00    +0.089 A 
ATOM     15  C   UNL     1       0.204  -4.577  -2.228  0.00  0.00    -0.022 A 
ATOM     16  C   UNL     1       0.161  -3.237  -1.894  0.00  0.00    +0.027 A 
ATOM     17  C   UNL     1       0.668  -4.998  -3.599  0.00  0.00    +0.046 C 
BRANCH  11  18
ATOM     18  N   UNL     1      -0.295  -1.494  -0.298  0.00  0.00    -0.394 NA
ATOM     19  H   UNL     1       0.014  -0.944  -1.085  0.00  0.00    +0.126 HD
BRANCH  18  21
ATOM     20  C   UNL     1      -2.566  -1.242  -1.177  0.00  0.00    +0.022 C 
ATOM     21  C   UNL     1      -1.669  -1.115   0.056  0.00  0.00    +0.081 C 
ENDBRANCH  18  21
BRANCH  18  22
ATOM     22  C   UNL     1       0.591  -1.250   0.849  0.00  0.00    +0.081 C 
ATOM     23  C   UNL     1       2.039  -1.531   0.444  0.00  0.00    +0.022 C 
ENDBRANCH  18  22
ENDBRANCH  11  18
ENDBRANCH   1  14
BRANCH   6  24
ATOM     24  N   UNL     1      -0.617 -12.056  -4.180  0.00  0.00    -0.296 N 
ATOM     25  H   UNL     1      -1.005 -12.881  -3.849  0.00  0.00    +0.154 HD
BRANCH  24  26
ATOM     26  C   UNL     1      -0.344 -11.920  -5.493  0.00  0.00    +0.141 C 
ATOM     27  S   UNL     1       0.448 -10.513  -6.061  0.00  0.00    -0.018 S 
BRANCH  26  28
ATOM     28  N   UNL     1      -0.695 -12.892  -6.359  0.00  0.00    -0.265 N 
ATOM     29  C   UNL     1      -0.422 -12.755  -7.671  0.00  0.00    +0.256 C 
ATOM     30  O   UNL     1       0.139 -11.759  -8.074  0.00  0.00    -0.272 OA
ATOM     31  H   UNL     1      -1.144 -13.689  -6.037  0.00  0.00    +0.157 HD
BRANCH  29  32
ATOM     32  C   UNL     1      -0.815 -13.842  -8.639  0.00  0.00    +0.325 C 
BRANCH  32  33
ATOM     33  O   UNL     1      -0.421 -13.467  -9.961  0.00  0.00    -0.483 OA
BRANCH  33  34
ATOM     34  C   UNL     1      -0.703 -14.344 -10.960  0.00  0.00    +0.124 A 
ATOM     35  C   UNL     1      -1.351 -15.537 -10.676  0.00  0.00    +0.046 A 
ATOM     36  C   UNL     1      -1.638 -16.426 -11.694  0.00  0.00    +0.004 A 
ATOM     37  C   UNL     1      -1.279 -16.127 -12.995  0.00  0.00    +0.000 A 
ATOM     38  C   UNL     1      -0.633 -14.939 -13.281  0.00  0.00    +0.007 A 
ATOM     39  C   UNL     1      -0.349 -14.044 -12.268  0.00  0.00    -0.009 A 
ATOM     40  C   UNL     1       0.349 -12.746 -12.581  0.00  0.00    +0.047 C 
ENDBRANCH  33  34
ENDBRANCH  32  33
ENDBRANCH  29  32
ENDBRANCH  26  28
ENDBRANCH  24  26
ENDBRANCH   6  24
TORSDOF 10
