REMARK  Name = ZINC24090485
REMARK  8 active torsions:
REMARK  status: ('A' for Active; 'I' for Inactive)
REMARK    1  A    between atoms: C_1  and  C_2
REMARK    2  A    between atoms: C_2  and  C_4
REMARK    3  A    between atoms: C_2  and  N_31
REMARK    4  A    between atoms: C_7  and  S_16
REMARK    5  A    between atoms: N_8  and  C_9
REMARK    6  A    between atoms: S_16  and  C_17
REMARK    7  A    between atoms: C_17  and  C_18
REMARK    8  A    between atoms: C_18  and  C_20
REMARK                            x       y       z     vdW  Elec       q    Type
REMARK                         _______ _______ _______ _____ _____    ______ ____
ROOT
ATOM      1  C   UNL     1       5.327  11.970  -1.286  0.00  0.00    +0.125 A 
ATOM      2  N   UNL     1       5.677  10.723  -1.433  0.00  0.00    -0.135 NA
ATOM      3  N   UNL     1       4.705   9.949  -1.104  0.00  0.00    -0.122 NA
ATOM      4  C   UNL     1       3.671  10.665  -0.726  0.00  0.00    +0.196 A 
ATOM      5  N   UNL     1       4.034  11.979  -0.835  0.00  0.00    -0.275 N 
ENDROOT
BRANCH   5   6
ATOM      6  C   UNL     1       3.245  13.103  -0.543  0.00  0.00    +0.050 A 
ATOM      7  C   UNL     1       2.884  13.980  -1.556  0.00  0.00    +0.029 A 
ATOM      8  C   UNL     1       2.103  15.082  -1.267  0.00  0.00    +0.040 A 
ATOM      9  C   UNL     1       1.691  15.319   0.034  0.00  0.00    +0.124 A 
ATOM     10  C   UNL     1       2.056  14.448   1.046  0.00  0.00    +0.040 A 
ATOM     11  C   UNL     1       2.832  13.341   0.760  0.00  0.00    +0.029 A 
ATOM     12  F   UNL     1       0.932  16.401   0.315  0.00  0.00    -0.205 F 
ENDBRANCH   5   6
BRANCH   1  14
ATOM     13  C   UNL     1       6.290  13.387  -3.079  0.00  0.00    -0.005 C 
ATOM     14  C   UNL     1       6.183  13.177  -1.567  0.00  0.00    -0.002 C 
BRANCH  14  15
ATOM     15  N   UNL     1       7.525  12.967  -1.006  0.00  0.00    +0.386 N 
ATOM     16  C   UNL     1       7.454  12.663   0.429  0.00  0.00    -0.078 C 
ATOM     17  C   UNL     1       8.849  12.307   0.946  0.00  0.00    -0.019 C 
ATOM     18  C   UNL     1       9.794  13.487   0.702  0.00  0.00    -0.004 C 
ATOM     19  C   UNL     1       9.813  13.814  -0.794  0.00  0.00    -0.019 C 
ATOM     20  C   UNL     1       8.390  14.126  -1.261  0.00  0.00    -0.078 C 
ATOM     21  H   UNL     1       7.972  12.098  -1.511  0.00  0.00    -0.081 HD
ENDBRANCH  14  15
ENDBRANCH   1  14
BRANCH   4  22
ATOM     22  S   UNL     1       2.111  10.049  -0.187  0.00  0.00    -0.078 S 
BRANCH  22  23
ATOM     23  C   UNL     1       2.411   8.269  -0.326  0.00  0.00    +0.157 C 
BRANCH  23  24
ATOM     24  C   UNL     1       1.175   7.517   0.096  0.00  0.00    +0.173 C 
ATOM     25  O   UNL     1       0.188   8.125   0.455  0.00  0.00    -0.291 OA
BRANCH  24  26
ATOM     26  C   UNL     1       1.165   6.049   0.072  0.00  0.00    +0.019 A 
ATOM     27  C   UNL     1       2.302   5.345  -0.342  0.00  0.00    +0.013 A 
ATOM     28  C   UNL     1       2.291   3.980  -0.364  0.00  0.00    +0.024 A 
ATOM     29  C   UNL     1       1.152   3.281   0.025  0.00  0.00    +0.037 A 
ATOM     30  C   UNL     1       0.016   3.972   0.439  0.00  0.00    -0.025 A 
ATOM     31  C   UNL     1       0.017   5.347   0.464  0.00  0.00    +0.016 A 
ATOM     32  C   UNL     1      -1.214   3.210   0.859  0.00  0.00    +0.046 C 
ATOM     33  C   UNL     1      -1.333   1.934   0.019  0.00  0.00    +0.101 C 
ATOM     34  C   UNL     1      -0.014   1.209   0.009  0.00  0.00    +0.218 C 
ATOM     35  O   UNL     1       0.002  -0.004   0.002  0.00  0.00    -0.275 OA
ATOM     36  N   UNL     1       1.146   1.889   0.001  0.00  0.00    -0.285 N 
ATOM     37  H   UNL     1       2.097   1.335  -0.024  0.00  0.00    +0.155 HD
ENDBRANCH  24  26
ENDBRANCH  23  24
ENDBRANCH  22  23
ENDBRANCH   4  22
TORSDOF 7
