REMARK  Name = ZINC09514975
REMARK  15 active torsions:
REMARK  status: ('A' for Active; 'I' for Inactive)
REMARK    1  A    between atoms: C_1  and  C_2
REMARK    2  A    between atoms: C_5  and  C_7
REMARK    3  A    between atoms: C_10  and  C_12
REMARK    4  A    between atoms: C_12  and  N_71
REMARK    5  A    between atoms: C_13  and  N_71
REMARK    6  A    between atoms: C_14  and  C_15
REMARK    7  A    between atoms: C_14  and  N_71
REMARK    8  A    between atoms: N_17  and  C_18
REMARK    9  A    between atoms: N_17  and  C_22
REMARK   10  A    between atoms: C_18  and  C_19
REMARK   11  A    between atoms: C_19  and  C_20
REMARK   12  A    between atoms: C_19  and  C_21
REMARK   13  A    between atoms: C_23  and  N_38
REMARK   14  A    between atoms: N_24  and  C_31
REMARK   15  A    between atoms: C_31  and  C_32
REMARK                            x       y       z     vdW  Elec       q    Type
REMARK                         _______ _______ _______ _____ _____    ______ ____
ROOT
ATOM      1  C   UNL     1      -0.026   0.536  -0.462  0.00  0.00    +0.203 C 
ATOM      2  O   UNL     1       1.036   0.293  -0.997  0.00  0.00    -0.277 OA
ATOM      3  N   UNL     1      -0.344   1.807  -0.140  0.00  0.00    -0.266 N 
ENDROOT
BRANCH   3   4
ATOM      4  C   UNL     1       0.597   2.840  -0.334  0.00  0.00    +0.140 A 
ATOM      5  C   UNL     1       1.806   2.821   0.330  0.00  0.00    +0.128 A 
ATOM      6  N   UNL     1       2.705   3.840   0.117  0.00  0.00    -0.276 N 
ATOM      7  C   UNL     1       2.404   4.849  -0.721  0.00  0.00    +0.331 A 
ATOM      8  O   UNL     1       3.210   5.744  -0.892  0.00  0.00    -0.246 OA
ATOM      9  N   UNL     1       1.228   4.887  -1.372  0.00  0.00    -0.273 N 
ATOM     10  H   UNL     1       1.030   5.648  -1.990  0.00  0.00    +0.173 HD
ATOM     11  C   UNL     1       0.315   3.911  -1.202  0.00  0.00    +0.277 A 
ATOM     12  O   UNL     1      -0.748   3.955  -1.798  0.00  0.00    -0.266 OA
BRANCH   5  13
ATOM     13  N   UNL     1       2.111   1.794   1.191  0.00  0.00    -0.343 N 
ATOM     14  H   UNL     1       1.446   1.118   1.394  0.00  0.00    +0.144 HD
ATOM     15  H   UNL     1       2.992   1.745   1.595  0.00  0.00    +0.144 HD
ENDBRANCH   5  13
BRANCH   6  16
ATOM     16  C   UNL     1       3.996   3.830   0.810  0.00  0.00    +0.163 C 
BRANCH  16  17
ATOM     17  C   UNL     1       3.863   4.551   2.127  0.00  0.00    -0.028 A 
ATOM     18  C   UNL     1       4.104   5.910   2.199  0.00  0.00    +0.005 A 
ATOM     19  C   UNL     1       3.978   6.572   3.406  0.00  0.00    +0.000 A 
ATOM     20  C   UNL     1       3.622   5.872   4.544  0.00  0.00    +0.000 A 
ATOM     21  C   UNL     1       3.387   4.512   4.473  0.00  0.00    +0.000 A 
ATOM     22  C   UNL     1       3.508   3.851   3.265  0.00  0.00    +0.005 A 
ENDBRANCH  16  17
ENDBRANCH   6  16
ENDBRANCH   3   4
BRANCH   1  23
ATOM     23  C   UNL     1      -0.989  -0.583  -0.156  0.00  0.00    +0.019 C 
BRANCH  23  25
ATOM     24  C   UNL     1       0.780  -2.201   0.186  0.00  0.00    -0.095 C 
ATOM     25  N   UNL     1      -0.405  -1.856  -0.627  0.00  0.00    +0.388 N 
ATOM     26  H   UNL     1      -0.117  -1.749  -1.607  0.00  0.00    -0.081 HD
BRANCH  25  27
ATOM     27  C   UNL     1      -1.410  -2.936  -0.538  0.00  0.00    -0.003 C 
BRANCH  27  31
ATOM     28  C   UNL     1      -0.399  -5.630  -2.786  0.00  0.00    +0.108 A 
ATOM     29  C   UNL     1       0.144  -6.089  -1.644  0.00  0.00    +0.045 A 
ATOM     30  C   UNL     1      -0.154  -5.141  -0.638  0.00  0.00    +0.043 A 
ATOM     31  C   UNL     1      -0.868  -4.163  -1.224  0.00  0.00    +0.089 A 
ATOM     32  O   UNL     1      -1.010  -4.463  -2.525  0.00  0.00    -0.466 OA
BRANCH  28  36
ATOM     33  C   UNL     1       0.885  -4.151  -4.968  0.00  0.00    +0.008 C 
ATOM     34  C   UNL     1       0.336  -5.546  -5.274  0.00  0.00    -0.003 C 
ATOM     35  C   UNL     1      -1.183  -5.727  -5.259  0.00  0.00    +0.015 C 
ATOM     36  C   UNL     1      -0.331  -6.310  -4.129  0.00  0.00    +0.058 C 
ENDBRANCH  28  36
ENDBRANCH  27  31
ENDBRANCH  25  27
ENDBRANCH  23  25
ENDBRANCH   1  23
BRANCH   3  37
ATOM     37  C   UNL     1      -1.669   2.115   0.404  0.00  0.00    +0.117 C 
BRANCH  37  38
ATOM     38  C   UNL     1      -1.659   1.905   1.920  0.00  0.00    +0.001 C 
ATOM     39  C   UNL     1      -0.729   2.932   2.570  0.00  0.00    +0.009 C 
ATOM     40  C   UNL     1      -3.076   2.081   2.468  0.00  0.00    +0.009 C 
ENDBRANCH  37  38
ENDBRANCH   3  37
TORSDOF 11
