REMARK  Name = ZINC64002415
REMARK  10 active torsions:
REMARK  status: ('A' for Active; 'I' for Inactive)
REMARK    1  A    between atoms: C_1  and  O_2
REMARK    2  A    between atoms: O_2  and  C_3
REMARK    3  A    between atoms: C_5  and  C_13
REMARK    4  A    between atoms: C_7  and  O_11
REMARK    5  A    between atoms: C_8  and  O_9
REMARK    6  A    between atoms: O_9  and  C_10
REMARK    7  A    between atoms: O_11  and  C_12
REMARK    8  A    between atoms: C_13  and  N_14
REMARK    9  A    between atoms: C_27  and  C_29
REMARK   10  A    between atoms: C_33  and  O_35
REMARK                            x       y       z     vdW  Elec       q    Type
REMARK                         _______ _______ _______ _____ _____    ______ ____
ROOT
ATOM      1  N   UNL     1       1.687   0.517   5.202  0.00  0.00    -0.289 NA
ATOM      2  C   UNL     1       0.631   1.238   4.486  0.00  0.00    +0.090 C 
ATOM      3  C   UNL     1      -0.661   1.259   5.323  0.00  0.00    +0.049 C 
ATOM      4  C   UNL     1      -0.263   1.733   6.699  0.00  0.00    -0.035 C 
ATOM      5  C   UNL     1      -0.753   2.669   7.498  0.00  0.00    -0.001 A 
ATOM      6  C   UNL     1      -1.958   3.510   7.402  0.00  0.00    +0.010 A 
ATOM      7  C   UNL     1      -2.147   4.404   8.408  0.00  0.00    +0.001 A 
ATOM      8  C   UNL     1      -1.269   4.546   9.487  0.00  0.00    +0.002 A 
ATOM      9  C   UNL     1      -0.143   3.808   9.661  0.00  0.00    +0.026 A 
ATOM     10  C   UNL     1       0.157   2.826   8.674  0.00  0.00    +0.043 A 
ATOM     11  N   UNL     1       1.138   1.973   8.606  0.00  0.00    -0.376 N 
ATOM     12  C   UNL     1       0.932   1.129   7.432  0.00  0.00    +0.128 C 
ATOM     13  C   UNL     1       2.103   1.179   6.449  0.00  0.00    +0.114 C 
ATOM     14  H   UNL     1       1.879   1.910   9.229  0.00  0.00    +0.160 HD
ENDROOT
BRANCH  13  15
ATOM     15  C   UNL     1       2.468   2.613   6.165  0.00  0.00    -0.025 A 
ATOM     16  C   UNL     1       1.500   3.499   5.729  0.00  0.00    +0.005 A 
ATOM     17  C   UNL     1       1.831   4.816   5.468  0.00  0.00    +0.004 A 
ATOM     18  C   UNL     1       3.131   5.249   5.642  0.00  0.00    +0.045 A 
ATOM     19  C   UNL     1       4.104   4.363   6.080  0.00  0.00    +0.117 A 
ATOM     20  C   UNL     1       3.768   3.043   6.347  0.00  0.00    +0.050 A 
BRANCH  19  21
ATOM     21  O   UNL     1       5.384   4.787   6.252  0.00  0.00    -0.507 OA
ATOM     22  H   UNL     1       5.571   5.122   7.140  0.00  0.00    +0.292 HD
ENDBRANCH  19  21
ENDBRANCH  13  15
BRANCH   1  23
ATOM     23  C   UNL     1       2.841   0.268   4.327  0.00  0.00    +0.120 C 
BRANCH  23  26
ATOM     24  C   UNL     1       1.563  -0.874   0.959  0.00  0.00    +0.165 A 
ATOM     25  C   UNL     1       1.948  -0.059   2.013  0.00  0.00    +0.054 A 
ATOM     26  C   UNL     1       2.422  -0.620   3.184  0.00  0.00    -0.026 A 
ATOM     27  C   UNL     1       2.515  -1.994   3.309  0.00  0.00    +0.054 A 
ATOM     28  C   UNL     1       2.131  -2.815   2.260  0.00  0.00    +0.165 A 
ATOM     29  C   UNL     1       1.649  -2.255   1.083  0.00  0.00    +0.204 A 
BRANCH  24  31
ATOM     30  C   UNL     1       1.035   1.106  -0.250  0.00  0.00    +0.277 C 
ATOM     31  O   UNL     1       1.096  -0.321  -0.193  0.00  0.00    -0.491 OA
ENDBRANCH  24  31
BRANCH  29  32
ATOM     32  O   UNL     1       1.266  -3.058   0.052  0.00  0.00    -0.488 OA
ATOM     33  C   UNL     1       2.269  -3.408  -0.904  0.00  0.00    +0.277 C 
ENDBRANCH  29  32
BRANCH  28  34
ATOM     34  O   UNL     1       2.223  -4.166   2.384  0.00  0.00    -0.491 OA
ATOM     35  C   UNL     1       2.723  -4.671   3.623  0.00  0.00    +0.277 C 
ENDBRANCH  28  34
ENDBRANCH  23  26
ENDBRANCH   1  23
TORSDOF 7
