REMARK  Name = ZINC21352015
REMARK  8 active torsions:
REMARK  status: ('A' for Active; 'I' for Inactive)
REMARK    1  A    between atoms: C_1  and  C_2
REMARK    2  A    between atoms: C_7  and  O_8
REMARK    3  A    between atoms: O_8  and  C_9
REMARK    4  A    between atoms: C_9  and  C_11
REMARK    5  A    between atoms: C_9  and  C_12
REMARK    6  A    between atoms: N_14  and  C_15
REMARK    7  A    between atoms: C_18  and  S_21
REMARK    8  A    between atoms: S_21  and  N_24
REMARK                            x       y       z     vdW  Elec       q    Type
REMARK                         _______ _______ _______ _____ _____    ______ ____
ROOT
ATOM      1  C   UNL     1      -6.903   4.650   3.976  0.00  0.00    +0.034 A 
ATOM      2  C   UNL     1      -5.765   4.533   4.762  0.00  0.00    +0.025 A 
ATOM      3  C   UNL     1      -4.515   4.636   4.184  0.00  0.00    +0.031 A 
ATOM      4  C   UNL     1      -4.396   4.855   2.824  0.00  0.00    +0.113 A 
ATOM      5  C   UNL     1      -5.528   4.978   2.039  0.00  0.00    +0.031 A 
ATOM      6  C   UNL     1      -6.781   4.871   2.610  0.00  0.00    +0.025 A 
ENDROOT
BRANCH   1   9
ATOM      7  C   UNL     1      -8.373   4.989   5.816  0.00  0.00    +0.258 C 
ATOM      8  O   UNL     1      -7.483   5.562   6.407  0.00  0.00    -0.271 OA
ATOM      9  N   UNL     1      -8.171   4.547   4.559  0.00  0.00    -0.282 N 
ATOM     10  H   UNL     1      -9.003   4.105   3.991  0.00  0.00    +0.155 HD
BRANCH   7  11
ATOM     11  C   UNL     1      -9.705   4.772   6.486  0.00  0.00    +0.256 C 
ATOM     12  C   UNL     1      -9.939   3.273   6.683  0.00  0.00    +0.062 C 
BRANCH  11  13
ATOM     13  O   UNL     1      -9.712   5.426   7.756  0.00  0.00    -0.480 OA
BRANCH  13  20
ATOM     14  C   UNL     1      -9.734   6.941  10.140  0.00  0.00    +0.047 C 
ATOM     15  C   UNL     1     -10.996   6.527   9.429  0.00  0.00    -0.007 A 
ATOM     16  C   UNL     1     -12.228   6.888   9.941  0.00  0.00    +0.027 A 
ATOM     17  C   UNL     1     -13.387   6.507   9.288  0.00  0.00    +0.041 A 
ATOM     18  C   UNL     1     -13.316   5.765   8.123  0.00  0.00    +0.023 A 
ATOM     19  C   UNL     1     -12.086   5.406   7.606  0.00  0.00    +0.047 A 
ATOM     20  C   UNL     1     -10.922   5.782   8.261  0.00  0.00    +0.125 A 
ATOM     21 CL   UNL     1     -14.934   6.963   9.933  0.00  0.00    -0.084 Cl
ENDBRANCH  13  20
ENDBRANCH  11  13
ENDBRANCH   7  11
ENDBRANCH   1   9
BRANCH   4  22
ATOM     22  S   UNL     1      -2.800   4.986   2.090  0.00  0.00    +0.100 S 
ATOM     23  O   UNL     1      -1.909   5.385   3.123  0.00  0.00    -0.146 OA
ATOM     24  O   UNL     1      -2.962   5.735   0.894  0.00  0.00    -0.146 OA
BRANCH  22  25
ATOM     25  N   UNL     1      -2.343   3.461   1.635  0.00  0.00    -0.118 NA
ATOM     26  C   UNL     1      -1.198   3.272   1.065  0.00  0.00    +0.117 C 
ATOM     27  C   UNL     1      -0.306   4.440   0.827  0.00  0.00    +0.073 C 
ATOM     28  C   UNL     1      -0.525   4.993  -0.598  0.00  0.00    +0.008 C 
ATOM     29  C   UNL     1      -0.004   4.045  -1.607  0.00  0.00    +0.002 C 
ATOM     30  C   UNL     1      -0.715   2.700  -1.635  0.00  0.00    +0.019 C 
ATOM     31  C   UNL     1      -0.132   1.774  -0.595  0.00  0.00    +0.102 C 
ATOM     32  N   UNL     1      -0.834   1.986   0.693  0.00  0.00    -0.331 N 
ATOM     33  H   UNL     1      -1.060   1.128   1.343  0.00  0.00    +0.147 HD
ENDBRANCH  22  25
ENDBRANCH   4  22
TORSDOF 6
