REMARK  Name = ZINC22842086
REMARK  11 active torsions:
REMARK  status: ('A' for Active; 'I' for Inactive)
REMARK    1  A    between atoms: C_1  and  C_2
REMARK    2  A    between atoms: C_5  and  C_8
REMARK    3  A    between atoms: C_10  and  C_13
REMARK    4  A    between atoms: C_13  and  N_14
REMARK    5  A    between atoms: N_17  and  C_20
REMARK    6  A    between atoms: C_20  and  C_22
REMARK    7  A    between atoms: C_20  and  C_23
REMARK    8  A    between atoms: N_25  and  C_26
REMARK    9  A    between atoms: C_26  and  C_27
REMARK   10  A    between atoms: C_27  and  C_29
REMARK   11  A    between atoms: C_27  and  C_30
REMARK                            x       y       z     vdW  Elec       q    Type
REMARK                         _______ _______ _______ _____ _____    ______ ____
ROOT
ATOM      1  N   UNL     1      -3.642  -6.221  -5.013  0.00  0.00    -0.297 NA
ATOM      2  C   UNL     1      -2.211  -6.547  -5.066  0.00  0.00    +0.066 C 
ATOM      3  C   UNL     1      -1.537  -6.089  -3.771  0.00  0.00    -0.062 C 
ATOM      4  N   UNL     1      -1.738  -4.643  -3.602  0.00  0.00    +0.389 N 
ATOM      5  C   UNL     1      -3.170  -4.316  -3.549  0.00  0.00    -0.062 C 
ATOM      6  C   UNL     1      -3.844  -4.775  -4.845  0.00  0.00    +0.066 C 
ATOM      7  H   UNL     1      -1.306  -4.135  -4.477  0.00  0.00    -0.081 HD
ENDROOT
BRANCH   4   8
ATOM      8  C   UNL     1      -1.041  -4.150  -2.407  0.00  0.00    +0.016 C 
ATOM      9  C   UNL     1      -1.666  -4.776  -1.158  0.00  0.00    -0.004 C 
BRANCH   8  10
ATOM     10  C   UNL     1      -1.167  -2.650  -2.334  0.00  0.00    +0.199 C 
ATOM     11  O   UNL     1      -1.778  -2.051  -3.193  0.00  0.00    -0.278 OA
ATOM     12  N   UNL     1      -0.602  -1.975  -1.314  0.00  0.00    -0.316 N 
ATOM     13  H   UNL     1      -0.048  -2.519  -0.534  0.00  0.00    +0.149 HD
BRANCH  12  14
ATOM     14  C   UNL     1      -0.724  -0.517  -1.243  0.00  0.00    +0.112 C 
BRANCH  14  15
ATOM     15  C   UNL     1       0.002  -0.004   0.002  0.00  0.00    +0.033 C 
ATOM     16  C   UNL     1      -0.700  -0.530   1.255  0.00  0.00    +0.014 C 
BRANCH  15  17
ATOM     17  C   UNL     1      -0.018   1.503   0.010  0.00  0.00    -0.043 A 
ATOM     18  C   UNL     1      -1.225   2.178   0.020  0.00  0.00    +0.004 A 
ATOM     19  C   UNL     1      -1.244   3.560   0.032  0.00  0.00    +0.000 A 
ATOM     20  C   UNL     1      -0.056   4.267   0.025  0.00  0.00    +0.000 A 
ATOM     21  C   UNL     1       1.151   3.592   0.010  0.00  0.00    +0.000 A 
ATOM     22  C   UNL     1       1.169   2.210   0.003  0.00  0.00    +0.004 A 
ENDBRANCH  15  17
ENDBRANCH  14  15
ENDBRANCH  12  14
ENDBRANCH   8  10
ENDBRANCH   4   8
BRANCH   1  23
ATOM     23  C   UNL     1      -4.340  -6.713  -6.209  0.00  0.00    +0.183 C 
BRANCH  23  26
ATOM     24  C   UNL     1      -7.828  -5.880  -5.971  0.00  0.00    +0.202 A 
ATOM     25  N   UNL     1      -6.566  -5.547  -6.327  0.00  0.00    -0.190 NA
ATOM     26  C   UNL     1      -5.828  -6.582  -6.012  0.00  0.00    +0.242 A 
ATOM     27  O   UNL     1      -6.644  -7.503  -5.489  0.00  0.00    -0.336 OA
ATOM     28  N   UNL     1      -7.782  -7.085  -5.467  0.00  0.00    -0.056 NA
BRANCH  24  33
ATOM     29  C   UNL     1     -12.524  -2.598  -6.563  0.00  0.00    +0.044 C 
ATOM     30  C   UNL     1     -11.295  -3.456  -6.409  0.00  0.00    -0.050 A 
ATOM     31  C   UNL     1     -11.403  -4.720  -5.856  0.00  0.00    +0.004 A 
ATOM     32  C   UNL     1     -10.281  -5.510  -5.712  0.00  0.00    +0.012 A 
ATOM     33  C   UNL     1      -9.038  -5.034  -6.125  0.00  0.00    +0.022 A 
ATOM     34  C   UNL     1      -8.935  -3.759  -6.676  0.00  0.00    +0.012 A 
ATOM     35  C   UNL     1     -10.064  -2.978  -6.820  0.00  0.00    +0.004 A 
ENDBRANCH  24  33
ENDBRANCH  23  26
ENDBRANCH   1  23
TORSDOF 8
