REMARK  Name = ZINC64085443
REMARK  6 active torsions:
REMARK  status: ('A' for Active; 'I' for Inactive)
REMARK    1  A    between atoms: C_1  and  C_2
REMARK    2  A    between atoms: C_2  and  C_3
REMARK    3  A    between atoms: C_2  and  C_4
REMARK    4  A    between atoms: C_6  and  C_21
REMARK    5  A    between atoms: C_14  and  C_17
REMARK    6  A    between atoms: C_26  and  C_29
REMARK                            x       y       z     vdW  Elec       q    Type
REMARK                         _______ _______ _______ _____ _____    ______ ____
ROOT
ATOM      1  C   UNL     1      -1.462  -0.734   0.014  0.00  0.00    +0.134 C 
ATOM      2  C   UNL     1      -1.257  -2.232  -0.040  0.00  0.00    +0.052 C 
ATOM      3  H   UNL     1      -2.520  -1.697  -2.888  0.00  0.00    +0.170 HD
ATOM      4  C   UNL     1      -1.695  -2.645  -1.245  0.00  0.00    +0.098 C 
ATOM      5  N   UNL     1      -2.161  -1.610  -1.991  0.00  0.00    -0.269 N 
ATOM      6  N   UNL     1      -2.056  -0.398  -1.291  0.00  0.00    -0.229 N 
ATOM      7  C   UNL     1      -2.433   0.864  -1.737  0.00  0.00    +0.138 A 
ATOM      8  C   UNL     1      -3.082   0.996  -2.961  0.00  0.00    +0.046 A 
ATOM      9  C   UNL     1      -3.452   2.257  -3.393  0.00  0.00    +0.017 A 
ATOM     10  C   UNL     1      -3.160   3.347  -2.583  0.00  0.00    +0.073 A 
ATOM     11  C   UNL     1      -2.514   3.142  -1.381  0.00  0.00    +0.125 A 
ATOM     12  N   UNL     1      -2.178   1.927  -0.991  0.00  0.00    -0.238 NA
ENDROOT
BRANCH   2  13
ATOM     13  C   UNL     1      -0.711  -3.045   0.981  0.00  0.00    +0.246 C 
ATOM     14  O   UNL     1       0.494  -3.205   1.052  0.00  0.00    -0.270 OA
ATOM     15  N   UNL     1      -1.524  -3.642   1.874  0.00  0.00    -0.294 N 
ATOM     16  C   UNL     1      -0.982  -4.399   3.015  0.00  0.00    +0.113 C 
ATOM     17  C   UNL     1      -1.431  -3.702   4.302  0.00  0.00    +0.054 C 
ATOM     18  C   UNL     1      -2.890  -3.360   4.230  0.00  0.00    -0.043 C 
ATOM     19  C   UNL     1      -3.584  -3.289   3.100  0.00  0.00    -0.004 C 
ATOM     20  C   UNL     1      -2.986  -3.558   1.751  0.00  0.00    +0.135 C 
BRANCH  18  21
ATOM     21  C   UNL     1      -3.566  -3.097   5.438  0.00  0.00    -0.015 C 
ATOM     22  C   UNL     1      -3.012  -3.003   6.709  0.00  0.00    +0.022 A 
ATOM     23  C   UNL     1      -1.688  -3.129   7.189  0.00  0.00    +0.013 A 
ATOM     24  C   UNL     1      -1.470  -2.978   8.526  0.00  0.00    +0.020 A 
ATOM     25  C   UNL     1      -2.529  -2.706   9.392  0.00  0.00    +0.113 A 
ATOM     26  N   UNL     1      -3.764  -2.584   8.979  0.00  0.00    -0.238 NA
ATOM     27  C   UNL     1      -4.088  -2.715   7.675  0.00  0.00    +0.135 A 
ATOM     28  N   UNL     1      -5.246  -2.632   7.058  0.00  0.00    -0.365 N 
ATOM     29  C   UNL     1      -5.048  -2.850   5.622  0.00  0.00    +0.150 C 
ATOM     30  H   UNL     1      -6.098  -2.450   7.486  0.00  0.00    +0.161 HD
ENDBRANCH  18  21
ENDBRANCH   2  13
BRANCH  10  31
ATOM     31  C   UNL     1      -3.544   4.739  -3.013  0.00  0.00    +0.419 C 
ATOM     32  F   UNL     1      -4.829   5.035  -2.544  0.00  0.00    -0.166 F 
ATOM     33  F   UNL     1      -2.632   5.659  -2.485  0.00  0.00    -0.166 F 
ATOM     34  F   UNL     1      -3.529   4.817  -4.410  0.00  0.00    -0.166 F 
ENDBRANCH  10  31
BRANCH   1  36
ATOM     35  C   UNL     1       0.397  -0.251   1.612  0.00  0.00    +0.009 C 
ATOM     36  C   UNL     1      -0.122  -0.017   0.192  0.00  0.00    +0.010 C 
ATOM     37  C   UNL     1       0.889  -0.567  -0.817  0.00  0.00    +0.009 C 
ENDBRANCH   1  36
TORSDOF 4
