REMARK  Name = ZINC59015079
REMARK  6 active torsions:
REMARK  status: ('A' for Active; 'I' for Inactive)
REMARK    1  A    between atoms: C_5  and  C_7
REMARK    2  A    between atoms: N_8  and  N_9
REMARK    3  A    between atoms: C_12  and  S_15
REMARK    4  A    between atoms: S_15  and  C_16
REMARK    5  A    between atoms: C_16  and  C_17
REMARK    6  A    between atoms: N_19  and  C_20
REMARK                            x       y       z     vdW  Elec       q    Type
REMARK                         _______ _______ _______ _____ _____    ______ ____
ROOT
ATOM      1  N   UNL     1       2.414  -4.185  -0.045  0.00  0.00    -0.205 N 
ATOM      2  C   UNL     1       3.624  -4.854  -0.061  0.00  0.00    +0.232 A 
ATOM      3  N   UNL     1       4.817  -4.296  -0.063  0.00  0.00    -0.186 NA
ATOM      4  C   UNL     1       5.758  -5.245  -0.079  0.00  0.00    +0.211 A 
ATOM      5  N   UNL     1       5.177  -6.421  -0.087  0.00  0.00    -0.144 NA
ATOM      6  N   UNL     1       3.791  -6.193  -0.070  0.00  0.00    -0.245 N 
ATOM      7  H   UNL     1       1.583  -4.686  -0.040  0.00  0.00    +0.177 HD
ATOM      8  H   UNL     1       3.092  -6.866  -0.067  0.00  0.00    +0.192 HD
ENDROOT
BRANCH   1  10
ATOM      9  C   UNL     1       1.251  -2.157  -0.022  0.00  0.00    +0.139 C 
ATOM     10  N   UNL     1       2.387  -2.785  -0.037  0.00  0.00    -0.188 NA
BRANCH   9  15
ATOM     11  C   UNL     1      -0.017   1.375   0.010  0.00  0.00    +0.001 A 
ATOM     12  C   UNL     1       1.170   2.087   0.002  0.00  0.00    +0.001 A 
ATOM     13  C   UNL     1       2.383   1.423  -0.013  0.00  0.00    +0.020 A 
ATOM     14  C   UNL     1       2.418   0.042  -0.021  0.00  0.00    +0.050 A 
ATOM     15  C   UNL     1       1.223  -0.683  -0.013  0.00  0.00    +0.013 A 
ATOM     16  C   UNL     1       0.002  -0.004   0.002  0.00  0.00    +0.011 A 
ATOM     17 CL   UNL     1       3.941  -0.790  -0.041  0.00  0.00    -0.083 Cl
ENDBRANCH   9  15
ENDBRANCH   1  10
BRANCH   4  18
ATOM     18  S   UNL     1       7.497  -4.963  -0.088  0.00  0.00    -0.075 S 
BRANCH  18  19
ATOM     19  C   UNL     1       8.212  -6.630  -0.110  0.00  0.00    +0.173 C 
BRANCH  19  20
ATOM     20  C   UNL     1       9.716  -6.532  -0.119  0.00  0.00    +0.224 C 
ATOM     21  O   UNL     1      10.253  -5.444  -0.112  0.00  0.00    -0.275 OA
ATOM     22  N   UNL     1      10.465  -7.652  -0.135  0.00  0.00    -0.311 N 
ATOM     23  H   UNL     1      10.036  -8.522  -0.141  0.00  0.00    +0.149 HD
BRANCH  22  24
ATOM     24  C   UNL     1      11.927  -7.557  -0.144  0.00  0.00    +0.079 C 
ATOM     25  C   UNL     1      12.417  -7.384  -1.583  0.00  0.00    +0.010 C 
ATOM     26  C   UNL     1      13.944  -7.284  -1.593  0.00  0.00    +0.009 C 
ATOM     27  C   UNL     1      14.542  -8.561  -1.000  0.00  0.00    -0.010 C 
ATOM     28  C   UNL     1      14.105  -9.765  -1.836  0.00  0.00    +0.007 C 
ATOM     29  C   UNL     1      12.578  -9.865  -1.827  0.00  0.00    -0.010 C 
ATOM     30  C   UNL     1      11.980  -8.588  -2.419  0.00  0.00    +0.009 C 
ATOM     31  C   UNL     1      12.087 -10.038  -0.388  0.00  0.00    +0.009 C 
ATOM     32  C   UNL     1      12.525  -8.834   0.449  0.00  0.00    +0.010 C 
ATOM     33  C   UNL     1      14.052  -8.734   0.439  0.00  0.00    +0.009 C 
ENDBRANCH  22  24
ENDBRANCH  19  20
ENDBRANCH  18  19
ENDBRANCH   4  18
TORSDOF 6
