REMARK  Name = ZINC01106926
REMARK  6 active torsions:
REMARK  status: ('A' for Active; 'I' for Inactive)
REMARK    1  A    between atoms: C_6  and  C_7
REMARK    2  A    between atoms: C_7  and  O_8
REMARK    3  A    between atoms: O_8  and  C_9
REMARK    4  A    between atoms: C_12  and  C_15
REMARK    5  A    between atoms: C_24  and  N_28
REMARK    6  A    between atoms: C_25  and  C_26
REMARK                            x       y       z     vdW  Elec       q    Type
REMARK                         _______ _______ _______ _____ _____    ______ ____
ROOT
ATOM      1  C   UNL     1      -3.700   1.604   0.027  0.00  0.00    +0.098 C 
ATOM      2  C   UNL     1      -3.551   3.043   0.445  0.00  0.00    +0.011 A 
ATOM      3  C   UNL     1      -4.668   3.751   0.854  0.00  0.00    +0.057 A 
ATOM      4  C   UNL     1      -4.551   5.075   1.242  0.00  0.00    +0.167 A 
ATOM      5  C   UNL     1      -3.304   5.696   1.221  0.00  0.00    +0.170 A 
ATOM      6  C   UNL     1      -2.188   4.986   0.811  0.00  0.00    +0.096 A 
ATOM      7  C   UNL     1      -2.310   3.658   0.422  0.00  0.00    +0.138 A 
ATOM      8  O   UNL     1      -1.204   2.979   0.029  0.00  0.00    -0.441 OA
ATOM      9  C   UNL     1      -1.209   1.636   0.017  0.00  0.00    +0.199 C 
ATOM     10  C   UNL     1      -2.361   0.923   0.018  0.00  0.00    +0.098 C 
ATOM     11  O   UNL     1      -3.451   6.985   1.644  0.00  0.00    -0.452 OA
ATOM     12  C   UNL     1      -4.726   7.027   2.312  0.00  0.00    +0.466 C 
ATOM     13  O   UNL     1      -5.479   5.976   1.679  0.00  0.00    -0.453 OA
ENDROOT
BRANCH   1  17
ATOM     14  C   UNL     1      -5.398   1.438  -3.892  0.00  0.00    +0.121 A 
ATOM     15  C   UNL     1      -6.063   0.858  -2.821  0.00  0.00    +0.046 A 
ATOM     16  C   UNL     1      -5.512   0.913  -1.556  0.00  0.00    +0.008 A 
ATOM     17  C   UNL     1      -4.299   1.545  -1.355  0.00  0.00    -0.034 A 
ATOM     18  C   UNL     1      -3.637   2.129  -2.419  0.00  0.00    +0.008 A 
ATOM     19  C   UNL     1      -4.180   2.072  -3.688  0.00  0.00    +0.046 A 
BRANCH  14  20
ATOM     20  O   UNL     1      -5.938   1.386  -5.138  0.00  0.00    -0.487 OA
BRANCH  20  21
ATOM     21  C   UNL     1      -5.197   2.004  -6.192  0.00  0.00    +0.264 C 
BRANCH  21  27
ATOM     22  C   UNL     1      -5.714   0.746  -8.293  0.00  0.00    +0.010 A 
ATOM     23  C   UNL     1      -6.403   0.598  -9.481  0.00  0.00    +0.039 A 
ATOM     24  C   UNL     1      -7.319   1.559  -9.874  0.00  0.00    +0.123 A 
ATOM     25  C   UNL     1      -7.547   2.665  -9.072  0.00  0.00    +0.039 A 
ATOM     26  C   UNL     1      -6.860   2.808  -7.881  0.00  0.00    +0.010 A 
ATOM     27  C   UNL     1      -5.946   1.847  -7.490  0.00  0.00    -0.010 A 
ATOM     28  F   UNL     1      -7.990   1.418 -11.038  0.00  0.00    -0.205 F 
ENDBRANCH  21  27
ENDBRANCH  20  21
ENDBRANCH  14  20
ENDBRANCH   1  17
BRANCH   9  29
ATOM     29  N   UNL     1      -0.011   0.966   0.007  0.00  0.00    -0.328 N 
ATOM     30  H   UNL     1       0.002  -0.004   0.002  0.00  0.00    +0.145 HD
ATOM     31  H   UNL     1       0.822   1.462   0.002  0.00  0.00    +0.145 HD
ENDBRANCH   9  29
BRANCH  10  32
ATOM     32  C   UNL     1      -2.300  -0.507   0.011  0.00  0.00    +0.101 C 
ATOM     33  N   UNL     1      -2.253  -1.642   0.006  0.00  0.00    -0.191 NA
ENDBRANCH  10  32
TORSDOF 6
