REMARK  Name = ZINC63383757
REMARK  6 active torsions:
REMARK  status: ('A' for Active; 'I' for Inactive)
REMARK    1  A    between atoms: C_1  and  C_2
REMARK    2  A    between atoms: C_2  and  O_3
REMARK    3  A    between atoms: O_3  and  C_4
REMARK    4  A    between atoms: C_9  and  N_10
REMARK    5  A    between atoms: C_13  and  C_20
REMARK    6  A    between atoms: N_34  and  C_35
REMARK                            x       y       z     vdW  Elec       q    Type
REMARK                         _______ _______ _______ _____ _____    ______ ____
ROOT
ATOM      1  N   UNL     1       1.953  -1.466  -3.425  0.00  0.00    -0.225 N 
ATOM      2  C   UNL     1       3.229  -1.048  -3.314  0.00  0.00    +0.270 A 
ATOM      3  O   UNL     1       3.917  -1.418  -2.377  0.00  0.00    -0.267 OA
ATOM      4  C   UNL     1       3.763  -0.182  -4.284  0.00  0.00    +0.101 A 
ATOM      5  H   UNL     1       1.114   0.049  -6.133  0.00  0.00    +0.173 HD
ATOM      6  C   UNL     1       2.973   0.217  -5.322  0.00  0.00    +0.263 A 
ATOM      7  N   UNL     1       1.679  -0.233  -5.397  0.00  0.00    -0.274 N 
ATOM      8  C   UNL     1       1.192  -1.065  -4.460  0.00  0.00    +0.337 A 
ATOM      9  O   UNL     1       0.044  -1.458  -4.546  0.00  0.00    -0.246 OA
ATOM     10  O   UNL     1       3.461   1.048  -6.267  0.00  0.00    -0.267 OA
ENDROOT
BRANCH   4  11
ATOM     11  C   UNL     1       5.187   0.299  -4.179  0.00  0.00    +0.124 C 
ATOM     12  C   UNL     1       6.144  -0.888  -4.316  0.00  0.00    +0.128 C 
ATOM     13  C   UNL     1       7.539  -0.346  -4.029  0.00  0.00    -0.035 C 
ATOM     14  C   UNL     1       8.292  -0.680  -5.067  0.00  0.00    -0.001 A 
ATOM     15  C   UNL     1       9.731  -0.513  -5.331  0.00  0.00    +0.010 A 
ATOM     16  C   UNL     1      10.177  -0.969  -6.532  0.00  0.00    +0.001 A 
ATOM     17  C   UNL     1       9.346  -1.566  -7.485  0.00  0.00    +0.002 A 
ATOM     18  C   UNL     1       8.014  -1.765  -7.324  0.00  0.00    +0.026 A 
ATOM     19  C   UNL     1       7.429  -1.333  -6.099  0.00  0.00    +0.043 A 
ATOM     20  N   UNL     1       6.183  -1.426  -5.675  0.00  0.00    -0.376 N 
ATOM     21  C   UNL     1       7.830   0.483  -2.801  0.00  0.00    +0.049 C 
ATOM     22  C   UNL     1       6.722   1.550  -2.732  0.00  0.00    +0.089 C 
ATOM     23  N   UNL     1       5.405   0.921  -2.864  0.00  0.00    -0.296 NA
ATOM     24  C   UNL     1       4.332   1.873  -2.547  0.00  0.00    +0.105 C 
ATOM     25  H   UNL     1       5.426  -1.780  -6.167  0.00  0.00    +0.160 HD
ENDBRANCH   4  11
BRANCH   1  31
ATOM     26  C   UNL     1       0.777  -1.811  -1.336  0.00  0.00    +0.144 A 
ATOM     27  C   UNL     1       0.244  -2.669  -0.388  0.00  0.00    +0.048 A 
ATOM     28  C   UNL     1       0.352  -4.037  -0.554  0.00  0.00    +0.004 A 
ATOM     29  C   UNL     1       0.993  -4.553  -1.666  0.00  0.00    +0.002 A 
ATOM     30  C   UNL     1       1.527  -3.704  -2.616  0.00  0.00    +0.030 A 
ATOM     31  C   UNL     1       1.416  -2.330  -2.459  0.00  0.00    +0.096 A 
BRANCH  26  32
ATOM     32  O   UNL     1       0.671  -0.465  -1.174  0.00  0.00    -0.490 OA
BRANCH  32  34
ATOM     33  C   UNL     1      -0.019   1.526   0.010  0.00  0.00    +0.048 C 
ATOM     34  C   UNL     1       0.002  -0.004   0.002  0.00  0.00    +0.226 C 
ENDBRANCH  32  34
ENDBRANCH  26  32
ENDBRANCH   1  31
TORSDOF 4
