REMARK  Name = ZINC39595755
REMARK  11 active torsions:
REMARK  status: ('A' for Active; 'I' for Inactive)
REMARK    1  A    between atoms: C_1  and  C_2
REMARK    2  A    between atoms: C_2  and  C_4
REMARK    3  A    between atoms: C_2  and  O_31
REMARK    4  A    between atoms: C_4  and  N_5
REMARK    5  A    between atoms: C_6  and  C_8
REMARK    6  A    between atoms: C_19  and  C_21
REMARK    7  A    between atoms: C_24  and  O_29
REMARK    8  A    between atoms: C_26  and  O_27
REMARK    9  A    between atoms: O_27  and  C_28
REMARK   10  A    between atoms: O_29  and  C_30
REMARK   11  A    between atoms: O_31  and  C_32
REMARK                            x       y       z     vdW  Elec       q    Type
REMARK                         _______ _______ _______ _____ _____    ______ ____
ROOT
ATOM      1  C   UNL     1      -3.565  -3.714   0.429  0.00  0.00    +0.100 C 
ATOM      2  C   UNL     1      -2.986  -4.441   1.663  0.00  0.00    +0.121 C 
ATOM      3  N   UNL     1      -4.135  -4.585   2.587  0.00  0.00    -0.296 N 
ATOM      4  C   UNL     1      -5.280  -4.910   1.704  0.00  0.00    +0.115 C 
ATOM      5  C   UNL     1      -5.071  -4.027   0.457  0.00  0.00    -0.004 C 
ATOM      6  C   UNL     1      -5.476  -4.787  -0.802  0.00  0.00    -0.010 C 
ATOM      7  C   UNL     1      -6.987  -5.036  -0.779  0.00  0.00    -0.082 C 
ATOM      8  N   UNL     1      -7.695  -3.752  -0.709  0.00  0.00    +0.379 N 
ATOM      9  C   UNL     1      -7.371  -3.070   0.550  0.00  0.00    -0.082 C 
ATOM     10  C   UNL     1      -5.877  -2.738   0.583  0.00  0.00    -0.010 C 
ATOM     11  C   UNL     1      -4.139  -4.451   3.929  0.00  0.00    +0.250 C 
ATOM     12  O   UNL     1      -3.130  -4.094   4.507  0.00  0.00    -0.270 OA
ATOM     13  H   UNL     1      -7.415  -3.172  -1.486  0.00  0.00    -0.086 HD
ATOM     14  H   UNL     1      -8.690  -3.915  -0.755  0.00  0.00    -0.086 HD
ENDROOT
BRANCH  11  15
ATOM     15  C   UNL     1      -5.365  -4.736   4.694  0.00  0.00    +0.079 A 
ATOM     16  C   UNL     1      -6.224  -5.762   4.287  0.00  0.00    +0.020 A 
ATOM     17  C   UNL     1      -7.367  -6.026   5.004  0.00  0.00    +0.046 A 
ATOM     18  C   UNL     1      -7.674  -5.275   6.136  0.00  0.00    +0.124 A 
ATOM     19  C   UNL     1      -6.829  -4.255   6.548  0.00  0.00    +0.092 A 
ATOM     20  C   UNL     1      -5.672  -3.984   5.838  0.00  0.00    +0.136 A 
BRANCH  20  21
ATOM     21  O   UNL     1      -4.842  -2.991   6.242  0.00  0.00    -0.494 OA
ATOM     22  C   UNL     1      -5.219  -2.267   7.416  0.00  0.00    +0.277 C 
ENDBRANCH  20  21
BRANCH  18  23
ATOM     23  O   UNL     1      -8.804  -5.542   6.838  0.00  0.00    -0.495 OA
ATOM     24  C   UNL     1      -9.630  -6.605   6.358  0.00  0.00    +0.277 C 
ENDBRANCH  18  23
ENDBRANCH  11  15
BRANCH   1  26
ATOM     25  N   UNL     1      -3.332  -1.463  -0.569  0.00  0.00    -0.312 N 
ATOM     26  C   UNL     1      -3.337  -2.229   0.540  0.00  0.00    +0.218 C 
ATOM     27  O   UNL     1      -3.156  -1.722   1.627  0.00  0.00    -0.275 OA
ATOM     28  H   UNL     1      -3.476  -1.868  -1.438  0.00  0.00    +0.149 HD
BRANCH  25  29
ATOM     29  C   UNL     1      -3.110  -0.019  -0.461  0.00  0.00    +0.148 C 
BRANCH  29  31
ATOM     30  C   UNL     1      -2.798   2.094  -1.757  0.00  0.00    +0.053 C 
ATOM     31  C   UNL     1      -3.153   0.609  -1.856  0.00  0.00    +0.187 C 
BRANCH  31  32
ATOM     32  O   UNL     1      -4.466   0.469  -2.401  0.00  0.00    -0.488 OA
BRANCH  32  33
ATOM     33  C   UNL     1      -4.579   0.500  -3.755  0.00  0.00    +0.121 A 
ATOM     34  C   UNL     1      -3.444   0.610  -4.544  0.00  0.00    +0.048 A 
ATOM     35  C   UNL     1      -3.560   0.642  -5.920  0.00  0.00    +0.042 A 
ATOM     36  C   UNL     1      -4.809   0.565  -6.512  0.00  0.00    +0.124 A 
ATOM     37  C   UNL     1      -5.944   0.456  -5.726  0.00  0.00    +0.042 A 
ATOM     38  C   UNL     1      -5.830   0.417  -4.349  0.00  0.00    +0.048 A 
ATOM     39  F   UNL     1      -4.921   0.597  -7.858  0.00  0.00    -0.205 F 
ENDBRANCH  32  33
ENDBRANCH  31  32
ENDBRANCH  29  31
ENDBRANCH  25  29
ENDBRANCH   1  26
TORSDOF 8
