REMARK  Name = ZINC00822771
REMARK  10 active torsions:
REMARK  status: ('A' for Active; 'I' for Inactive)
REMARK    1  A    between atoms: C_1  and  C_2
REMARK    2  A    between atoms: C_2  and  O_3
REMARK    3  A    between atoms: O_3  and  C_4
REMARK    4  A    between atoms: C_6  and  C_11
REMARK    5  A    between atoms: C_9  and  O_10
REMARK    6  A    between atoms: C_16  and  C_21
REMARK    7  A    between atoms: C_28  and  C_39
REMARK    8  A    between atoms: C_29  and  C_30
REMARK    9  A    between atoms: C_30  and  O_32
REMARK   10  A    between atoms: O_32  and  C_33
REMARK                            x       y       z     vdW  Elec       q    Type
REMARK                         _______ _______ _______ _____ _____    ______ ____
ROOT
ATOM      1  C   UNL     1      -0.045   3.651   0.859  0.00  0.00    +0.092 C 
ATOM      2  C   UNL     1       1.208   2.950   0.396  0.00  0.00    +0.024 C 
ATOM      3  C   UNL     1       1.169   1.660  -0.000  0.00  0.00    +0.016 C 
ATOM      4  C   UNL     1       2.418   0.952  -0.465  0.00  0.00    +0.059 C 
ATOM      5  C   UNL     1       3.635   1.530   0.261  0.00  0.00    +0.032 C 
ATOM      6  C   UNL     1       3.706   3.033  -0.030  0.00  0.00    +0.088 C 
ATOM      7  C   UNL     1       2.413   3.674   0.394  0.00  0.00    +0.162 C 
ATOM      8  O   UNL     1       2.410   4.839   0.740  0.00  0.00    -0.292 OA
ATOM      9  N   UNL     1      -0.011   0.966   0.007  0.00  0.00    -0.321 N 
ATOM     10  C   UNL     1      -1.208   1.627   0.017  0.00  0.00    +0.016 C 
ATOM     11  C   UNL     1      -1.272   2.910   0.417  0.00  0.00    +0.065 C 
ATOM     12  C   UNL     1      -2.461   0.912  -0.419  0.00  0.00    +0.061 C 
ATOM     13  H   UNL     1      -0.002  -0.134   0.006  0.00  0.00    +0.152 HD
ENDROOT
BRANCH   1  16
ATOM     14  C   UNL     1      -0.059   5.056   4.366  0.00  0.00    +0.162 A 
ATOM     15  C   UNL     1      -0.063   4.974   2.983  0.00  0.00    +0.054 A 
ATOM     16  C   UNL     1      -0.035   3.739   2.364  0.00  0.00    -0.032 A 
ATOM     17  C   UNL     1       0.007   2.583   3.122  0.00  0.00    +0.008 A 
ATOM     18  C   UNL     1       0.017   2.658   4.502  0.00  0.00    +0.049 A 
ATOM     19  C   UNL     1      -0.016   3.893   5.129  0.00  0.00    +0.158 A 
BRANCH  19  20
ATOM     20  O   UNL     1      -0.007   3.969   6.487  0.00  0.00    -0.503 OA
ATOM     21  H   UNL     1       0.027   3.049   7.089  0.00  0.00    +0.292 HD
ENDBRANCH  19  20
BRANCH  14  22
ATOM     22  O   UNL     1      -0.091   6.271   4.977  0.00  0.00    -0.489 OA
BRANCH  22  24
ATOM     23  C   UNL     1      -0.166   8.687   4.991  0.00  0.00    +0.048 C 
ATOM     24  C   UNL     1      -0.134   7.422   4.130  0.00  0.00    +0.226 C 
ENDBRANCH  22  24
ENDBRANCH  14  22
ENDBRANCH   1  16
BRANCH   5  25
ATOM     25  C   UNL     1       4.888   0.858  -0.240  0.00  0.00    -0.044 A 
ATOM     26  C   UNL     1       5.215   0.917  -1.581  0.00  0.00    +0.004 A 
ATOM     27  C   UNL     1       6.367   0.304  -2.039  0.00  0.00    +0.000 A 
ATOM     28  C   UNL     1       7.186  -0.375  -1.157  0.00  0.00    +0.000 A 
ATOM     29  C   UNL     1       6.857  -0.438   0.184  0.00  0.00    +0.000 A 
ATOM     30  C   UNL     1       5.707   0.178   0.642  0.00  0.00    +0.004 A 
ENDBRANCH   5  25
BRANCH  11  31
ATOM     31  C   UNL     1      -2.521   3.574   0.415  0.00  0.00    +0.338 C 
ATOM     32  O   UNL     1      -3.523   2.984   0.059  0.00  0.00    -0.245 OA
BRANCH  31  33
ATOM     33  O   UNL     1      -2.600   4.862   0.809  0.00  0.00    -0.458 OA
BRANCH  33  34
ATOM     34  C   UNL     1      -3.893   5.471   0.783  0.00  0.00    +0.177 C 
ATOM     35  C   UNL     1      -4.124   6.117  -0.585  0.00  0.00    +0.044 C 
ATOM     36  C   UNL     1      -5.508   6.768  -0.613  0.00  0.00    +0.004 C 
ATOM     37  C   UNL     1      -5.592   7.838   0.478  0.00  0.00    +0.000 C 
ATOM     38  C   UNL     1      -5.360   7.191   1.845  0.00  0.00    +0.004 C 
ATOM     39  C   UNL     1      -3.976   6.540   1.873  0.00  0.00    +0.044 C 
ENDBRANCH  33  34
ENDBRANCH  31  33
ENDBRANCH  11  31
TORSDOF 8
