REMARK  Name = ZINC39671710
REMARK  14 active torsions:
REMARK  status: ('A' for Active; 'I' for Inactive)
REMARK    1  A    between atoms: C_1  and  C_2
REMARK    2  A    between atoms: C_4  and  C_38
REMARK    3  A    between atoms: N_5  and  C_7
REMARK    4  A    between atoms: C_7  and  C_8
REMARK    5  A    between atoms: C_8  and  C_9
REMARK    6  A    between atoms: C_9  and  N_10
REMARK    7  A    between atoms: C_11  and  C_13
REMARK    8  A    between atoms: C_24  and  C_26
REMARK    9  A    between atoms: C_28  and  O_36
REMARK   10  A    between atoms: C_29  and  O_34
REMARK   11  A    between atoms: C_30  and  O_32
REMARK   12  A    between atoms: O_32  and  C_33
REMARK   13  A    between atoms: O_34  and  C_35
REMARK   14  A    between atoms: O_36  and  C_37
REMARK                            x       y       z     vdW  Elec       q    Type
REMARK                         _______ _______ _______ _____ _____    ______ ____
ROOT
ATOM      1  C   UNL     1       4.242  -7.115   3.562  0.00  0.00    +0.100 C 
ATOM      2  C   UNL     1       5.213  -7.451   2.409  0.00  0.00    +0.121 C 
ATOM      3  N   UNL     1       6.087  -8.517   2.954  0.00  0.00    -0.296 N 
ATOM      4  C   UNL     1       5.173  -9.372   3.748  0.00  0.00    +0.115 C 
ATOM      5  C   UNL     1       4.217  -8.379   4.438  0.00  0.00    -0.004 C 
ATOM      6  C   UNL     1       2.806  -8.957   4.493  0.00  0.00    -0.010 C 
ATOM      7  C   UNL     1       2.795 -10.178   5.417  0.00  0.00    -0.082 C 
ATOM      8  N   UNL     1       3.236  -9.783   6.760  0.00  0.00    +0.379 N 
ATOM      9  C   UNL     1       4.626  -9.315   6.713  0.00  0.00    -0.082 C 
ATOM     10  C   UNL     1       4.715  -8.057   5.844  0.00  0.00    -0.010 C 
ATOM     11  C   UNL     1       7.412  -8.674   2.768  0.00  0.00    +0.247 C 
ATOM     12  O   UNL     1       8.052  -7.814   2.193  0.00  0.00    -0.270 OA
ATOM     13  H   UNL     1       2.644  -9.040   7.101  0.00  0.00    -0.086 HD
ATOM     14  H   UNL     1       3.169 -10.575   7.381  0.00  0.00    -0.086 HD
ENDROOT
BRANCH  11  15
ATOM     15  C   UNL     1       8.088  -9.888   3.265  0.00  0.00    +0.044 A 
ATOM     16  C   UNL     1       7.349 -11.046   3.519  0.00  0.00    +0.062 A 
ATOM     17  C   UNL     1       7.984 -12.183   3.983  0.00  0.00    +0.166 A 
ATOM     18  C   UNL     1       9.360 -12.174   4.198  0.00  0.00    +0.204 A 
ATOM     19  C   UNL     1      10.099 -11.021   3.946  0.00  0.00    +0.166 A 
ATOM     20  C   UNL     1       9.469  -9.884   3.475  0.00  0.00    +0.062 A 
BRANCH  19  21
ATOM     21  O   UNL     1      11.443 -11.016   4.157  0.00  0.00    -0.491 OA
ATOM     22  C   UNL     1      12.139  -9.800   3.877  0.00  0.00    +0.277 C 
ENDBRANCH  19  21
BRANCH  18  23
ATOM     23  O   UNL     1       9.982 -13.292   4.655  0.00  0.00    -0.488 OA
ATOM     24  C   UNL     1      10.469 -14.211   3.674  0.00  0.00    +0.277 C 
ENDBRANCH  18  23
BRANCH  17  25
ATOM     25  O   UNL     1       7.265 -13.310   4.231  0.00  0.00    -0.491 OA
ATOM     26  C   UNL     1       5.858 -13.248   3.989  0.00  0.00    +0.277 C 
ENDBRANCH  17  25
ENDBRANCH  11  15
BRANCH   1  28
ATOM     27  N   UNL     1       2.053  -5.968   3.671  0.00  0.00    -0.315 N 
ATOM     28  C   UNL     1       2.865  -6.825   3.021  0.00  0.00    +0.218 C 
ATOM     29  O   UNL     1       2.489  -7.362   2.001  0.00  0.00    -0.275 OA
ATOM     30  H   UNL     1       2.353  -5.539   4.487  0.00  0.00    +0.149 HD
BRANCH  27  31
ATOM     31  C   UNL     1       0.715  -5.686   3.145  0.00  0.00    +0.106 C 
BRANCH  31  32
ATOM     32  C   UNL     1       0.005  -4.690   4.064  0.00  0.00    +0.042 C 
BRANCH  32  33
ATOM     33  C   UNL     1      -1.392  -4.396   3.515  0.00  0.00    +0.145 C 
BRANCH  33  38
ATOM     34  C   UNL     1      -4.197  -2.535   7.239  0.00  0.00    +0.067 C 
ATOM     35  C   UNL     1      -3.304  -2.650   6.031  0.00  0.00    +0.060 A 
ATOM     36  C   UNL     1      -2.789  -1.583   5.287  0.00  0.00    +0.047 A 
ATOM     37  C   UNL     1      -2.036  -2.097   4.287  0.00  0.00    +0.036 A 
ATOM     38  N   UNL     1      -2.072  -3.442   4.395  0.00  0.00    -0.268 N 
ATOM     39  N   UNL     1      -2.870  -3.764   5.500  0.00  0.00    -0.176 NA
ATOM     40  C   UNL     1      -1.290  -1.309   3.241  0.00  0.00    +0.065 C 
ENDBRANCH  33  38
ENDBRANCH  32  33
ENDBRANCH  31  32
ENDBRANCH  27  31
ENDBRANCH   1  28
TORSDOF 9
