REMARK  Name = ZINC59385605
REMARK  7 active torsions:
REMARK  status: ('A' for Active; 'I' for Inactive)
REMARK    1  A    between atoms: C_1  and  C_2
REMARK    2  A    between atoms: C_3  and  C_18
REMARK    3  A    between atoms: C_4  and  C_10
REMARK    4  A    between atoms: C_13  and  O_16
REMARK    5  A    between atoms: O_16  and  C_17
REMARK    6  A    between atoms: N_20  and  N_21
REMARK    7  A    between atoms: C_22  and  C_23
REMARK                            x       y       z     vdW  Elec       q    Type
REMARK                         _______ _______ _______ _____ _____    ______ ____
ROOT
ATOM      1  C   UNL     1      -0.039   1.491   0.091  0.00  0.00    +0.061 C 
ATOM      2  C   UNL     1      -0.009  -0.015   0.030  0.00  0.00    +0.019 C 
ATOM      3  C   UNL     1      -1.170  -0.703   0.033  0.00  0.00    +0.057 C 
ATOM      4  C   UNL     1      -1.094  -2.215  -0.030  0.00  0.00    +0.142 C 
ATOM      5  N   UNL     1       0.250  -2.814  -0.090  0.00  0.00    -0.288 N 
ATOM      6  C   UNL     1       1.319  -1.993  -0.086  0.00  0.00    +0.304 C 
ATOM      7  O   UNL     1       2.433  -2.478  -0.135  0.00  0.00    -0.252 OA
ATOM      8  N   UNL     1       1.194  -0.661  -0.034  0.00  0.00    -0.273 N 
ATOM      9  H   UNL     1       0.363  -3.776  -0.132  0.00  0.00    +0.151 HD
ATOM     10  H   UNL     1       2.002  -0.124  -0.038  0.00  0.00    +0.156 HD
ENDROOT
BRANCH   4  11
ATOM     11  C   UNL     1      -1.793  -2.766   1.185  0.00  0.00    -0.022 A 
ATOM     12  C   UNL     1      -1.186  -2.689   2.425  0.00  0.00    +0.009 A 
ATOM     13  C   UNL     1      -1.825  -3.194   3.541  0.00  0.00    +0.046 A 
ATOM     14  C   UNL     1      -3.077  -3.778   3.417  0.00  0.00    +0.120 A 
ATOM     15  C   UNL     1      -3.685  -3.853   2.172  0.00  0.00    +0.046 A 
ATOM     16  C   UNL     1      -3.044  -3.342   1.060  0.00  0.00    +0.009 A 
BRANCH  14  17
ATOM     17  O   UNL     1      -3.708  -4.276   4.513  0.00  0.00    -0.495 OA
ATOM     18  C   UNL     1      -4.995  -4.863   4.311  0.00  0.00    +0.277 C 
ENDBRANCH  14  17
ENDBRANCH   4  11
BRANCH   3  19
ATOM     19  C   UNL     1      -2.417  -0.034   0.094  0.00  0.00    +0.263 C 
ATOM     20  O   UNL     1      -3.077   0.116  -0.919  0.00  0.00    -0.269 OA
ATOM     21  N   UNL     1      -2.873   0.436   1.272  0.00  0.00    -0.203 N 
ATOM     22  H   UNL     1      -2.315   0.383   2.063  0.00  0.00    +0.178 HD
BRANCH  21  23
ATOM     23  N   UNL     1      -4.152   1.001   1.352  0.00  0.00    -0.187 NA
ATOM     24  C   UNL     1      -4.592   1.453   2.487  0.00  0.00    +0.138 C 
BRANCH  24  25
ATOM     25  C   UNL     1      -5.938   2.048   2.572  0.00  0.00    -0.004 A 
ATOM     26  C   UNL     1      -6.746   2.121   1.434  0.00  0.00    +0.009 A 
ATOM     27  C   UNL     1      -8.005   2.678   1.520  0.00  0.00    +0.002 A 
ATOM     28  C   UNL     1      -8.469   3.165   2.730  0.00  0.00    +0.015 A 
ATOM     29  C   UNL     1      -7.674   3.097   3.861  0.00  0.00    +0.018 A 
ATOM     30  C   UNL     1      -6.414   2.536   3.791  0.00  0.00    +0.024 A 
ATOM     31 BR   UNL     1      -8.317   3.766   5.509  0.00  0.00    -0.050 Br
ENDBRANCH  24  25
ENDBRANCH  21  23
ENDBRANCH   3  19
TORSDOF 5
