REMARK  Name = ZINC42782233
REMARK  11 active torsions:
REMARK  status: ('A' for Active; 'I' for Inactive)
REMARK    1  A    between atoms: C_1  and  C_2
REMARK    2  A    between atoms: C_2  and  C_4
REMARK    3  A    between atoms: C_2  and  N_8
REMARK    4  A    between atoms: C_4  and  C_5
REMARK    5  A    between atoms: C_4  and  C_6
REMARK    6  A    between atoms: C_4  and  C_7
REMARK    7  A    between atoms: N_8  and  C_9
REMARK    8  A    between atoms: N_8  and  S_10
REMARK    9  A    between atoms: S_10  and  C_13
REMARK   10  A    between atoms: C_18  and  N_19
REMARK   11  A    between atoms: N_19  and  N_20
REMARK                            x       y       z     vdW  Elec       q    Type
REMARK                         _______ _______ _______ _____ _____    ______ ____
ROOT
ATOM      1  C   UNL     1       2.401   0.287   1.856  0.00  0.00    +0.147 A 
ATOM      2  C   UNL     1       3.091   0.129   3.045  0.00  0.00    +0.048 A 
ATOM      3  C   UNL     1       4.085   1.046   3.361  0.00  0.00    +0.038 A 
ATOM      4  C   UNL     1       4.354   2.081   2.486  0.00  0.00    +0.128 A 
ATOM      5  N   UNL     1       3.679   2.207   1.360  0.00  0.00    -0.236 NA
ATOM      6  C   UNL     1       2.728   1.350   1.020  0.00  0.00    +0.159 A 
ATOM      7 BR   UNL     1       5.061   0.879   4.972  0.00  0.00    -0.049 Br
ENDROOT
BRANCH   1   8
ATOM      8  S   UNL     1       1.130  -0.846   1.404  0.00  0.00    +0.064 S 
ATOM      9  O   UNL     1       1.060  -1.814   2.442  0.00  0.00    -0.153 OA
ATOM     10  O   UNL     1       1.364  -1.199   0.048  0.00  0.00    -0.153 OA
BRANCH   8  11
ATOM     11  N   UNL     1      -0.302  -0.014   1.436  0.00  0.00    -0.176 NA
ATOM     12  C   UNL     1      -0.989   0.213   2.710  0.00  0.00    +0.132 C 
BRANCH  11  14
ATOM     13  C   UNL     1      -1.144   1.997   0.327  0.00  0.00    +0.026 C 
ATOM     14  C   UNL     1      -0.881   0.496   0.191  0.00  0.00    +0.082 C 
BRANCH  14  15
ATOM     15  C   UNL     1      -2.198  -0.229  -0.093  0.00  0.00    -0.021 C 
ATOM     16  C   UNL     1      -2.726   0.192  -1.466  0.00  0.00    +0.012 C 
ATOM     17  C   UNL     1      -1.963  -1.740  -0.078  0.00  0.00    +0.012 C 
ATOM     18  C   UNL     1      -3.224   0.138   0.981  0.00  0.00    +0.012 C 
ENDBRANCH  14  15
ENDBRANCH  11  14
ENDBRANCH   8  11
ENDBRANCH   1   8
BRANCH   6  19
ATOM     19  N   UNL     1       2.047   1.517  -0.180  0.00  0.00    -0.266 N 
ATOM     20  H   UNL     1       1.328   0.910  -0.419  0.00  0.00    +0.167 HD
BRANCH  19  21
ATOM     21  N   UNL     1       2.389   2.535  -1.024  0.00  0.00    -0.255 NA
ATOM     22  H   UNL     1       1.810   2.530  -1.850  0.00  0.00    +0.140 HD
ATOM     23  H   UNL     1       2.339   3.427  -0.553  0.00  0.00    +0.140 HD
ENDBRANCH  19  21
ENDBRANCH   6  19
TORSDOF 6
