REMARK  Name = ZINC09253444
REMARK  5 active torsions:
REMARK  status: ('A' for Active; 'I' for Inactive)
REMARK    1  A    between atoms: C_1  and  C_2
REMARK    2  A    between atoms: N_10  and  N_14
REMARK    3  A    between atoms: C_15  and  C_17
REMARK    4  A    between atoms: C_17  and  N_65
REMARK    5  A    between atoms: C_21  and  C_23
REMARK                            x       y       z     vdW  Elec       q    Type
REMARK                         _______ _______ _______ _____ _____    ______ ____
ROOT
ATOM      1  N   UNL     1       0.002  -0.004   0.002  0.00  0.00    -0.225 N 
ATOM      2  C   UNL     1       0.324  -0.680   1.123  0.00  0.00    +0.213 C 
ATOM      3  O   UNL     1       0.596  -0.075   2.138  0.00  0.00    -0.276 OA
ATOM      4  H   UNL     1      -0.216  -0.488  -0.810  0.00  0.00    +0.173 HD
ENDROOT
BRANCH   1  14
ATOM      5  C   UNL     1      -4.696   5.175   0.074  0.00  0.00    +0.007 C 
ATOM      6  C   UNL     1      -3.168   5.102   0.060  0.00  0.00    -0.014 C 
ATOM      7  C   UNL     1      -2.682   4.351   1.301  0.00  0.00    +0.006 C 
ATOM      8  C   UNL     1      -1.152   4.288   1.291  0.00  0.00    +0.035 C 
ATOM      9  C   UNL     1      -0.678   3.578   0.028  0.00  0.00    +0.114 C 
ATOM     10  C   UNL     1      -1.176   4.301  -1.218  0.00  0.00    +0.035 C 
ATOM     11  C   UNL     1      -2.705   4.364  -1.198  0.00  0.00    +0.006 C 
ATOM     12  C   UNL     1      -1.143   2.140   0.019  0.00  0.00    +0.263 C 
ATOM     13  O   UNL     1      -2.287   1.738   0.021  0.00  0.00    -0.271 OA
ATOM     14  N   UNL     1      -0.017   1.397   0.010  0.00  0.00    -0.137 N 
ATOM     15  C   UNL     1       1.080   2.164   0.003  0.00  0.00    +0.326 C 
ATOM     16  O   UNL     1       2.213   1.724  -0.010  0.00  0.00    -0.251 OA
ATOM     17  N   UNL     1       0.787   3.479   0.013  0.00  0.00    -0.284 N 
ATOM     18  H   UNL     1       1.419   4.215   0.011  0.00  0.00    +0.151 HD
ENDBRANCH   1  14
BRANCH   2  19
ATOM     19  C   UNL     1       0.344  -2.187   1.115  0.00  0.00    +0.021 C 
BRANCH  19  24
ATOM     20  C   UNL     1       2.174  -2.490   2.692  0.00  0.00    -0.077 C 
ATOM     21  C   UNL     1       2.512  -3.492   3.816  0.00  0.00    -0.020 C 
ATOM     22  C   UNL     1       1.425  -4.583   3.721  0.00  0.00    -0.013 C 
ATOM     23  C   UNL     1       0.522  -4.147   2.548  0.00  0.00    -0.037 C 
ATOM     24  N   UNL     1       0.747  -2.700   2.462  0.00  0.00    +0.390 N 
ATOM     25  H   UNL     1       0.201  -2.216   3.184  0.00  0.00    -0.080 HD
BRANCH  23  26
ATOM     26  C   UNL     1      -0.921  -4.462   2.850  0.00  0.00    -0.057 A 
ATOM     27  C   UNL     1      -1.625  -3.677   3.745  0.00  0.00    +0.006 A 
ATOM     28  C   UNL     1      -2.949  -3.959   4.026  0.00  0.00    +0.049 A 
ATOM     29  C   UNL     1      -3.569  -5.032   3.408  0.00  0.00    +0.162 A 
ATOM     30  C   UNL     1      -2.863  -5.820   2.511  0.00  0.00    +0.162 A 
ATOM     31  C   UNL     1      -1.538  -5.532   2.227  0.00  0.00    +0.051 A 
ATOM     32  O   UNL     1      -3.482  -6.875   1.907  0.00  0.00    -0.488 OA
ATOM     33  C   UNL     1      -3.827  -7.969   2.760  0.00  0.00    +0.232 C 
ATOM     34  C   UNL     1      -5.162  -7.720   3.444  0.00  0.00    +0.082 C 
ATOM     35  C   UNL     1      -5.114  -6.533   4.393  0.00  0.00    +0.232 C 
ATOM     36  O   UNL     1      -4.876  -5.320   3.675  0.00  0.00    -0.488 OA
ENDBRANCH  23  26
ENDBRANCH  19  24
ENDBRANCH   2  19
TORSDOF 4
