REMARK  Name = ZINC39710644
REMARK  13 active torsions:
REMARK  status: ('A' for Active; 'I' for Inactive)
REMARK    1  A    between atoms: C_1  and  C_2
REMARK    2  A    between atoms: C_2  and  C_3
REMARK    3  A    between atoms: C_3  and  C_4
REMARK    4  A    between atoms: C_3  and  C_5
REMARK    5  A    between atoms: C_3  and  N_6
REMARK    6  A    between atoms: C_7  and  C_12
REMARK    7  A    between atoms: C_12  and  C_14
REMARK    8  A    between atoms: C_12  and  N_27
REMARK    9  A    between atoms: C_20  and  C_26
REMARK   10  A    between atoms: N_27  and  C_28
REMARK   11  A    between atoms: N_27  and  C_34
REMARK   12  A    between atoms: C_28  and  C_29
REMARK   13  A    between atoms: C_34  and  C_35
REMARK                            x       y       z     vdW  Elec       q    Type
REMARK                         _______ _______ _______ _____ _____    ______ ____
ROOT
ATOM      1  C   UNL     1      -3.706   0.463   0.282  0.00  0.00    -0.009 C 
ENDROOT
BRANCH   1   2
ATOM      2  C   UNL     1      -3.750  -0.354  -1.012  0.00  0.00    +0.088 C 
ATOM      3  C   UNL     1      -3.276   0.539  -2.142  0.00  0.00    -0.006 C 
ATOM      4  C   UNL     1      -4.132   0.733  -3.185  0.00  0.00    -0.007 A 
ATOM      5  C   UNL     1      -3.756   1.581  -4.317  0.00  0.00    +0.010 A 
ATOM      6  C   UNL     1      -4.641   1.746  -5.334  0.00  0.00    +0.004 A 
ATOM      7  C   UNL     1      -5.891   1.127  -5.317  0.00  0.00    -0.049 A 
ATOM      8  C   UNL     1      -6.300   0.330  -4.296  0.00  0.00    +0.027 A 
ATOM      9  C   UNL     1      -5.459   0.092  -3.194  0.00  0.00    +0.041 A 
ATOM     10  N   UNL     1      -5.870  -0.693  -2.198  0.00  0.00    -0.285 N 
ATOM     11  C   UNL     1      -5.132  -0.955  -1.134  0.00  0.00    +0.223 C 
ATOM     12  O   UNL     1      -5.563  -1.679  -0.256  0.00  0.00    -0.275 OA
ATOM     13  C   UNL     1      -6.826   1.353  -6.477  0.00  0.00    +0.044 C 
ATOM     14  H   UNL     1      -6.754  -1.089  -2.257  0.00  0.00    +0.155 HD
ENDBRANCH   1   2
BRANCH   1  16
ATOM     15  N   UNL     1      -1.753  -0.819   1.086  0.00  0.00    -0.182 NA
ATOM     16  C   UNL     1      -3.132  -0.398   1.409  0.00  0.00    +0.205 C 
ATOM     17  N   UNL     1      -3.882  -1.656   1.529  0.00  0.00    -0.152 NA
ATOM     18  N   UNL     1      -3.115  -2.599   1.323  0.00  0.00    -0.070 NA
ATOM     19  N   UNL     1      -1.811  -2.187   1.048  0.00  0.00    -0.179 N 
ATOM     20  H   UNL     1      -1.064  -2.776   0.860  0.00  0.00    +0.191 HD
BRANCH  15  21
ATOM     21  C   UNL     1      -1.326  -0.274  -0.209  0.00  0.00    +0.037 C 
ATOM     22  C   UNL     1      -2.014   1.072  -0.449  0.00  0.00    +0.029 C 
ATOM     23  C   UNL     1      -1.711  -1.249  -1.324  0.00  0.00    +0.029 C 
BRANCH  21  25
ATOM     24  C   UNL     1       0.622   0.599  -1.509  0.00  0.00    +0.006 C 
ATOM     25  C   UNL     1       0.192  -0.077  -0.205  0.00  0.00    +0.020 C 
ENDBRANCH  21  25
ENDBRANCH  15  21
ENDBRANCH   1  16
BRANCH   1  26
ATOM     26  N   UNL     1      -5.065   0.892   0.636  0.00  0.00    +0.391 N 
ATOM     27  H   UNL     1      -5.695   0.107   0.564  0.00  0.00    -0.080 HD
BRANCH  26  28
ATOM     28  C   UNL     1      -5.074   1.402   2.014  0.00  0.00    -0.002 C 
BRANCH  28  29
ATOM     29  C   UNL     1      -6.496   1.637   2.453  0.00  0.00    +0.089 A 
ATOM     30  C   UNL     1      -7.258   0.773   3.148  0.00  0.00    +0.042 A 
ATOM     31  C   UNL     1      -8.511   1.397   3.343  0.00  0.00    +0.041 A 
ATOM     32  C   UNL     1      -8.441   2.605   2.755  0.00  0.00    +0.195 A 
ATOM     33  O   UNL     1      -7.216   2.747   2.223  0.00  0.00    -0.470 OA
ENDBRANCH  28  29
ENDBRANCH  26  28
BRANCH  26  34
ATOM     34  C   UNL     1      -5.499   1.954  -0.282  0.00  0.00    -0.046 C 
BRANCH  34  35
ATOM     35  C   UNL     1      -4.703   3.229   0.002  0.00  0.00    +0.102 C 
ATOM     36  C   UNL     1      -5.332   4.418  -0.755  0.00  0.00    +0.032 C 
ATOM     37  C   UNL     1      -4.081   5.206  -1.230  0.00  0.00    +0.030 C 
ATOM     38  C   UNL     1      -3.087   4.047  -1.494  0.00  0.00    +0.160 C 
ATOM     39  O   UNL     1      -3.358   3.078  -0.467  0.00  0.00    -0.378 OA
ENDBRANCH  34  35
ENDBRANCH  26  34
ENDBRANCH   1  26
TORSDOF 9
