REMARK  Name = ZINC35435919
REMARK  4 active torsions:
REMARK  status: ('A' for Active; 'I' for Inactive)
REMARK    1  A    between atoms: C_1  and  C_2
REMARK    2  A    between atoms: C_6  and  C_8
REMARK    3  A    between atoms: C_8  and  C_9
REMARK    4  A    between atoms: C_21  and  C_23
REMARK                            x       y       z     vdW  Elec       q    Type
REMARK                         _______ _______ _______ _____ _____    ______ ____
ROOT
ATOM      1  C   UNL     1       1.480  -3.080   2.915  0.00  0.00    +0.114 A 
ATOM      2  N   UNL     1       1.724  -3.752   4.057  0.00  0.00    -0.310 N 
ATOM      3  H   UNL     1       0.989  -4.087   4.593  0.00  0.00    +0.170 HD
ATOM      4  C   UNL     1       2.998  -3.955   4.450  0.00  0.00    +0.256 A 
ATOM      5  O   UNL     1       3.240  -4.556   5.484  0.00  0.00    -0.267 OA
ATOM      6  C   UNL     1       4.049  -3.460   3.644  0.00  0.00    +0.055 A 
ATOM      7  C   UNL     1       3.741  -2.809   2.497  0.00  0.00    +0.055 A 
ATOM      8  N   UNL     1       2.450  -2.633   2.168  0.00  0.00    -0.238 NA
ATOM      9  C   UNL     1       4.784  -2.282   1.548  0.00  0.00    +0.075 C 
ATOM     10  C   UNL     1       6.128  -2.112   2.257  0.00  0.00    +0.114 C 
ATOM     11  N   UNL     1       6.396  -3.342   3.021  0.00  0.00    -0.296 N 
ATOM     12  C   UNL     1       5.466  -3.674   4.107  0.00  0.00    +0.150 C 
ATOM     13  C   UNL     1       7.451  -4.130   2.735  0.00  0.00    +0.219 C 
ATOM     14  O   UNL     1       8.203  -3.831   1.832  0.00  0.00    -0.275 OA
ENDROOT
BRANCH  13  15
ATOM     15  C   UNL     1       7.696  -5.381   3.538  0.00  0.00    +0.075 C 
ATOM     16  C   UNL     1       7.972  -5.019   5.012  0.00  0.00    +0.013 C 
ATOM     17  C   UNL     1       9.055  -6.033   5.456  0.00  0.00    +0.001 C 
ATOM     18  C   UNL     1       9.949  -6.152   4.197  0.00  0.00    +0.001 C 
ATOM     19  C   UNL     1       8.953  -6.102   3.020  0.00  0.00    +0.013 C 
ENDBRANCH  13  15
BRANCH   1  20
ATOM     20  C   UNL     1       0.054  -2.845   2.489  0.00  0.00    +0.109 C 
BRANCH  20  26
ATOM     21  C   UNL     1      -0.018   1.503   0.010  0.00  0.00    +0.044 C 
ATOM     22  C   UNL     1       0.002  -0.004   0.002  0.00  0.00    -0.050 A 
ATOM     23  C   UNL     1       0.006  -0.689  -1.199  0.00  0.00    +0.003 A 
ATOM     24  C   UNL     1       0.025  -2.071  -1.207  0.00  0.00    +0.001 A 
ATOM     25  C   UNL     1       0.040  -2.768  -0.013  0.00  0.00    +0.004 A 
ATOM     26  C   UNL     1       0.037  -2.084   1.188  0.00  0.00    -0.040 A 
ATOM     27  C   UNL     1       0.023  -0.702   1.195  0.00  0.00    +0.007 A 
ENDBRANCH  20  26
ENDBRANCH   1  20
TORSDOF 3
