REMARK  Name = ZINC03446137
REMARK  8 active torsions:
REMARK  status: ('A' for Active; 'I' for Inactive)
REMARK    1  A    between atoms: C_1  and  C_2
REMARK    2  A    between atoms: C_3  and  C_12
REMARK    3  A    between atoms: C_12  and  C_14
REMARK    4  A    between atoms: C_14  and  S_15
REMARK    5  A    between atoms: S_15  and  C_16
REMARK    6  A    between atoms: C_19  and  C_21
REMARK    7  A    between atoms: C_25  and  S_27
REMARK    8  A    between atoms: S_27  and  N_30
REMARK                            x       y       z     vdW  Elec       q    Type
REMARK                         _______ _______ _______ _____ _____    ______ ____
ROOT
ATOM      1  C   UNL     1       1.727   2.122   0.000  0.00  0.00    +0.278 A 
ATOM      2  N   UNL     1       2.685   1.224  -0.003  0.00  0.00    -0.101 NA
ATOM      3  N   UNL     1       3.828   1.816  -0.007  0.00  0.00    -0.106 NA
ATOM      4  C   UNL     1       3.645   3.114  -0.007  0.00  0.00    +0.249 A 
ATOM      5  O   UNL     1       2.312   3.335  -0.008  0.00  0.00    -0.411 OA
ENDROOT
BRANCH   4   6
ATOM      6  C   UNL     1       4.703   4.146  -0.011  0.00  0.00    +0.040 A 
ATOM      7  C   UNL     1       4.362   5.500  -0.016  0.00  0.00    +0.013 A 
ATOM      8  C   UNL     1       5.354   6.458  -0.015  0.00  0.00    +0.003 A 
ATOM      9  C   UNL     1       6.685   6.079  -0.018  0.00  0.00    +0.028 A 
ATOM     10  C   UNL     1       7.030   4.740  -0.019  0.00  0.00    +0.106 A 
ATOM     11  C   UNL     1       6.048   3.771  -0.015  0.00  0.00    +0.041 A 
BRANCH  10  12
ATOM     12  S   UNL     1       8.728   4.269  -0.024  0.00  0.00    +0.061 S 
ATOM     13  O   UNL     1       9.454   5.361   0.524  0.00  0.00    -0.153 OA
ATOM     14  O   UNL     1       8.789   2.961   0.527  0.00  0.00    -0.153 OA
BRANCH  12  15
ATOM     15  N   UNL     1       9.195   4.138  -1.607  0.00  0.00    -0.177 NA
ATOM     16  C   UNL     1       9.074   2.858  -2.320  0.00  0.00    +0.109 C 
ATOM     17  C   UNL     1       8.276   3.092  -3.612  0.00  0.00    +0.017 C 
ATOM     18  C   UNL     1       8.946   4.203  -4.424  0.00  0.00    +0.003 C 
ATOM     19  C   UNL     1       8.943   5.502  -3.615  0.00  0.00    +0.017 C 
ATOM     20  C   UNL     1       9.743   5.297  -2.325  0.00  0.00    +0.109 C 
ENDBRANCH  12  15
ENDBRANCH  10  12
ENDBRANCH   4   6
BRANCH   1  21
ATOM     21  S   UNL     1      -0.005   1.799   0.007  0.00  0.00    -0.058 S 
BRANCH  21  22
ATOM     22  C   UNL     1       0.013  -0.011   0.008  0.00  0.00    +0.158 C 
BRANCH  22  23
ATOM     23  C   UNL     1      -1.403  -0.527   0.013  0.00  0.00    +0.176 C 
ATOM     24  O   UNL     1      -2.331   0.248   0.113  0.00  0.00    -0.291 OA
BRANCH  23  27
ATOM     25  C   UNL     1      -1.613  -2.090  -2.656  0.00  0.00    +0.064 C 
ATOM     26  C   UNL     1      -1.751  -2.650  -1.263  0.00  0.00    +0.024 A 
ATOM     27  C   UNL     1      -1.650  -1.918  -0.099  0.00  0.00    +0.046 A 
ATOM     28  C   UNL     1      -1.859  -2.874   1.006  0.00  0.00    +0.010 A 
ATOM     29  C   UNL     1      -1.882  -2.757   2.393  0.00  0.00    +0.011 A 
ATOM     30  C   UNL     1      -2.109  -3.874   3.168  0.00  0.00    +0.001 A 
ATOM     31  C   UNL     1      -2.314  -5.110   2.571  0.00  0.00    +0.002 A 
ATOM     32  C   UNL     1      -2.293  -5.239   1.199  0.00  0.00    +0.026 A 
ATOM     33  C   UNL     1      -2.065  -4.122   0.400  0.00  0.00    +0.047 A 
ATOM     34  N   UNL     1      -1.989  -3.942  -0.966  0.00  0.00    -0.358 N 
ATOM     35  H   UNL     1      -2.095  -4.648  -1.623  0.00  0.00    +0.166 HD
ENDBRANCH  23  27
ENDBRANCH  22  23
ENDBRANCH  21  22
ENDBRANCH   1  21
TORSDOF 7
