REMARK  Name = ZINC14664765
REMARK  11 active torsions:
REMARK  status: ('A' for Active; 'I' for Inactive)
REMARK    1  A    between atoms: C_1  and  C_2
REMARK    2  A    between atoms: C_2  and  C_3
REMARK    3  A    between atoms: C_2  and  O_4
REMARK    4  A    between atoms: O_4  and  C_5
REMARK    5  A    between atoms: C_10  and  C_11
REMARK    6  A    between atoms: N_13  and  C_14
REMARK    7  A    between atoms: C_14  and  N_16
REMARK    8  A    between atoms: N_16  and  N_17
REMARK    9  A    between atoms: C_18  and  C_20
REMARK   10  A    between atoms: C_20  and  O_21
REMARK   11  A    between atoms: O_21  and  C_22
REMARK                            x       y       z     vdW  Elec       q    Type
REMARK                         _______ _______ _______ _____ _____    ______ ____
ROOT
ATOM      1  C   UNL     1       5.369  -4.113  -0.954  0.00  0.00    +0.153 C 
ATOM      2  S   UNL     1       6.960  -4.744  -0.976  0.00  0.00    -0.017 S 
ENDROOT
BRANCH   1   5
ATOM      3  C   UNL     1       4.527  -6.249  -0.533  0.00  0.00    +0.253 C 
ATOM      4  O   UNL     1       5.657  -6.697  -0.548  0.00  0.00    -0.270 OA
ATOM      5  N   UNL     1       4.322  -4.932  -0.735  0.00  0.00    -0.263 N 
ATOM      6  H   UNL     1       3.420  -4.575  -0.723  0.00  0.00    +0.157 HD
BRANCH   3  12
ATOM      7  C   UNL     1       3.591  -8.516  -0.082  0.00  0.00    +0.133 A 
ATOM      8  C   UNL     1       2.505  -9.350   0.143  0.00  0.00    +0.046 A 
ATOM      9  C   UNL     1       1.226  -8.832   0.158  0.00  0.00    +0.004 A 
ATOM     10  C   UNL     1       1.015  -7.478  -0.049  0.00  0.00    +0.001 A 
ATOM     11  C   UNL     1       2.082  -6.634  -0.269  0.00  0.00    +0.017 A 
ATOM     12  C   UNL     1       3.382  -7.146  -0.293  0.00  0.00    +0.079 A 
BRANCH   7  13
ATOM     13  O   UNL     1       4.848  -9.023  -0.097  0.00  0.00    -0.489 OA
BRANCH  13  15
ATOM     14  C   UNL     1       6.298 -10.883  -0.629  0.00  0.00    +0.051 C 
ATOM     15  C   UNL     1       4.976 -10.443   0.005  0.00  0.00    +0.167 C 
ATOM     16  C   UNL     1       4.958 -10.852   1.479  0.00  0.00    +0.051 C 
ENDBRANCH  13  15
ENDBRANCH   7  13
ENDBRANCH   3  12
ENDBRANCH   1   5
BRANCH   1  17
ATOM     17  N   UNL     1       5.164  -2.796  -1.157  0.00  0.00    -0.245 N 
ATOM     18  H   UNL     1       5.917  -2.206  -1.315  0.00  0.00    +0.172 HD
BRANCH  17  19
ATOM     19  N   UNL     1       3.861  -2.280  -1.139  0.00  0.00    -0.232 N 
ATOM     20  C   UNL     1       3.656  -0.963  -1.342  0.00  0.00    +0.267 C 
ATOM     21  O   UNL     1       4.598  -0.226  -1.539  0.00  0.00    -0.271 OA
ATOM     22  H   UNL     1       3.108  -2.870  -0.982  0.00  0.00    +0.173 HD
BRANCH  20  23
ATOM     23  C   UNL     1       2.255  -0.407  -1.323  0.00  0.00    +0.326 C 
BRANCH  23  24
ATOM     24  O   UNL     1       2.298   1.001  -1.560  0.00  0.00    -0.481 OA
BRANCH  24  25
ATOM     25  C   UNL     1       1.110   1.661  -1.576  0.00  0.00    +0.139 A 
ATOM     26  C   UNL     1      -0.073   0.967  -1.367  0.00  0.00    +0.048 A 
ATOM     27  C   UNL     1      -1.280   1.638  -1.389  0.00  0.00    +0.019 A 
ATOM     28  C   UNL     1      -1.310   3.004  -1.608  0.00  0.00    +0.019 A 
ATOM     29  C   UNL     1      -0.132   3.699  -1.817  0.00  0.00    +0.039 A 
ATOM     30  C   UNL     1       1.078   3.030  -1.801  0.00  0.00    +0.084 A 
ATOM     31 CL   UNL     1       2.556   3.902  -2.064  0.00  0.00    -0.080 Cl
ATOM     32 BR   UNL     1      -2.964   3.920  -1.631  0.00  0.00    -0.050 Br
ENDBRANCH  24  25
ENDBRANCH  23  24
ENDBRANCH  20  23
ENDBRANCH  17  19
ENDBRANCH   1  17
TORSDOF 9
