REMARK  Name = ZINC02743772
REMARK  11 active torsions:
REMARK  status: ('A' for Active; 'I' for Inactive)
REMARK    1  A    between atoms: C_1  and  C_2
REMARK    2  A    between atoms: C_2  and  O_3
REMARK    3  A    between atoms: O_3  and  C_4
REMARK    4  A    between atoms: C_4  and  C_6
REMARK    5  A    between atoms: C_7  and  C_32
REMARK    6  A    between atoms: C_9  and  N_31
REMARK    7  A    between atoms: C_10  and  C_29
REMARK    8  A    between atoms: C_11  and  C_13
REMARK    9  A    between atoms: C_18  and  O_19
REMARK   10  A    between atoms: O_19  and  C_20
REMARK   11  A    between atoms: C_20  and  C_21
REMARK                            x       y       z     vdW  Elec       q    Type
REMARK                         _______ _______ _______ _____ _____    ______ ____
ROOT
ATOM      1  C   UNL     1      -0.073   5.109   1.246  0.00  0.00    +0.087 C 
ATOM      2  C   UNL     1       0.182   6.422   1.183  0.00  0.00    +0.115 C 
ATOM      3  O   UNL     1       0.483   7.038   0.030  0.00  0.00    -0.445 OA
ATOM      4  C   UNL     1       0.171   6.446  -1.135  0.00  0.00    +0.198 C 
ATOM      5  C   UNL     1      -0.086   5.118  -1.215  0.00  0.00    +0.098 C 
ATOM      6  C   UNL     1      -0.034   4.249   0.013  0.00  0.00    +0.108 C 
ATOM      7  C   UNL     1       0.127   7.236   2.450  0.00  0.00    +0.087 C 
ENDROOT
BRANCH   6   8
ATOM      8  C   UNL     1       1.240   3.444   0.003  0.00  0.00    +0.008 A 
ATOM      9  C   UNL     1       2.463   4.086   0.001  0.00  0.00    +0.023 A 
ATOM     10  C   UNL     1       3.633   3.348  -0.014  0.00  0.00    +0.018 A 
ATOM     11  C   UNL     1       3.580   1.965  -0.021  0.00  0.00    +0.019 A 
ATOM     12  C   UNL     1       2.360   1.319  -0.013  0.00  0.00    +0.047 A 
ATOM     13  C   UNL     1       1.185   2.058   0.002  0.00  0.00    +0.125 A 
ATOM     14 BR   UNL     1       5.306   4.229  -0.024  0.00  0.00    -0.050 Br
BRANCH  13  15
ATOM     15  O   UNL     1      -0.017   1.425   0.010  0.00  0.00    -0.487 OA
BRANCH  15  16
ATOM     16  C   UNL     1       0.002  -0.004   0.002  0.00  0.00    +0.264 C 
BRANCH  16  17
ATOM     17  C   UNL     1      -1.412  -0.526   0.013  0.00  0.00    -0.010 A 
ATOM     18  C   UNL     1      -2.046  -0.777   1.215  0.00  0.00    +0.008 A 
ATOM     19  C   UNL     1      -3.345  -1.250   1.225  0.00  0.00    +0.020 A 
ATOM     20  C   UNL     1      -4.006  -1.483   0.032  0.00  0.00    +0.041 A 
ATOM     21  C   UNL     1      -3.368  -1.237  -1.171  0.00  0.00    +0.020 A 
ATOM     22  C   UNL     1      -2.071  -0.758  -1.180  0.00  0.00    +0.008 A 
ATOM     23 CL   UNL     1      -5.635  -2.083   0.045  0.00  0.00    -0.084 Cl
ENDBRANCH  16  17
ENDBRANCH  15  16
ENDBRANCH  13  15
ENDBRANCH   6   8
BRANCH   4  24
ATOM     24  N   UNL     1       0.111   7.207  -2.276  0.00  0.00    -0.328 N 
ATOM     25  H   UNL     1      -0.112   6.793  -3.124  0.00  0.00    +0.145 HD
ATOM     26  H   UNL     1       0.293   8.159  -2.234  0.00  0.00    +0.145 HD
ENDBRANCH   4  24
BRANCH   1  27
ATOM     27  C   UNL     1      -0.384   4.520   2.497  0.00  0.00    +0.339 C 
ATOM     28  O   UNL     1      -0.418   5.206   3.501  0.00  0.00    -0.245 OA
BRANCH  27  29
ATOM     29  O   UNL     1      -0.642   3.198   2.574  0.00  0.00    -0.462 OA
BRANCH  29  31
ATOM     30  C   UNL     1      -1.210   1.168   3.755  0.00  0.00    +0.048 C 
ATOM     31  C   UNL     1      -0.949   2.671   3.866  0.00  0.00    +0.229 C 
ENDBRANCH  29  31
ENDBRANCH  27  29
ENDBRANCH   1  27
BRANCH   5  32
ATOM     32  C   UNL     1      -0.412   4.535  -2.482  0.00  0.00    +0.101 C 
ATOM     33  N   UNL     1      -0.670   4.072  -3.487  0.00  0.00    -0.191 NA
ENDBRANCH   5  32
TORSDOF 9
