REMARK  Name = ZINC63425274
REMARK  10 active torsions:
REMARK  status: ('A' for Active; 'I' for Inactive)
REMARK    1  A    between atoms: C_1  and  C_2
REMARK    2  A    between atoms: C_5  and  N_8
REMARK    3  A    between atoms: C_12  and  C_13
REMARK    4  A    between atoms: C_12  and  N_14
REMARK    5  A    between atoms: N_14  and  C_15
REMARK    6  A    between atoms: C_15  and  C_17
REMARK    7  A    between atoms: C_15  and  C_27
REMARK    8  A    between atoms: C_17  and  C_18
REMARK    9  A    between atoms: C_27  and  O_29
REMARK   10  A    between atoms: O_29  and  C_30
REMARK                            x       y       z     vdW  Elec       q    Type
REMARK                         _______ _______ _______ _____ _____    ______ ____
ROOT
ATOM      1  N   UNL     1       0.184  -4.176  -0.036  0.00  0.00    -0.190 N 
ATOM      2  C   UNL     1       0.198  -4.839   1.139  0.00  0.00    +0.265 C 
ATOM      3  O   UNL     1       0.143  -4.239   2.196  0.00  0.00    -0.269 OA
ATOM      4  C   UNL     1       0.282  -6.310   1.107  0.00  0.00    +0.116 C 
ATOM      5  C   UNL     1       0.301  -7.056   2.271  0.00  0.00    +0.019 C 
ATOM      6  C   UNL     1       0.428  -8.556   2.202  0.00  0.00    +0.061 C 
ATOM      7  C   UNL     1       0.344  -6.950  -0.218  0.00  0.00    +0.258 C 
ATOM      8  O   UNL     1       0.414  -8.160  -0.325  0.00  0.00    -0.270 OA
ATOM      9  N   UNL     1       0.321  -6.159  -1.310  0.00  0.00    -0.235 N 
ATOM     10  C   UNL     1       0.238  -4.825  -1.207  0.00  0.00    +0.320 C 
ATOM     11  O   UNL     1       0.216  -4.169  -2.230  0.00  0.00    -0.251 OA
ATOM     12  H   UNL     1       0.362  -6.564  -2.191  0.00  0.00    +0.159 HD
ENDROOT
BRANCH   1  17
ATOM     13  C   UNL     1      -0.137   1.490  -0.016  0.00  0.00    +0.044 C 
ATOM     14  C   UNL     1      -0.052  -0.014  -0.021  0.00  0.00    -0.050 A 
ATOM     15  C   UNL     1      -1.196  -0.770  -0.204  0.00  0.00    +0.005 A 
ATOM     16  C   UNL     1      -1.121  -2.149  -0.209  0.00  0.00    +0.024 A 
ATOM     17  C   UNL     1       0.105  -2.777  -0.031  0.00  0.00    +0.046 A 
ATOM     18  C   UNL     1       1.251  -2.016   0.153  0.00  0.00    +0.024 A 
ATOM     19  C   UNL     1       1.171  -0.637   0.152  0.00  0.00    +0.005 A 
ENDBRANCH   1  17
BRANCH   5  20
ATOM     20  N   UNL     1       0.205  -6.443   3.467  0.00  0.00    -0.334 N 
ATOM     21  H   UNL     1       0.194  -5.474   3.516  0.00  0.00    +0.147 HD
BRANCH  20  22
ATOM     22  C   UNL     1       0.118  -7.239   4.694  0.00  0.00    +0.184 C 
BRANCH  22  23
ATOM     23  C   UNL     1       1.506  -7.605   5.155  0.00  0.00    +0.328 C 
ATOM     24  O   UNL     1       2.468  -7.238   4.523  0.00  0.00    -0.249 OA
BRANCH  23  25
ATOM     25  O   UNL     1       1.672  -8.338   6.267  0.00  0.00    -0.467 OA
ATOM     26  C   UNL     1       3.015  -8.648   6.645  0.00  0.00    +0.280 C 
ENDBRANCH  23  25
ENDBRANCH  22  23
BRANCH  22  27
ATOM     27  C   UNL     1      -0.582  -6.423   5.783  0.00  0.00    +0.066 C 
BRANCH  27  28
ATOM     28  C   UNL     1      -2.009  -6.162   5.375  0.00  0.00    -0.039 C 
ATOM     29  C   UNL     1      -3.099  -6.881   5.726  0.00  0.00    -0.001 A 
ATOM     30  C   UNL     1      -3.276  -8.077   6.558  0.00  0.00    +0.010 A 
ATOM     31  C   UNL     1      -4.520  -8.580   6.728  0.00  0.00    +0.001 A 
ATOM     32  C   UNL     1      -5.642  -7.989   6.130  0.00  0.00    +0.002 A 
ATOM     33  C   UNL     1      -5.559  -6.889   5.352  0.00  0.00    +0.026 A 
ATOM     34  C   UNL     1      -4.300  -6.276   5.106  0.00  0.00    +0.043 A 
ATOM     35  N   UNL     1      -3.965  -5.224   4.399  0.00  0.00    -0.380 N 
ATOM     36  C   UNL     1      -2.513  -5.039   4.497  0.00  0.00    +0.144 C 
ATOM     37  H   UNL     1      -4.575  -4.660   3.900  0.00  0.00    +0.160 HD
ENDBRANCH  27  28
ENDBRANCH  22  27
ENDBRANCH  20  22
ENDBRANCH   5  20
TORSDOF 7
