REMARK  Name = ZINC63835813
REMARK  8 active torsions:
REMARK  status: ('A' for Active; 'I' for Inactive)
REMARK    1  A    between atoms: C_1  and  C_2
REMARK    2  A    between atoms: C_6  and  S_8
REMARK    3  A    between atoms: S_8  and  N_11
REMARK    4  A    between atoms: N_11  and  C_12
REMARK    5  A    between atoms: C_12  and  C_14
REMARK    6  A    between atoms: C_12  and  C_24
REMARK    7  A    between atoms: C_14  and  C_15
REMARK    8  A    between atoms: N_26  and  C_27
REMARK                            x       y       z     vdW  Elec       q    Type
REMARK                         _______ _______ _______ _____ _____    ______ ____
ROOT
ATOM      1  C   UNL     1       2.487  -2.044   3.438  0.00  0.00    +0.166 C 
ENDROOT
BRANCH   1   2
ATOM      2  C   UNL     1       3.893  -2.303   2.961  0.00  0.00    +0.236 C 
ATOM      3  O   UNL     1       4.163  -3.350   2.410  0.00  0.00    -0.274 OA
ATOM      4  N   UNL     1       4.850  -1.373   3.146  0.00  0.00    -0.284 N 
ATOM      5  H   UNL     1       4.621  -0.510   3.526  0.00  0.00    +0.155 HD
BRANCH   4   6
ATOM      6  C   UNL     1       6.176  -1.652   2.791  0.00  0.00    +0.037 A 
ATOM      7  C   UNL     1       7.220  -1.145   3.553  0.00  0.00    +0.027 A 
ATOM      8  C   UNL     1       8.529  -1.419   3.204  0.00  0.00    +0.051 A 
ATOM      9  C   UNL     1       8.803  -2.200   2.093  0.00  0.00    +0.166 A 
ATOM     10  C   UNL     1       7.758  -2.710   1.327  0.00  0.00    +0.168 A 
ATOM     11  C   UNL     1       6.446  -2.439   1.680  0.00  0.00    +0.072 A 
ATOM     12  O   UNL     1       8.285  -3.438   0.299  0.00  0.00    -0.453 OA
ATOM     13  C   UNL     1       9.663  -3.031   0.206  0.00  0.00    +0.466 C 
ATOM     14  O   UNL     1       9.985  -2.609   1.545  0.00  0.00    -0.453 OA
ENDBRANCH   4   6
ENDBRANCH   1   2
BRANCH   1  15
ATOM     15  N   UNL     1       1.643  -3.198   3.121  0.00  0.00    -0.178 NA
ATOM     16  H   UNL     1       2.013  -4.095   3.159  0.00  0.00    +0.149 HD
BRANCH  15  17
ATOM     17  S   UNL     1       0.058  -2.974   2.699  0.00  0.00    +0.059 S 
ATOM     18  O   UNL     1      -0.503  -2.104   3.673  0.00  0.00    -0.153 OA
ATOM     19  O   UNL     1      -0.477  -4.262   2.429  0.00  0.00    -0.153 OA
BRANCH  17  25
ATOM     20  C   UNL     1      -0.004   1.486  -0.027  0.00  0.00    +0.044 C 
ATOM     21  C   UNL     1       0.016  -0.021  -0.026  0.00  0.00    -0.049 A 
ATOM     22  C   UNL     1       0.024  -0.713  -1.223  0.00  0.00    +0.003 A 
ATOM     23  C   UNL     1       0.042  -2.095  -1.222  0.00  0.00    +0.002 A 
ATOM     24  C   UNL     1       0.052  -2.785  -0.025  0.00  0.00    +0.028 A 
ATOM     25  C   UNL     1       0.045  -2.094   1.172  0.00  0.00    +0.106 A 
ATOM     26  C   UNL     1       0.031  -0.711   1.171  0.00  0.00    +0.032 A 
ENDBRANCH  17  25
ENDBRANCH  15  17
ENDBRANCH   1  15
BRANCH   1  27
ATOM     27  C   UNL     1       2.496  -1.819   4.952  0.00  0.00    +0.063 C 
BRANCH  27  28
ATOM     28  C   UNL     1       1.112  -1.439   5.411  0.00  0.00    -0.040 C 
ATOM     29  C   UNL     1       0.164  -2.266   5.908  0.00  0.00    -0.001 A 
ATOM     30  C   UNL     1       0.139  -3.712   6.160  0.00  0.00    +0.010 A 
ATOM     31  C   UNL     1      -0.980  -4.269   6.676  0.00  0.00    +0.001 A 
ATOM     32  C   UNL     1      -2.114  -3.501   6.976  0.00  0.00    +0.002 A 
ATOM     33  C   UNL     1      -2.167  -2.168   6.772  0.00  0.00    +0.026 A 
ATOM     34  C   UNL     1      -1.046  -1.478   6.234  0.00  0.00    +0.043 A 
ATOM     35  N   UNL     1      -0.854  -0.213   5.949  0.00  0.00    -0.380 N 
ATOM     36  C   UNL     1       0.503  -0.054   5.415  0.00  0.00    +0.144 C 
ATOM     37  H   UNL     1      -1.500   0.500   6.073  0.00  0.00    +0.160 HD
ENDBRANCH  27  28
ENDBRANCH   1  27
TORSDOF 7
