REMARK  Name = ZINC05376557
REMARK  7 active torsions:
REMARK  status: ('A' for Active; 'I' for Inactive)
REMARK    1  A    between atoms: C_1  and  C_2
REMARK    2  A    between atoms: C_5  and  C_8
REMARK    3  A    between atoms: C_8  and  O_9
REMARK    4  A    between atoms: O_9  and  C_10
REMARK    5  A    between atoms: C_13  and  C_16
REMARK    6  A    between atoms: N_22  and  C_23
REMARK    7  A    between atoms: C_26  and  O_29
REMARK                            x       y       z     vdW  Elec       q    Type
REMARK                         _______ _______ _______ _____ _____    ______ ____
ROOT
ATOM      1  C   UNL     1       5.633   3.377  -3.584  0.00  0.00    +0.028 C 
ATOM      2  C   UNL     1       5.219   2.937  -2.369  0.00  0.00    +0.078 C 
ATOM      3  C   UNL     1       5.710   1.798  -1.569  0.00  0.00    +0.256 C 
ATOM      4  O   UNL     1       6.614   1.086  -1.965  0.00  0.00    -0.269 OA
ATOM      5  N   UNL     1       5.122   1.586  -0.404  0.00  0.00    -0.260 N 
ATOM      6  C   UNL     1       4.099   2.404   0.026  0.00  0.00    +0.166 C 
ATOM      7  N   UNL     1       3.413   2.335   1.144  0.00  0.00    -0.226 NA
ATOM      8  S   UNL     1       3.928   3.574  -1.311  0.00  0.00    -0.049 S 
ATOM      9  H   UNL     1       5.414   0.848   0.154  0.00  0.00    +0.157 HD
ENDROOT
BRANCH   1  13
ATOM     10  C   UNL     1       3.480   6.439  -5.576  0.00  0.00    +0.121 A 
ATOM     11  C   UNL     1       4.778   6.138  -5.970  0.00  0.00    +0.046 A 
ATOM     12  C   UNL     1       5.482   5.144  -5.327  0.00  0.00    +0.011 A 
ATOM     13  C   UNL     1       4.888   4.438  -4.274  0.00  0.00    -0.024 A 
ATOM     14  C   UNL     1       3.577   4.743  -3.885  0.00  0.00    +0.011 A 
ATOM     15  C   UNL     1       2.885   5.741  -4.532  0.00  0.00    +0.046 A 
BRANCH  10  16
ATOM     16  O   UNL     1       2.790   7.420  -6.213  0.00  0.00    -0.487 OA
BRANCH  16  17
ATOM     17  C   UNL     1       1.460   7.679  -5.759  0.00  0.00    +0.264 C 
BRANCH  17  22
ATOM     18  C   UNL     1      -0.853  11.942  -8.901  0.00  0.00    +0.044 C 
ATOM     19  C   UNL     1      -0.251  10.830  -8.081  0.00  0.00    -0.050 A 
ATOM     20  C   UNL     1      -0.397   9.516  -8.484  0.00  0.00    +0.004 A 
ATOM     21  C   UNL     1       0.157   8.496  -7.733  0.00  0.00    +0.007 A 
ATOM     22  C   UNL     1       0.857   8.791  -6.578  0.00  0.00    -0.010 A 
ATOM     23  C   UNL     1       0.999  10.104  -6.171  0.00  0.00    +0.007 A 
ATOM     24  C   UNL     1       0.449  11.124  -6.925  0.00  0.00    +0.004 A 
ENDBRANCH  17  22
ENDBRANCH  16  17
ENDBRANCH  10  16
ENDBRANCH   1  13
BRANCH   7  25
ATOM     25  C   UNL     1       2.423   3.247   1.397  0.00  0.00    +0.067 A 
ATOM     26  C   UNL     1       1.189   2.821   1.895  0.00  0.00    +0.031 A 
ATOM     27  C   UNL     1       0.193   3.742   2.143  0.00  0.00    +0.047 A 
ATOM     28  C   UNL     1       0.419   5.091   1.908  0.00  0.00    +0.117 A 
ATOM     29  C   UNL     1       1.643   5.519   1.414  0.00  0.00    +0.047 A 
ATOM     30  C   UNL     1       2.643   4.605   1.158  0.00  0.00    +0.031 A 
BRANCH  28  31
ATOM     31  O   UNL     1      -0.565   5.997   2.159  0.00  0.00    -0.507 OA
ATOM     32  H   UNL     1      -1.148   6.162   1.406  0.00  0.00    +0.292 HD
ENDBRANCH  28  31
ENDBRANCH   7  25
TORSDOF 6
