REMARK  Name = ZINC12591322
REMARK  16 active torsions:
REMARK  status: ('A' for Active; 'I' for Inactive)
REMARK    1  A    between atoms: C_1  and  C_2
REMARK    2  A    between atoms: C_2  and  N_3
REMARK    3  A    between atoms: N_3  and  C_4
REMARK    4  A    between atoms: N_3  and  C_32
REMARK    5  A    between atoms: C_7  and  N_10
REMARK    6  A    between atoms: C_11  and  C_13
REMARK    7  A    between atoms: C_13  and  S_14
REMARK    8  A    between atoms: S_14  and  C_15
REMARK    9  A    between atoms: C_18  and  C_27
REMARK   10  A    between atoms: N_19  and  C_20
REMARK   11  A    between atoms: C_27  and  C_29
REMARK   12  A    between atoms: C_27  and  N_67
REMARK   13  A    between atoms: C_30  and  N_67
REMARK   14  A    between atoms: C_31  and  N_67
REMARK   15  A    between atoms: C_32  and  C_33
REMARK   16  A    between atoms: C_32  and  C_34
REMARK                            x       y       z     vdW  Elec       q    Type
REMARK                         _______ _______ _______ _____ _____    ______ ____
ROOT
ATOM      1  S   UNL     1      -1.934   5.594   5.769  0.00  0.00    -0.076 S 
ENDROOT
BRANCH   1   2
ATOM      2  C   UNL     1      -1.906   4.506   4.383  0.00  0.00    +0.197 A 
ATOM      3  N   UNL     1      -2.805   3.596   4.087  0.00  0.00    -0.122 NA
ATOM      4  N   UNL     1      -2.471   2.987   3.005  0.00  0.00    -0.135 NA
ATOM      5  C   UNL     1      -1.345   3.462   2.553  0.00  0.00    +0.125 A 
ATOM      6  N   UNL     1      -0.945   4.450   3.412  0.00  0.00    -0.275 N 
BRANCH   6   7
ATOM      7  C   UNL     1       0.211   5.240   3.317  0.00  0.00    +0.050 A 
ATOM      8  C   UNL     1       1.464   4.655   3.436  0.00  0.00    +0.029 A 
ATOM      9  C   UNL     1       2.601   5.433   3.336  0.00  0.00    +0.040 A 
ATOM     10  C   UNL     1       2.491   6.798   3.128  0.00  0.00    +0.124 A 
ATOM     11  C   UNL     1       1.241   7.384   3.015  0.00  0.00    +0.040 A 
ATOM     12  C   UNL     1       0.102   6.608   3.109  0.00  0.00    +0.029 A 
ATOM     13  F   UNL     1       3.603   7.559   3.036  0.00  0.00    -0.205 F 
ENDBRANCH   6   7
BRANCH   5  14
ATOM     14  C   UNL     1      -0.621   3.011   1.310  0.00  0.00    -0.003 C 
ATOM     15  C   UNL     1      -1.348   3.545   0.074  0.00  0.00    -0.005 C 
BRANCH  14  18
ATOM     16  C   UNL     1       0.107   1.067   0.065  0.00  0.00    -0.096 C 
ATOM     17  C   UNL     1       0.015   0.991   2.483  0.00  0.00    -0.096 C 
ATOM     18  N   UNL     1      -0.620   1.534   1.264  0.00  0.00    +0.382 N 
ATOM     19  H   UNL     1      -1.590   1.201   1.217  0.00  0.00    -0.082 HD
ENDBRANCH  14  18
ENDBRANCH   5  14
ENDBRANCH   1   2
BRANCH   1  20
ATOM     20  C   UNL     1      -3.477   5.065   6.553  0.00  0.00    +0.173 C 
BRANCH  20  22
ATOM     21  N   UNL     1      -4.811   5.662   8.549  0.00  0.00    -0.285 N 
ATOM     22  C   UNL     1      -3.714   5.882   7.797  0.00  0.00    +0.227 C 
ATOM     23  O   UNL     1      -2.918   6.737   8.122  0.00  0.00    -0.275 OA
ATOM     24  H   UNL     1      -5.483   5.028   8.253  0.00  0.00    +0.155 HD
BRANCH  21  28
ATOM     25  C   UNL     1      -5.316   7.706  12.149  0.00  0.00    +0.030 A 
ATOM     26  C   UNL     1      -4.705   8.336  11.073  0.00  0.00    +0.025 A 
ATOM     27  C   UNL     1      -4.538   7.659   9.881  0.00  0.00    +0.025 A 
ATOM     28  C   UNL     1      -4.981   6.349   9.759  0.00  0.00    +0.034 A 
ATOM     29  C   UNL     1      -5.596   5.721  10.833  0.00  0.00    +0.025 A 
ATOM     30  C   UNL     1      -5.758   6.395  12.027  0.00  0.00    +0.025 A 
BRANCH  25  31
ATOM     31  N   UNL     1      -5.485   8.391  13.357  0.00  0.00    -0.328 N 
BRANCH  31  32
ATOM     32  C   UNL     1      -5.124   9.808  13.452  0.00  0.00    +0.067 C 
ATOM     33  C   UNL     1      -3.615   9.965  13.251  0.00  0.00    +0.027 C 
ATOM     34  C   UNL     1      -5.867  10.597  12.372  0.00  0.00    +0.027 C 
ENDBRANCH  31  32
BRANCH  31  36
ATOM     35  C   UNL     1      -4.872   7.082  15.330  0.00  0.00    +0.024 C 
ATOM     36  C   UNL     1      -6.022   7.692  14.527  0.00  0.00    +0.102 C 
ENDBRANCH  31  36
ENDBRANCH  25  31
ENDBRANCH  21  28
ENDBRANCH  20  22
ENDBRANCH   1  20
TORSDOF 10
