REMARK  Name = ZINC22196917
REMARK  10 active torsions:
REMARK  status: ('A' for Active; 'I' for Inactive)
REMARK    1  A    between atoms: C_1  and  O_2
REMARK    2  A    between atoms: O_2  and  C_3
REMARK    3  A    between atoms: C_8  and  N_9
REMARK    4  A    between atoms: N_9  and  S_10
REMARK    5  A    between atoms: S_10  and  C_13
REMARK    6  A    between atoms: C_16  and  O_32
REMARK    7  A    between atoms: C_17  and  N_19
REMARK    8  A    between atoms: C_20  and  C_22
REMARK    9  A    between atoms: C_22  and  O_23
REMARK   10  A    between atoms: O_23  and  C_24
REMARK                            x       y       z     vdW  Elec       q    Type
REMARK                         _______ _______ _______ _____ _____    ______ ____
ROOT
ATOM      1  C   UNL     1       1.486   2.863   1.284  0.00  0.00    +0.110 A 
ATOM      2  C   UNL     1       0.955   4.137   1.195  0.00  0.00    +0.032 A 
ATOM      3  C   UNL     1       1.011   4.992   2.280  0.00  0.00    +0.049 A 
ATOM      4  C   UNL     1       1.611   4.577   3.458  0.00  0.00    +0.138 A 
ATOM      5  C   UNL     1       2.151   3.296   3.547  0.00  0.00    +0.077 A 
ATOM      6  C   UNL     1       2.085   2.442   2.456  0.00  0.00    +0.055 A 
ENDROOT
BRANCH   5   7
ATOM      7  N   UNL     1       2.758   2.871   4.737  0.00  0.00    -0.280 N 
ATOM      8  C   UNL     1       3.820   2.043   4.692  0.00  0.00    +0.255 C 
ATOM      9  O   UNL     1       4.201   1.602   3.628  0.00  0.00    -0.272 OA
ATOM     10  H   UNL     1       2.369   3.214   5.706  0.00  0.00    +0.155 HD
BRANCH   8  11
ATOM     11  C   UNL     1       4.535   1.665   5.963  0.00  0.00    +0.325 C 
BRANCH  11  12
ATOM     12  O   UNL     1       5.618   0.784   5.657  0.00  0.00    -0.481 OA
BRANCH  12  13
ATOM     13  C   UNL     1       6.370   0.345   6.701  0.00  0.00    +0.141 A 
ATOM     14  C   UNL     1       6.076   0.758   7.992  0.00  0.00    +0.067 A 
ATOM     15  C   UNL     1       6.840   0.307   9.052  0.00  0.00    +0.045 A 
ATOM     16  C   UNL     1       7.903  -0.549   8.825  0.00  0.00    +0.021 A 
ATOM     17  C   UNL     1       8.202  -0.958   7.539  0.00  0.00    +0.025 A 
ATOM     18  C   UNL     1       7.438  -0.513   6.476  0.00  0.00    +0.083 A 
ATOM     19 CL   UNL     1       7.814  -1.028   4.861  0.00  0.00    -0.080 Cl
ATOM     20 CL   UNL     1       6.468   0.819  10.669  0.00  0.00    -0.083 Cl
ENDBRANCH  12  13
ENDBRANCH  11  12
ENDBRANCH   8  11
ENDBRANCH   5   7
BRANCH   1  21
ATOM     21  S   UNL     1       1.404   1.778  -0.101  0.00  0.00    +0.073 S 
ATOM     22  O   UNL     1       2.460   0.839   0.056  0.00  0.00    -0.150 OA
ATOM     23  O   UNL     1       1.280   2.599  -1.254  0.00  0.00    -0.150 OA
BRANCH  21  24
ATOM     24  N   UNL     1      -0.010   0.925   0.028  0.00  0.00    -0.213 N 
ATOM     25  H   UNL     1       0.015  -0.172   0.110  0.00  0.00    +0.174 HD
BRANCH  24  31
ATOM     26  C   UNL     1      -2.285   1.136   0.824  0.00  0.00    +0.142 A 
ATOM     27  C   UNL     1      -3.496   1.808   0.825  0.00  0.00    +0.047 A 
ATOM     28  C   UNL     1      -3.662   2.936   0.042  0.00  0.00    +0.004 A 
ATOM     29  C   UNL     1      -2.622   3.397  -0.743  0.00  0.00    +0.002 A 
ATOM     30  C   UNL     1      -1.408   2.735  -0.746  0.00  0.00    +0.028 A 
ATOM     31  C   UNL     1      -1.236   1.599   0.033  0.00  0.00    +0.090 A 
BRANCH  26  33
ATOM     32  C   UNL     1      -3.239  -0.390   2.379  0.00  0.00    +0.277 C 
ATOM     33  O   UNL     1      -2.120   0.027   1.594  0.00  0.00    -0.493 OA
ENDBRANCH  26  33
ENDBRANCH  24  31
ENDBRANCH  21  24
ENDBRANCH   1  21
BRANCH   4  34
ATOM     34  O   UNL     1       1.672   5.419   4.524  0.00  0.00    -0.505 OA
ATOM     35  H   UNL     1       2.148   5.088   5.459  0.00  0.00    +0.292 HD
ENDBRANCH   4  34
TORSDOF 9
