REMARK  Name = ZINC44963896
REMARK  16 active torsions:
REMARK  status: ('A' for Active; 'I' for Inactive)
REMARK    1  A    between atoms: C_1  and  C_2
REMARK    2  A    between atoms: C_5  and  O_19
REMARK    3  A    between atoms: C_6  and  C_10
REMARK    4  A    between atoms: C_7  and  O_8
REMARK    5  A    between atoms: O_8  and  C_9
REMARK    6  A    between atoms: C_10  and  C_11
REMARK    7  A    between atoms: C_12  and  C_13
REMARK    8  A    between atoms: C_12  and  C_14
REMARK    9  A    between atoms: C_14  and  C_15
REMARK   10  A    between atoms: C_15  and  C_16
REMARK   11  A    between atoms: O_19  and  C_20
REMARK   12  A    between atoms: C_22  and  O_35
REMARK   13  A    between atoms: C_24  and  O_34
REMARK   14  A    between atoms: C_26  and  O_33
REMARK   15  A    between atoms: C_28  and  C_31
REMARK   16  A    between atoms: C_31  and  O_32
REMARK                            x       y       z     vdW  Elec       q    Type
REMARK                         _______ _______ _______ _____ _____    ______ ____
ROOT
ATOM      1  C   UNL     1       0.101   1.270   0.447  0.00  0.00    +0.048 C 
ATOM      2  C   UNL     1       0.032  -0.232   0.337  0.00  0.00    -0.001 A 
ATOM      3  C   UNL     1      -0.086  -0.825  -0.894  0.00  0.00    +0.014 A 
ATOM      4  C   UNL     1      -0.151  -2.219  -1.005  0.00  0.00    +0.108 A 
ATOM      5  C   UNL     1      -0.093  -3.008   0.154  0.00  0.00    +0.145 A 
ATOM      6  C   UNL     1       0.026  -2.400   1.392  0.00  0.00    +0.041 A 
ATOM      7  C   UNL     1       0.095  -1.017   1.486  0.00  0.00    +0.130 A 
ATOM      8  C   UNL     1      -0.274  -2.548  -2.431  0.00  0.00    +0.343 C 
ATOM      9  O   UNL     1      -0.354  -3.674  -2.882  0.00  0.00    -0.245 OA
ATOM     10  O   UNL     1      -0.285  -1.422  -3.165  0.00  0.00    -0.456 OA
ATOM     11  C   UNL     1      -0.173  -0.288  -2.300  0.00  0.00    +0.269 C 
ENDROOT
BRANCH   7  12
ATOM     12  O   UNL     1       0.218  -0.428   2.702  0.00  0.00    -0.494 OA
ATOM     13  C   UNL     1      -0.992  -0.096   3.387  0.00  0.00    +0.277 C 
ENDBRANCH   7  12
BRANCH   6  14
ATOM     14  C   UNL     1       0.087  -3.242   2.640  0.00  0.00    +0.069 C 
BRANCH  14  15
ATOM     15  C   UNL     1       1.525  -3.422   3.053  0.00  0.00    -0.023 C 
ATOM     16  C   UNL     1       1.903  -3.103   4.266  0.00  0.00    -0.076 C 
ATOM     17  C   UNL     1       0.938  -2.418   5.200  0.00  0.00    +0.039 C 
BRANCH  16  18
ATOM     18  C   UNL     1       3.302  -3.420   4.728  0.00  0.00    +0.041 C 
BRANCH  18  19
ATOM     19  C   UNL     1       4.197  -2.197   4.521  0.00  0.00    +0.129 C 
BRANCH  19  20
ATOM     20  C   UNL     1       5.596  -2.514   4.982  0.00  0.00    +0.356 C 
ATOM     21  O   UNL     1       5.853  -3.616   5.436  0.00  0.00    -0.246 OA
ATOM     22  O   UNL     1       6.471  -1.669   4.903  0.00  0.00    -0.246 OA
ENDBRANCH  19  20
ENDBRANCH  18  19
ENDBRANCH  16  18
ENDBRANCH  14  15
ENDBRANCH   6  14
BRANCH   5  23
ATOM     23  O   UNL     1      -0.155  -4.360   0.062  0.00  0.00    -0.460 OA
BRANCH  23  24
ATOM     24  C   UNL     1       0.978  -5.094   0.528  0.00  0.00    +0.339 C 
ATOM     25  C   UNL     1       0.693  -6.595   0.425  0.00  0.00    +0.214 C 
ATOM     26  C   UNL     1       0.473  -6.964  -1.046  0.00  0.00    +0.180 C 
ATOM     27  C   UNL     1       1.706  -6.550  -1.855  0.00  0.00    +0.177 C 
ATOM     28  C   UNL     1       1.952  -5.051  -1.663  0.00  0.00    +0.179 C 
ATOM     29  O   UNL     1       2.118  -4.771  -0.271  0.00  0.00    -0.331 OA
BRANCH  27  30
ATOM     30  O   UNL     1       2.844  -7.284  -1.400  0.00  0.00    -0.386 OA
ATOM     31  H   UNL     1       2.755  -8.243  -1.489  0.00  0.00    +0.210 HD
ENDBRANCH  27  30
BRANCH  26  32
ATOM     32  O   UNL     1      -0.679  -6.281  -1.543  0.00  0.00    -0.386 OA
ATOM     33  H   UNL     1      -1.496  -6.492  -1.071  0.00  0.00    +0.210 HD
ENDBRANCH  26  32
BRANCH  25  34
ATOM     34  O   UNL     1       1.804  -7.330   0.942  0.00  0.00    -0.383 OA
ATOM     35  H   UNL     1       2.003  -7.141   1.869  0.00  0.00    +0.210 HD
ENDBRANCH  25  34
BRANCH  28  36
ATOM     36  C   UNL     1       3.217  -4.641  -2.420  0.00  0.00    +0.190 C 
BRANCH  36  37
ATOM     37  O   UNL     1       3.383  -3.224  -2.337  0.00  0.00    -0.392 OA
ATOM     38  H   UNL     1       4.167  -2.893  -2.796  0.00  0.00    +0.210 HD
ENDBRANCH  36  37
ENDBRANCH  28  36
ENDBRANCH  23  24
ENDBRANCH   5  23
TORSDOF 13
