REMARK  Name = ZINC63137722
REMARK  15 active torsions:
REMARK  status: ('A' for Active; 'I' for Inactive)
REMARK    1  A    between atoms: C_1  and  C_2
REMARK    2  A    between atoms: C_2  and  C_3
REMARK    3  A    between atoms: C_3  and  C_4
REMARK    4  A    between atoms: C_4  and  N_5
REMARK    5  A    between atoms: N_5  and  C_6
REMARK    6  A    between atoms: N_5  and  C_10
REMARK    7  A    between atoms: C_6  and  C_7
REMARK    8  A    between atoms: C_7  and  C_8
REMARK    9  A    between atoms: C_8  and  C_9
REMARK   10  A    between atoms: C_10  and  C_11
REMARK   11  A    between atoms: C_11  and  C_12
REMARK   12  A    between atoms: C_12  and  N_13
REMARK   13  A    between atoms: C_33  and  C_35
REMARK   14  A    between atoms: C_39  and  O_41
REMARK   15  A    between atoms: O_41  and  C_42
REMARK                            x       y       z     vdW  Elec       q    Type
REMARK                         _______ _______ _______ _____ _____    ______ ____
ROOT
ATOM      1  N   UNL     1      -5.729  -6.638   0.103  0.00  0.00    -0.291 N 
ATOM      2  C   UNL     1      -6.608  -6.749   1.282  0.00  0.00    +0.203 C 
ATOM      3  C   UNL     1      -7.959  -6.162   0.931  0.00  0.00    +0.234 C 
ATOM      4  O   UNL     1      -8.550  -5.428   1.694  0.00  0.00    -0.274 OA
ATOM      5  N   UNL     1      -8.484  -6.500  -0.293  0.00  0.00    -0.279 N 
ATOM      6  C   UNL     1      -7.706  -7.447  -1.063  0.00  0.00    +0.167 C 
ATOM      7  C   UNL     1      -6.266  -7.003  -1.099  0.00  0.00    +0.237 C 
ATOM      8  O   UNL     1      -5.624  -6.976  -2.128  0.00  0.00    -0.274 OA
ATOM      9  C   UNL     1      -8.215  -7.851  -2.423  0.00  0.00    +0.065 C 
ATOM     10  C   UNL     1      -9.376  -6.979  -2.816  0.00  0.00    -0.034 C 
ATOM     11  C   UNL     1      -9.715  -6.415  -3.966  0.00  0.00    -0.001 A 
ATOM     12  C   UNL     1      -9.103  -6.471  -5.304  0.00  0.00    +0.010 A 
ATOM     13  C   UNL     1      -9.720  -5.750  -6.277  0.00  0.00    +0.001 A 
ATOM     14  C   UNL     1     -10.871  -4.987  -6.057  0.00  0.00    +0.002 A 
ATOM     15  C   UNL     1     -11.504  -4.882  -4.861  0.00  0.00    +0.026 A 
ATOM     16  C   UNL     1     -10.951  -5.600  -3.760  0.00  0.00    +0.043 A 
ATOM     17  N   UNL     1     -11.350  -5.685  -2.527  0.00  0.00    -0.375 N 
ATOM     18  C   UNL     1     -10.443  -6.581  -1.799  0.00  0.00    +0.131 C 
ATOM     19  C   UNL     1      -9.719  -5.837  -0.688  0.00  0.00    +0.134 C 
ATOM     20  H   UNL     1     -12.120  -5.231  -2.150  0.00  0.00    +0.160 HD
ENDROOT
BRANCH  19  21
ATOM     21  C   UNL     1     -10.613  -5.708   0.518  0.00  0.00    -0.021 A 
ATOM     22  C   UNL     1     -10.699  -6.745   1.430  0.00  0.00    +0.006 A 
ATOM     23  C   UNL     1     -11.518  -6.629   2.537  0.00  0.00    +0.004 A 
ATOM     24  C   UNL     1     -12.255  -5.477   2.736  0.00  0.00    +0.045 A 
ATOM     25  C   UNL     1     -12.171  -4.435   1.823  0.00  0.00    +0.120 A 
ATOM     26  C   UNL     1     -11.342  -4.551   0.716  0.00  0.00    +0.051 A 
BRANCH  25  27
ATOM     27  O   UNL     1     -12.893  -3.301   2.017  0.00  0.00    -0.495 OA
ATOM     28  C   UNL     1     -13.720  -3.249   3.181  0.00  0.00    +0.277 C 
ENDBRANCH  25  27
ENDBRANCH  19  21
BRANCH   1  29
ATOM     29  C   UNL     1      -4.351  -6.154   0.214  0.00  0.00    +0.106 C 
BRANCH  29  30
ATOM     30  C   UNL     1      -4.329  -4.633   0.047  0.00  0.00    +0.000 C 
BRANCH  30  31
ATOM     31  C   UNL     1      -2.889  -4.128   0.163  0.00  0.00    -0.077 C 
BRANCH  31  32
ATOM     32  N   UNL     1      -2.855  -2.684  -0.101  0.00  0.00    +0.380 N 
ATOM     33  H   UNL     1      -3.280  -2.495  -0.996  0.00  0.00    -0.082 HD
BRANCH  32  34
ATOM     34  C   UNL     1      -3.595  -1.975   0.952  0.00  0.00    -0.079 C 
BRANCH  34  35
ATOM     35  C   UNL     1      -3.665  -0.485   0.611  0.00  0.00    -0.019 C 
BRANCH  35  37
ATOM     36  C   UNL     1      -4.506   1.742   1.367  0.00  0.00    +0.004 C 
ATOM     37  C   UNL     1      -4.436   0.253   1.708  0.00  0.00    -0.005 C 
ENDBRANCH  35  37
ENDBRANCH  34  35
ENDBRANCH  32  34
BRANCH  32  38
ATOM     38  C   UNL     1      -1.460  -2.222  -0.115  0.00  0.00    -0.079 C 
BRANCH  38  39
ATOM     39  C   UNL     1      -0.731  -2.836  -1.312  0.00  0.00    -0.019 C 
BRANCH  39  40
ATOM     40  C   UNL     1       0.733  -2.393  -1.299  0.00  0.00    -0.005 C 
ATOM     41  C   UNL     1       1.462  -3.007  -2.496  0.00  0.00    +0.004 C 
ENDBRANCH  39  40
ENDBRANCH  38  39
ENDBRANCH  32  38
ENDBRANCH  31  32
ENDBRANCH  30  31
ENDBRANCH  29  30
ENDBRANCH   1  29
TORSDOF 12
