REMARK  Name = ZINC21258489
REMARK  13 active torsions:
REMARK  status: ('A' for Active; 'I' for Inactive)
REMARK    1  A    between atoms: C_1  and  C_2
REMARK    2  A    between atoms: C_2  and  O_3
REMARK    3  A    between atoms: O_3  and  C_4
REMARK    4  A    between atoms: C_6  and  C_14
REMARK    5  A    between atoms: C_9  and  O_10
REMARK    6  A    between atoms: O_10  and  C_11
REMARK    7  A    between atoms: C_11  and  C_12
REMARK    8  A    between atoms: C_11  and  C_13
REMARK    9  A    between atoms: C_19  and  C_24
REMARK   10  A    between atoms: C_27  and  O_30
REMARK   11  A    between atoms: O_30  and  C_31
REMARK   12  A    between atoms: C_31  and  C_32
REMARK   13  A    between atoms: C_31  and  C_33
REMARK                            x       y       z     vdW  Elec       q    Type
REMARK                         _______ _______ _______ _____ _____    ______ ____
ROOT
ATOM      1  C   UNL     1      -2.297  -0.238   3.530  0.00  0.00    +0.136 C 
ATOM      2  C   UNL     1      -1.972  -0.531   2.085  0.00  0.00    +0.036 C 
ATOM      3  C   UNL     1      -1.654  -1.734   1.576  0.00  0.00    +0.017 C 
ATOM      4  C   UNL     1      -1.362  -1.892   0.093  0.00  0.00    +0.059 C 
ATOM      5  C   UNL     1      -0.725  -0.615  -0.453  0.00  0.00    +0.032 C 
ATOM      6  C   UNL     1      -1.712   0.535  -0.220  0.00  0.00    +0.088 C 
ATOM      7  C   UNL     1      -2.024   0.607   1.244  0.00  0.00    +0.163 C 
ATOM      8  O   UNL     1      -2.333   1.679   1.727  0.00  0.00    -0.292 OA
ATOM      9  N   UNL     1      -1.581  -2.881   2.297  0.00  0.00    -0.316 N 
ATOM     10  C   UNL     1      -0.938  -3.014   3.522  0.00  0.00    +0.052 A 
ATOM     11  C   UNL     1       0.140  -3.863   3.704  0.00  0.00    +0.025 A 
ATOM     12  C   UNL     1       0.659  -4.037   4.976  0.00  0.00    +0.002 A 
ATOM     13  C   UNL     1       0.107  -3.367   6.052  0.00  0.00    +0.002 A 
ATOM     14  C   UNL     1      -0.956  -2.500   5.868  0.00  0.00    +0.025 A 
ATOM     15  C   UNL     1      -1.466  -2.310   4.594  0.00  0.00    +0.049 A 
ATOM     16  N   UNL     1      -2.505  -1.412   4.351  0.00  0.00    -0.331 N 
ATOM     17  H   UNL     1      -2.054  -3.800   1.918  0.00  0.00    +0.152 HD
ATOM     18  H   UNL     1      -3.493  -1.607   4.793  0.00  0.00    +0.147 HD
ENDROOT
BRANCH   1  21
ATOM     19  C   UNL     1      -0.342   2.602   5.074  0.00  0.00    +0.162 A 
ATOM     20  C   UNL     1      -1.383   1.862   4.537  0.00  0.00    +0.055 A 
ATOM     21  C   UNL     1      -1.165   0.562   4.120  0.00  0.00    -0.019 A 
ATOM     22  C   UNL     1       0.089  -0.007   4.249  0.00  0.00    +0.009 A 
ATOM     23  C   UNL     1       1.132   0.725   4.784  0.00  0.00    +0.050 A 
ATOM     24  C   UNL     1       0.921   2.031   5.198  0.00  0.00    +0.162 A 
BRANCH  19  25
ATOM     25  O   UNL     1      -0.553   3.883   5.478  0.00  0.00    -0.489 OA
BRANCH  25  27
ATOM     26  C   UNL     1      -1.919   5.846   5.827  0.00  0.00    +0.048 C 
ATOM     27  C   UNL     1      -1.875   4.403   5.321  0.00  0.00    +0.226 C 
ENDBRANCH  25  27
ENDBRANCH  19  25
BRANCH  24  28
ATOM     28  O   UNL     1       1.947   2.753   5.724  0.00  0.00    -0.486 OA
BRANCH  28  29
ATOM     29  C   UNL     1       3.227   2.119   5.777  0.00  0.00    +0.167 C 
ATOM     30  C   UNL     1       4.323   3.186   5.810  0.00  0.00    +0.051 C 
ATOM     31  C   UNL     1       3.317   1.255   7.037  0.00  0.00    +0.051 C 
ENDBRANCH  28  29
ENDBRANCH  24  28
ENDBRANCH   1  21
BRANCH   5  32
ATOM     32  C   UNL     1      -0.457  -0.769  -1.928  0.00  0.00    -0.043 A 
ATOM     33  C   UNL     1      -1.504  -1.018  -2.796  0.00  0.00    +0.007 A 
ATOM     34  C   UNL     1      -1.262  -1.154  -4.150  0.00  0.00    +0.046 A 
ATOM     35  C   UNL     1       0.033  -1.050  -4.636  0.00  0.00    +0.121 A 
ATOM     36  C   UNL     1       1.082  -0.805  -3.761  0.00  0.00    +0.046 A 
ATOM     37  C   UNL     1       0.835  -0.665  -2.409  0.00  0.00    +0.007 A 
BRANCH  35  38
ATOM     38  O   UNL     1       0.274  -1.188  -5.966  0.00  0.00    -0.489 OA
BRANCH  38  39
ATOM     39  C   UNL     1       1.613  -0.957  -6.410  0.00  0.00    +0.167 C 
ATOM     40  C   UNL     1       2.441  -2.228  -6.217  0.00  0.00    +0.051 C 
ATOM     41  C   UNL     1       1.600  -0.578  -7.893  0.00  0.00    +0.051 C 
ENDBRANCH  38  39
ENDBRANCH  35  38
ENDBRANCH   5  32
TORSDOF 8
