REMARK  Name = ZINC01177314
REMARK  8 active torsions:
REMARK  status: ('A' for Active; 'I' for Inactive)
REMARK    1  A    between atoms: C_1  and  N_2
REMARK    2  A    between atoms: N_2  and  C_3
REMARK    3  A    between atoms: N_2  and  N_4
REMARK    4  A    between atoms: C_7  and  C_14
REMARK    5  A    between atoms: C_9  and  C_12
REMARK    6  A    between atoms: C_10  and  N_11
REMARK    7  A    between atoms: C_17  and  N_20
REMARK    8  A    between atoms: C_26  and  C_29
REMARK                            x       y       z     vdW  Elec       q    Type
REMARK                         _______ _______ _______ _____ _____    ______ ____
ROOT
ATOM      1  N   UNL     1       4.640   5.378   2.126  0.00  0.00    -0.223 N 
ATOM      2  C   UNL     1       4.060   4.976   0.953  0.00  0.00    +0.037 C 
ATOM      3  C   UNL     1       4.215   5.701  -0.175  0.00  0.00    +0.026 C 
ATOM      4  C   UNL     1       5.012   6.981  -0.169  0.00  0.00    +0.097 C 
ATOM      5  C   UNL     1       5.902   7.059   1.035  0.00  0.00    +0.078 C 
ATOM      6  C   UNL     1       5.685   6.271   2.120  0.00  0.00    +0.117 C 
ATOM      7  C   UNL     1       3.636   5.288  -1.387  0.00  0.00    +0.162 C 
ATOM      8  O   UNL     1       3.787   5.968  -2.383  0.00  0.00    -0.292 OA
ATOM      9  C   UNL     1       2.832   4.019  -1.476  0.00  0.00    +0.088 C 
ATOM     10  C   UNL     1       3.336   3.035  -0.416  0.00  0.00    +0.032 C 
ATOM     11  C   UNL     1       3.242   3.708   0.955  0.00  0.00    +0.061 C 
ENDROOT
BRANCH   4  12
ATOM     12  C   UNL     1       4.064   8.153  -0.160  0.00  0.00    -0.035 A 
ATOM     13  C   UNL     1       3.163   8.305   0.878  0.00  0.00    +0.007 A 
ATOM     14  C   UNL     1       2.298   9.383   0.889  0.00  0.00    +0.033 A 
ATOM     15  C   UNL     1       2.326  10.303  -0.142  0.00  0.00    +0.126 A 
ATOM     16  C   UNL     1       3.223  10.148  -1.182  0.00  0.00    +0.033 A 
ATOM     17  C   UNL     1       4.092   9.073  -1.191  0.00  0.00    +0.007 A 
BRANCH  15  18
ATOM     18  N   UNL     1       1.395  11.454  -0.133  0.00  0.00    +0.056 N 
ATOM     19  O   UNL     1       1.420  12.265  -1.041  0.00  0.00    -0.126 OA
ATOM     20  O   UNL     1       0.605  11.591   0.784  0.00  0.00    -0.126 OA
ENDBRANCH  15  18
ENDBRANCH   4  12
BRANCH  10  21
ATOM     21  C   UNL     1       2.481   1.794  -0.430  0.00  0.00    -0.044 A 
ATOM     22  C   UNL     1       3.052   0.563  -0.694  0.00  0.00    +0.004 A 
ATOM     23  C   UNL     1       2.268  -0.575  -0.707  0.00  0.00    +0.000 A 
ATOM     24  C   UNL     1       0.911  -0.482  -0.461  0.00  0.00    +0.000 A 
ATOM     25  C   UNL     1       0.340   0.748  -0.192  0.00  0.00    +0.000 A 
ATOM     26  C   UNL     1       1.124   1.886  -0.179  0.00  0.00    +0.004 A 
ENDBRANCH  10  21
BRANCH   1  28
ATOM     27  C   UNL     1       5.162   3.995   3.936  0.00  0.00    +0.128 C 
ATOM     28  N   UNL     1       4.176   4.887   3.313  0.00  0.00    -0.227 NA
ATOM     29  C   UNL     1       3.803   5.978   4.224  0.00  0.00    +0.128 C 
ENDBRANCH   1  28
BRANCH   6  30
ATOM     30  N   UNL     1       6.511   6.366   3.214  0.00  0.00    -0.344 N 
ATOM     31  H   UNL     1       6.187   6.106   4.090  0.00  0.00    +0.144 HD
ATOM     32  H   UNL     1       7.418   6.693   3.109  0.00  0.00    +0.144 HD
ENDBRANCH   6  30
BRANCH   5  33
ATOM     33  C   UNL     1       6.999   7.979   1.042  0.00  0.00    +0.099 C 
ATOM     34  N   UNL     1       7.870   8.709   1.047  0.00  0.00    -0.191 NA
ENDBRANCH   5  33
TORSDOF 6
