REMARK  Name = ZINC19858559
REMARK  9 active torsions:
REMARK  status: ('A' for Active; 'I' for Inactive)
REMARK    1  A    between atoms: C_1  and  C_2
REMARK    2  A    between atoms: C_3  and  C_34
REMARK    3  A    between atoms: C_4  and  C_25
REMARK    4  A    between atoms: C_10  and  C_20
REMARK    5  A    between atoms: C_12  and  C_16
REMARK    6  A    between atoms: C_16  and  O_18
REMARK    7  A    between atoms: O_18  and  C_19
REMARK    8  A    between atoms: C_34  and  O_36
REMARK    9  A    between atoms: O_36  and  C_37
REMARK                            x       y       z     vdW  Elec       q    Type
REMARK                         _______ _______ _______ _____ _____    ______ ____
ROOT
ATOM      1  C   UNL     1      -5.276   2.127  -2.216  0.00  0.00    +0.061 C 
ATOM      2  C   UNL     1      -4.435   2.552  -1.040  0.00  0.00    +0.016 C 
ATOM      3  C   UNL     1      -3.418   3.413  -1.222  0.00  0.00    +0.065 C 
ATOM      4  C   UNL     1      -2.556   3.853  -0.076  0.00  0.00    +0.092 C 
ATOM      5  C   UNL     1      -3.229   3.575   1.245  0.00  0.00    +0.025 C 
ATOM      6  C   UNL     1      -4.254   2.701   1.326  0.00  0.00    +0.016 C 
ATOM      7  N   UNL     1      -4.711   2.061   0.205  0.00  0.00    -0.321 N 
ATOM      8  C   UNL     1      -4.918   2.403   2.647  0.00  0.00    +0.061 C 
ATOM      9  C   UNL     1      -4.857   3.642   3.543  0.00  0.00    +0.053 C 
ATOM     10  C   UNL     1      -3.388   4.032   3.734  0.00  0.00    +0.176 C 
ATOM     11  C   UNL     1      -2.760   4.252   2.385  0.00  0.00    +0.176 C 
ATOM     12  O   UNL     1      -1.831   5.027   2.279  0.00  0.00    -0.291 OA
ATOM     13  H   UNL     1      -5.306   1.142   0.315  0.00  0.00    +0.152 HD
ENDROOT
BRANCH   4  14
ATOM     14  C   UNL     1      -1.245   3.112  -0.129  0.00  0.00    -0.032 A 
ATOM     15  C   UNL     1      -1.230   1.731  -0.061  0.00  0.00    +0.008 A 
ATOM     16  C   UNL     1      -0.030   1.047  -0.103  0.00  0.00    +0.050 A 
ATOM     17  C   UNL     1       1.161   1.743  -0.227  0.00  0.00    +0.166 A 
ATOM     18  C   UNL     1       1.146   3.134  -0.302  0.00  0.00    +0.167 A 
ATOM     19  C   UNL     1      -0.060   3.813  -0.253  0.00  0.00    +0.054 A 
ATOM     20  O   UNL     1       2.431   3.579  -0.419  0.00  0.00    -0.453 OA
ATOM     21  C   UNL     1       3.200   2.431  -0.825  0.00  0.00    +0.466 C 
ATOM     22  O   UNL     1       2.456   1.317  -0.297  0.00  0.00    -0.453 OA
ENDBRANCH   4  14
BRANCH   9  23
ATOM     23  C   UNL     1      -5.476   3.329   4.882  0.00  0.00    -0.006 A 
ATOM     24  C   UNL     1      -6.541   3.911   5.486  0.00  0.00    +0.011 A 
ATOM     25  C   UNL     1      -6.937   3.455   6.730  0.00  0.00    +0.008 A 
ATOM     26  C   UNL     1      -6.249   2.440   7.308  0.00  0.00    +0.045 A 
ATOM     27  S   UNL     1      -5.002   2.092   6.078  0.00  0.00    -0.101 S 
ENDBRANCH   9  23
BRANCH  10  28
ATOM     28  C   UNL     1      -3.305   5.301   4.543  0.00  0.00    +0.318 C 
ATOM     29  O   UNL     1      -4.316   5.839   4.929  0.00  0.00    -0.250 OA
BRANCH  28  30
ATOM     30  O   UNL     1      -2.108   5.833   4.836  0.00  0.00    -0.467 OA
ATOM     31  C   UNL     1      -2.103   7.056   5.619  0.00  0.00    +0.280 C 
ENDBRANCH  28  30
ENDBRANCH  10  28
BRANCH   3  32
ATOM     32  C   UNL     1      -3.157   3.912  -2.519  0.00  0.00    +0.337 C 
ATOM     33  O   UNL     1      -3.779   3.484  -3.473  0.00  0.00    -0.245 OA
BRANCH  32  34
ATOM     34  O   UNL     1      -2.218   4.865  -2.699  0.00  0.00    -0.465 OA
ATOM     35  C   UNL     1      -2.006   5.323  -4.036  0.00  0.00    +0.280 C 
ENDBRANCH  32  34
ENDBRANCH   3  32
TORSDOF 6
