REMARK  Name = ZINC39663922
REMARK  14 active torsions:
REMARK  status: ('A' for Active; 'I' for Inactive)
REMARK    1  A    between atoms: C_1  and  C_2
REMARK    2  A    between atoms: C_2  and  C_3
REMARK    3  A    between atoms: C_3  and  C_5
REMARK    4  A    between atoms: C_3  and  C_6
REMARK    5  A    between atoms: C_6  and  C_7
REMARK    6  A    between atoms: C_11  and  C_20
REMARK    7  A    between atoms: N_22  and  C_23
REMARK    8  A    between atoms: C_23  and  C_24
REMARK    9  A    between atoms: C_24  and  C_26
REMARK   10  A    between atoms: C_24  and  N_34
REMARK   11  A    between atoms: C_29  and  O_32
REMARK   12  A    between atoms: O_32  and  C_33
REMARK   13  A    between atoms: N_34  and  C_35
REMARK   14  A    between atoms: N_34  and  C_36
REMARK                            x       y       z     vdW  Elec       q    Type
REMARK                         _______ _______ _______ _____ _____    ______ ____
ROOT
ATOM      1  C   UNL     1      -2.994  -3.698  -1.136  0.00  0.00    +0.216 C 
ATOM      2  O   UNL     1      -3.895  -2.893  -1.244  0.00  0.00    -0.276 OA
ATOM      3  N   UNL     1      -3.274  -5.011  -1.017  0.00  0.00    -0.300 N 
ATOM      4  C   UNL     1      -2.318  -6.134  -0.870  0.00  0.00    +0.121 C 
ATOM      5  C   UNL     1      -2.985  -7.084   0.150  0.00  0.00    +0.100 C 
ATOM      6  C   UNL     1      -4.487  -6.768   0.055  0.00  0.00    -0.004 C 
ATOM      7  C   UNL     1      -4.608  -5.658  -0.999  0.00  0.00    +0.115 C 
ATOM      8  C   UNL     1      -5.009  -6.269   1.399  0.00  0.00    -0.010 C 
ATOM      9  C   UNL     1      -6.515  -6.017   1.296  0.00  0.00    -0.082 C 
ATOM     10  N   UNL     1      -7.197  -7.260   0.915  0.00  0.00    +0.379 N 
ATOM     11  C   UNL     1      -6.757  -7.683  -0.421  0.00  0.00    -0.082 C 
ATOM     12  C   UNL     1      -5.261  -8.006  -0.389  0.00  0.00    -0.010 C 
ATOM     13  H   UNL     1      -6.976  -7.982   1.584  0.00  0.00    -0.086 HD
ATOM     14  H   UNL     1      -8.194  -7.107   0.906  0.00  0.00    -0.086 HD
ENDROOT
BRANCH   5  15
ATOM     15  C   UNL     1      -2.475  -6.804   1.540  0.00  0.00    +0.218 C 
ATOM     16  O   UNL     1      -2.092  -5.691   1.833  0.00  0.00    -0.275 OA
ATOM     17  N   UNL     1      -2.443  -7.790   2.458  0.00  0.00    -0.316 N 
ATOM     18  H   UNL     1      -2.749  -8.680   2.224  0.00  0.00    +0.149 HD
BRANCH  17  19
ATOM     19  C   UNL     1      -1.947  -7.518   3.809  0.00  0.00    +0.093 C 
BRANCH  19  20
ATOM     20  C   UNL     1      -1.901  -8.822   4.608  0.00  0.00    -0.021 C 
BRANCH  20  21
ATOM     21  C   UNL     1      -0.902  -9.760   3.982  0.00  0.00    -0.059 A 
ATOM     22  C   UNL     1       0.448  -9.602   4.238  0.00  0.00    +0.005 A 
ATOM     23  C   UNL     1       1.366 -10.460   3.665  0.00  0.00    +0.046 A 
ATOM     24  C   UNL     1       0.933 -11.482   2.832  0.00  0.00    +0.120 A 
ATOM     25  C   UNL     1      -0.422 -11.639   2.577  0.00  0.00    +0.046 A 
ATOM     26  C   UNL     1      -1.337 -10.781   3.157  0.00  0.00    +0.005 A 
BRANCH  24  27
ATOM     27  O   UNL     1       1.834 -12.328   2.267  0.00  0.00    -0.495 OA
ATOM     28  C   UNL     1       1.317 -13.356   1.421  0.00  0.00    +0.277 C 
ENDBRANCH  24  27
ENDBRANCH  20  21
BRANCH  20  29
ATOM     29  N   UNL     1      -1.503  -8.534   5.992  0.00  0.00    +0.382 N 
ATOM     30  C   UNL     1      -2.501  -7.657   6.617  0.00  0.00    -0.096 C 
ATOM     31  C   UNL     1      -1.414  -9.791   6.747  0.00  0.00    -0.096 C 
ATOM     32  H   UNL     1      -0.604  -8.076   5.995  0.00  0.00    -0.082 HD
ENDBRANCH  20  29
ENDBRANCH  19  20
ENDBRANCH  17  19
ENDBRANCH   5  15
BRANCH   1  33
ATOM     33  C   UNL     1      -1.561  -3.230  -1.133  0.00  0.00    +0.099 C 
BRANCH  33  34
ATOM     34  C   UNL     1      -1.522  -1.708  -1.280  0.00  0.00    -0.006 C 
ATOM     35  C   UNL     1      -2.162  -1.060  -0.050  0.00  0.00    +0.008 C 
BRANCH  34  37
ATOM     36  C   UNL     1      -0.035   0.261  -1.674  0.00  0.00    +0.004 C 
ATOM     37  C   UNL     1      -0.069  -1.244  -1.403  0.00  0.00    +0.000 C 
ENDBRANCH  34  37
ENDBRANCH  33  34
ENDBRANCH   1  33
TORSDOF 9
