REMARK  Name = ZINC47383570
REMARK  7 active torsions:
REMARK  status: ('A' for Active; 'I' for Inactive)
REMARK    1  A    between atoms: C_1  and  C_2
REMARK    2  A    between atoms: C_2  and  C_3
REMARK    3  A    between atoms: C_2  and  N_4
REMARK    4  A    between atoms: N_7  and  C_8
REMARK    5  A    between atoms: C_13  and  N_14
REMARK    6  A    between atoms: N_14  and  S_15
REMARK    7  A    between atoms: S_15  and  C_18
REMARK                            x       y       z     vdW  Elec       q    Type
REMARK                         _______ _______ _______ _____ _____    ______ ____
ROOT
ATOM      1  C   UNL     1       0.104  -1.066   4.736  0.00  0.00    +0.057 A 
ATOM      2  C   UNL     1      -1.245  -0.774   4.875  0.00  0.00    +0.025 A 
ATOM      3  C   UNL     1      -1.864  -0.936   6.100  0.00  0.00    +0.002 A 
ATOM      4  C   UNL     1      -1.143  -1.388   7.189  0.00  0.00    +0.002 A 
ATOM      5  C   UNL     1       0.201  -1.681   7.060  0.00  0.00    +0.026 A 
ATOM      6  C   UNL     1       0.830  -1.528   5.833  0.00  0.00    +0.069 A 
ENDROOT
BRANCH   1  10
ATOM      7  N   UNL     1       1.021   0.311   1.520  0.00  0.00    -0.297 N 
ATOM      8  C   UNL     1       0.357   0.099   2.674  0.00  0.00    +0.304 C 
ATOM      9  O   UNL     1      -0.582   0.810   2.974  0.00  0.00    -0.253 OA
ATOM     10  N   UNL     1       0.734  -0.902   3.494  0.00  0.00    -0.268 N 
ATOM     11  H   UNL     1       1.770  -0.257   1.280  0.00  0.00    +0.151 HD
ATOM     12  H   UNL     1       1.441  -1.509   3.225  0.00  0.00    +0.156 HD
BRANCH   7  14
ATOM     13  C   UNL     1       1.273   2.703   1.078  0.00  0.00    +0.027 C 
ATOM     14  C   UNL     1       0.612   1.399   0.628  0.00  0.00    +0.068 C 
ATOM     15  C   UNL     1       1.044   1.075  -0.803  0.00  0.00    +0.027 C 
ENDBRANCH   7  14
ENDBRANCH   1  10
BRANCH   6  16
ATOM     16  N   UNL     1       2.189  -1.830   5.698  0.00  0.00    -0.214 N 
ATOM     17  H   UNL     1       2.747  -1.302   5.106  0.00  0.00    +0.174 HD
BRANCH  16  18
ATOM     18  S   UNL     1       2.845  -3.091   6.548  0.00  0.00    +0.072 S 
ATOM     19  O   UNL     1       4.189  -3.225   6.104  0.00  0.00    -0.150 OA
ATOM     20  O   UNL     1       2.512  -2.877   7.913  0.00  0.00    -0.150 OA
BRANCH  18  21
ATOM     21  C   UNL     1       2.001  -4.553   6.046  0.00  0.00    +0.109 A 
ATOM     22  C   UNL     1       0.852  -4.951   6.729  0.00  0.00    +0.029 A 
ATOM     23  C   UNL     1       0.176  -6.075   6.367  0.00  0.00    +0.010 A 
ATOM     24  C   UNL     1       0.640  -6.850   5.290  0.00  0.00    -0.018 A 
ATOM     25  C   UNL     1      -0.031  -8.017   4.887  0.00  0.00    +0.008 A 
ATOM     26  C   UNL     1       0.448  -8.741   3.839  0.00  0.00    +0.001 A 
ATOM     27  C   UNL     1       1.596  -8.344   3.157  0.00  0.00    +0.001 A 
ATOM     28  C   UNL     1       2.272  -7.219   3.519  0.00  0.00    +0.008 A 
ATOM     29  C   UNL     1       1.808  -6.445   4.596  0.00  0.00    -0.016 A 
ATOM     30  C   UNL     1       2.476  -5.275   4.995  0.00  0.00    +0.037 A 
ENDBRANCH  18  21
ENDBRANCH  16  18
ENDBRANCH   6  16
TORSDOF 5
