REMARK  Name = ZINC58407804
REMARK  5 active torsions:
REMARK  status: ('A' for Active; 'I' for Inactive)
REMARK    1  A    between atoms: C_1  and  C_2
REMARK    2  A    between atoms: C_6  and  C_28
REMARK    3  A    between atoms: C_7  and  N_8
REMARK    4  A    between atoms: C_14  and  C_15
REMARK    5  A    between atoms: C_18  and  N_22
REMARK                            x       y       z     vdW  Elec       q    Type
REMARK                         _______ _______ _______ _____ _____    ______ ____
ROOT
ATOM      1  N   UNL     1      -0.116   1.241   1.842  0.00  0.00    -0.225 NA
ATOM      2  C   UNL     1      -1.222   1.261   2.551  0.00  0.00    +0.166 C 
ATOM      3  N   UNL     1      -2.503   0.951   2.150  0.00  0.00    -0.260 N 
ATOM      4  C   UNL     1      -3.513   1.024   3.000  0.00  0.00    +0.256 C 
ATOM      5  O   UNL     1      -4.651   0.754   2.662  0.00  0.00    -0.269 OA
ATOM      6  C   UNL     1      -3.197   1.448   4.378  0.00  0.00    +0.078 C 
ATOM      7  C   UNL     1      -4.026   1.607   5.441  0.00  0.00    +0.028 C 
ATOM      8  S   UNL     1      -1.430   1.689   4.272  0.00  0.00    -0.049 S 
ATOM      9  H   UNL     1      -2.666   0.676   1.234  0.00  0.00    +0.157 HD
ENDROOT
BRANCH   1  16
ATOM     10  C   UNL     1      -0.523   3.298  -0.076  0.00  0.00    +0.046 C 
ATOM     11  C   UNL     1      -0.354   1.852  -0.463  0.00  0.00    -0.025 A 
ATOM     12  C   UNL     1      -0.388   1.483  -1.792  0.00  0.00    +0.005 A 
ATOM     13  C   UNL     1      -0.232   0.155  -2.149  0.00  0.00    +0.001 A 
ATOM     14  C   UNL     1      -0.041  -0.811  -1.178  0.00  0.00    +0.005 A 
ATOM     15  C   UNL     1      -0.005  -0.457   0.155  0.00  0.00    -0.025 A 
ATOM     16  C   UNL     1      -0.156   0.882   0.522  0.00  0.00    +0.072 A 
ATOM     17  C   UNL     1       0.203  -1.512   1.211  0.00  0.00    +0.046 C 
ENDBRANCH   1  16
BRANCH   7  18
ATOM     18  C   UNL     1      -3.518   2.200   6.686  0.00  0.00    -0.021 A 
ATOM     19  C   UNL     1      -2.315   2.917   6.683  0.00  0.00    +0.010 A 
ATOM     20  C   UNL     1      -1.843   3.471   7.851  0.00  0.00    +0.031 A 
ATOM     21  C   UNL     1      -2.558   3.321   9.034  0.00  0.00    +0.102 A 
ATOM     22  C   UNL     1      -3.755   2.609   9.044  0.00  0.00    +0.149 A 
ATOM     23  C   UNL     1      -4.239   2.055   7.877  0.00  0.00    +0.048 A 
ATOM     24  F   UNL     1      -4.445   2.466  10.196  0.00  0.00    -0.203 F 
BRANCH  21  25
ATOM     25  N   UNL     1      -2.073   3.886  10.219  0.00  0.00    -0.218 N 
ATOM     26  C   UNL     1      -2.644   3.823  11.438  0.00  0.00    +0.225 A 
ATOM     27  N   UNL     1      -1.882   4.476  12.277  0.00  0.00    -0.222 NA
ATOM     28  C   UNL     1      -0.821   4.966  11.637  0.00  0.00    +0.245 A 
ATOM     29  N   UNL     1      -0.890   4.628  10.376  0.00  0.00    -0.153 NA
ENDBRANCH  21  25
ENDBRANCH   7  18
TORSDOF 3
