REMARK  Name = ZINC04865174
REMARK  8 active torsions:
REMARK  status: ('A' for Active; 'I' for Inactive)
REMARK    1  A    between atoms: C_1  and  C_2
REMARK    2  A    between atoms: N_6  and  N_7
REMARK    3  A    between atoms: C_8  and  C_10
REMARK    4  A    between atoms: C_13  and  C_16
REMARK    5  A    between atoms: C_16  and  S_17
REMARK    6  A    between atoms: S_17  and  C_18
REMARK    7  A    between atoms: C_29  and  C_31
REMARK    8  A    between atoms: C_29  and  C_32
REMARK                            x       y       z     vdW  Elec       q    Type
REMARK                         _______ _______ _______ _____ _____    ______ ____
ROOT
ATOM      1  C   UNL     1      -2.358  -6.431  -1.456  0.00  0.00    +0.038 A 
ATOM      2  C   UNL     1      -1.605  -7.013  -0.435  0.00  0.00    +0.013 A 
ATOM      3  C   UNL     1      -1.476  -8.385  -0.374  0.00  0.00    +0.005 A 
ATOM      4  C   UNL     1      -2.089  -9.184  -1.323  0.00  0.00    -0.037 A 
ATOM      5  C   UNL     1      -2.836  -8.613  -2.338  0.00  0.00    +0.005 A 
ATOM      6  C   UNL     1      -2.979  -7.243  -2.407  0.00  0.00    +0.013 A 
ENDROOT
BRANCH   1   8
ATOM      7  N   UNL     1      -1.901  -4.181  -0.607  0.00  0.00    -0.203 N 
ATOM      8  C   UNL     1      -2.502  -4.962  -1.527  0.00  0.00    +0.263 C 
ATOM      9  O   UNL     1      -3.162  -4.457  -2.415  0.00  0.00    -0.268 OA
ATOM     10  H   UNL     1      -1.375  -4.583   0.101  0.00  0.00    +0.178 HD
BRANCH   7  15
ATOM     11  C   UNL     1      -0.020   1.528   0.001  0.00  0.00    +0.008 C 
ATOM     12  C   UNL     1       0.003  -0.002  -0.009  0.00  0.00    -0.008 C 
ATOM     13  C   UNL     1      -1.434  -0.534   0.011  0.00  0.00    +0.055 C 
ATOM     14  C   UNL     1      -1.387  -2.041   0.136  0.00  0.00    +0.038 C 
ATOM     15  N   UNL     1      -2.038  -2.788  -0.674  0.00  0.00    -0.189 NA
ATOM     16  C   UNL     1      -0.550  -2.643   1.244  0.00  0.00    +0.059 C 
ATOM     17  C   UNL     1       0.854  -2.034   1.179  0.00  0.00    -0.029 C 
ATOM     18  C   UNL     1       0.750  -0.509   1.226  0.00  0.00    +0.010 C 
ATOM     19  C   UNL     1       1.679  -2.526   2.370  0.00  0.00    +0.011 C 
ATOM     20  C   UNL     1       1.535  -2.459  -0.123  0.00  0.00    +0.011 C 
ENDBRANCH   7  15
ENDBRANCH   1   8
BRANCH   4  21
ATOM     21  C   UNL     1      -1.943 -10.682  -1.251  0.00  0.00    +0.112 C 
BRANCH  21  22
ATOM     22  S   UNL     1      -3.283 -11.372  -0.242  0.00  0.00    -0.083 S 
BRANCH  22  23
ATOM     23  C   UNL     1      -2.975 -13.107  -0.254  0.00  0.00    +0.168 A 
ATOM     24  N   UNL     1      -3.741 -14.045   0.379  0.00  0.00    -0.333 N 
ATOM     25  H   UNL     1      -4.538 -13.877   0.906  0.00  0.00    +0.168 HD
ATOM     26  C   UNL     1      -3.168 -15.281   0.128  0.00  0.00    +0.067 A 
ATOM     27  C   UNL     1      -3.485 -16.580   0.495  0.00  0.00    +0.028 A 
ATOM     28  C   UNL     1      -2.692 -17.626   0.071  0.00  0.00    +0.002 A 
ATOM     29  C   UNL     1      -1.578 -17.388  -0.720  0.00  0.00    +0.002 A 
ATOM     30  C   UNL     1      -1.248 -16.104  -1.094  0.00  0.00    +0.030 A 
ATOM     31  C   UNL     1      -2.041 -15.034  -0.673  0.00  0.00    +0.090 A 
ATOM     32  N   UNL     1      -1.981 -13.691  -0.876  0.00  0.00    -0.222 NA
ENDBRANCH  22  23
ENDBRANCH  21  22
ENDBRANCH   4  21
TORSDOF 5
