REMARK  Name = ZINC00034333
REMARK  8 active torsions:
REMARK  status: ('A' for Active; 'I' for Inactive)
REMARK    1  A    between atoms: C_1  and  C_2
REMARK    2  A    between atoms: C_2  and  O_3
REMARK    3  A    between atoms: O_3  and  C_4
REMARK    4  A    between atoms: C_4  and  C_6
REMARK    5  A    between atoms: C_7  and  N_26
REMARK    6  A    between atoms: C_11  and  C_13
REMARK    7  A    between atoms: C_22  and  C_24
REMARK    8  A    between atoms: C_22  and  C_25
REMARK                            x       y       z     vdW  Elec       q    Type
REMARK                         _______ _______ _______ _____ _____    ______ ____
ROOT
ATOM      1  C   UNL     1       1.647  -2.476  -2.564  0.00  0.00    +0.101 C 
ATOM      2  C   UNL     1       1.907  -3.777  -2.859  0.00  0.00    +0.194 C 
ATOM      3  O   UNL     1       2.413  -4.128  -4.051  0.00  0.00    -0.446 OA
ATOM      4  C   UNL     1       2.285  -3.309  -5.113  0.00  0.00    +0.115 C 
ATOM      5  C   UNL     1       2.053  -1.993  -4.954  0.00  0.00    +0.041 C 
ATOM      6  C   UNL     1       1.914  -1.398  -3.576  0.00  0.00    +0.071 C 
ATOM      7  C   UNL     1       1.932  -1.133  -6.063  0.00  0.00    +0.164 C 
ATOM      8  O   UNL     1       1.706   0.046  -5.880  0.00  0.00    -0.292 OA
ATOM      9  C   UNL     1       2.078  -1.648  -7.469  0.00  0.00    +0.086 C 
ATOM     10  C   UNL     1       2.994  -2.876  -7.455  0.00  0.00    -0.021 C 
ATOM     11  C   UNL     1       2.405  -3.910  -6.493  0.00  0.00    +0.081 C 
ATOM     12  C   UNL     1       4.391  -2.470  -6.980  0.00  0.00    +0.012 C 
ATOM     13  C   UNL     1       3.078  -3.471  -8.862  0.00  0.00    +0.012 C 
ENDROOT
BRANCH   6  14
ATOM     14  C   UNL     1       3.210  -0.671  -3.211  0.00  0.00    +0.001 C 
ATOM     15  C   UNL     1       3.553   0.342  -4.305  0.00  0.00    +0.004 C 
ATOM     16  C   UNL     1       4.849   1.069  -3.940  0.00  0.00    +0.000 C 
ATOM     17  C   UNL     1       4.666   1.799  -2.608  0.00  0.00    +0.000 C 
ATOM     18  C   UNL     1       4.323   0.786  -1.513  0.00  0.00    +0.000 C 
ATOM     19  C   UNL     1       3.027   0.059  -1.879  0.00  0.00    +0.004 C 
ENDBRANCH   6  14
BRANCH   2  20
ATOM     20  N   UNL     1       1.650  -4.744  -1.924  0.00  0.00    -0.329 N 
ATOM     21  H   UNL     1       1.212  -4.509  -1.091  0.00  0.00    +0.145 HD
ATOM     22  H   UNL     1       1.905  -5.664  -2.095  0.00  0.00    +0.145 HD
ENDBRANCH   2  20
BRANCH   1  23
ATOM     23  C   UNL     1       1.118  -2.138  -1.309  0.00  0.00    +0.341 C 
ATOM     24  O   UNL     1       0.047  -1.564  -1.234  0.00  0.00    -0.245 OA
BRANCH  23  25
ATOM     25  O   UNL     1       1.798  -2.450  -0.184  0.00  0.00    -0.462 OA
BRANCH  25  27
ATOM     26  C   UNL     1       2.109  -2.509   2.212  0.00  0.00    +0.048 C 
ATOM     27  C   UNL     1       1.201  -2.076   1.059  0.00  0.00    +0.229 C 
ENDBRANCH  25  27
ENDBRANCH  23  25
ENDBRANCH   1  23
TORSDOF 5
