REMARK  Name = ZINC43428300
REMARK  5 active torsions:
REMARK  status: ('A' for Active; 'I' for Inactive)
REMARK    1  A    between atoms: C_3  and  S_9
REMARK    2  A    between atoms: C_5  and  C_6
REMARK    3  A    between atoms: C_6  and  C_7
REMARK    4  A    between atoms: C_7  and  N_8
REMARK    5  A    between atoms: S_9  and  N_12
REMARK                            x       y       z     vdW  Elec       q    Type
REMARK                         _______ _______ _______ _____ _____    ______ ____
ROOT
ATOM      1  S   UNL     1       4.001   1.932  -0.026  0.00  0.00    +0.068 S 
ATOM      2  O   UNL     1       4.799   0.900  -0.590  0.00  0.00    -0.152 OA
ATOM      3  O   UNL     1       3.957   3.244  -0.570  0.00  0.00    -0.152 OA
ENDROOT
BRANCH   1   4
ATOM      4  N   UNL     1       4.477   2.089   1.552  0.00  0.00    -0.168 NA
ATOM      5  C   UNL     1       4.266   3.345   2.295  0.00  0.00    +0.138 C 
ATOM      6  C   UNL     1       5.585   3.754   2.959  0.00  0.00    +0.177 C 
ATOM      7  O   UNL     1       6.120   2.650   3.697  0.00  0.00    -0.374 OA
ATOM      8  C   UNL     1       6.424   1.517   2.887  0.00  0.00    +0.137 C 
ATOM      9  C   UNL     1       5.121   0.982   2.270  0.00  0.00    +0.109 C 
ATOM     10  C   UNL     1       5.455  -0.164   1.318  0.00  0.00    +0.023 C 
ATOM     11  C   UNL     1       6.122  -1.290   2.114  0.00  0.00    +0.002 C 
ATOM     12  C   UNL     1       7.399  -0.775   2.779  0.00  0.00    +0.003 C 
ATOM     13  C   UNL     1       7.064   0.400   3.708  0.00  0.00    +0.033 C 
ENDBRANCH   1   4
BRANCH   1  16
ATOM     14  C   UNL     1      -0.016   1.351   0.009  0.00  0.00    +0.013 A 
ATOM     15  C   UNL     1       1.183   2.038   0.002  0.00  0.00    +0.036 A 
ATOM     16  C   UNL     1       2.343   1.336  -0.013  0.00  0.00    +0.143 A 
ATOM     17  S   UNL     1       1.754  -0.349  -0.017  0.00  0.00    -0.074 S 
ATOM     18  C   UNL     1       0.002  -0.004   0.002  0.00  0.00    -0.010 A 
BRANCH  18  19
ATOM     19  C   UNL     1      -1.155  -0.969   0.008  0.00  0.00    +0.023 C 
BRANCH  19  20
ATOM     20  C   UNL     1      -1.562  -1.288  -1.432  0.00  0.00    -0.081 C 
BRANCH  20  21
ATOM     21  N   UNL     1      -2.690  -2.228  -1.426  0.00  0.00    +0.378 N 
ATOM     22  H   UNL     1      -2.416  -3.079  -0.957  0.00  0.00    -0.090 HD
ATOM     23  H   UNL     1      -3.471  -1.813  -0.940  0.00  0.00    -0.090 HD
ATOM     24  H   UNL     1      -2.958  -2.438  -2.376  0.00  0.00    -0.090 HD
ENDBRANCH  20  21
ENDBRANCH  19  20
ENDBRANCH  18  19
ENDBRANCH   1  16
TORSDOF 5
