REMARK  Name = ZINC00856161
REMARK  4 active torsions:
REMARK  status: ('A' for Active; 'I' for Inactive)
REMARK    1  A    between atoms: C_1  and  C_2
REMARK    2  A    between atoms: C_9  and  N_25
REMARK    3  A    between atoms: C_10  and  C_23
REMARK    4  A    between atoms: C_11  and  C_13
REMARK                            x       y       z     vdW  Elec       q    Type
REMARK                         _______ _______ _______ _____ _____    ______ ____
ROOT
ATOM      1  C   UNL     1       2.905   1.943  -3.089  0.00  0.00    +0.068 C 
ATOM      2  C   UNL     1       2.745   0.537  -2.570  0.00  0.00    +0.068 A 
ATOM      3  C   UNL     1       2.568   0.173  -1.242  0.00  0.00    +0.049 A 
ATOM      4  C   UNL     1       2.465  -1.189  -1.187  0.00  0.00    +0.222 A 
ATOM      5  N   UNL     1       2.573  -1.656  -2.441  0.00  0.00    -0.246 N 
ATOM      6  H   UNL     1       2.535  -2.616  -2.717  0.00  0.00    +0.192 HD
ATOM      7  N   UNL     1       2.750  -0.556  -3.296  0.00  0.00    -0.176 NA
ATOM      8  O   UNL     1       2.287  -1.863  -0.024  0.00  0.00    -0.423 OA
ATOM      9  C   UNL     1       2.485  -1.187   1.126  0.00  0.00    +0.200 C 
ATOM     10  C   UNL     1       2.591   0.159   1.200  0.00  0.00    +0.098 C 
ATOM     11  C   UNL     1       2.490   1.045  -0.016  0.00  0.00    +0.102 C 
ENDROOT
BRANCH  11  12
ATOM     12  C   UNL     1       1.176   1.783   0.000  0.00  0.00    -0.017 A 
ATOM     13  C   UNL     1      -0.013   1.076   0.008  0.00  0.00    +0.055 A 
ATOM     14  C   UNL     1      -1.222   1.752   0.017  0.00  0.00    +0.167 A 
ATOM     15  C   UNL     1      -1.237   3.144   0.030  0.00  0.00    +0.167 A 
ATOM     16  C   UNL     1      -0.043   3.847   0.022  0.00  0.00    +0.065 A 
ATOM     17  C   UNL     1       1.161   3.166   0.007  0.00  0.00    +0.026 A 
ATOM     18 BR   UNL     1       2.789   4.127  -0.004  0.00  0.00    -0.050 Br
ATOM     19  O   UNL     1      -2.535   3.566   0.045  0.00  0.00    -0.453 OA
ATOM     20  C   UNL     1      -3.306   2.423   0.459  0.00  0.00    +0.466 C 
ATOM     21  O   UNL     1      -2.510   1.301   0.034  0.00  0.00    -0.453 OA
ENDBRANCH  11  12
BRANCH   9  22
ATOM     22  N   UNL     1       2.587  -1.907   2.290  0.00  0.00    -0.328 N 
ATOM     23  H   UNL     1       2.515  -2.875   2.270  0.00  0.00    +0.145 HD
ATOM     24  H   UNL     1       2.730  -1.450   3.134  0.00  0.00    +0.145 HD
ENDBRANCH   9  22
BRANCH  10  25
ATOM     25  C   UNL     1       2.807   0.766   2.479  0.00  0.00    +0.101 C 
ATOM     26  N   UNL     1       2.978   1.248   3.494  0.00  0.00    -0.191 NA
ENDBRANCH  10  25
TORSDOF 3
