REMARK  Name = ZINC64237016
REMARK  7 active torsions:
REMARK  status: ('A' for Active; 'I' for Inactive)
REMARK    1  A    between atoms: C_1  and  C_2
REMARK    2  A    between atoms: C_5  and  C_8
REMARK    3  A    between atoms: C_8  and  C_9
REMARK    4  A    between atoms: C_8  and  N_25
REMARK    5  A    between atoms: C_9  and  N_10
REMARK    6  A    between atoms: C_16  and  C_19
REMARK    7  A    between atoms: N_21  and  C_22
REMARK                            x       y       z     vdW  Elec       q    Type
REMARK                         _______ _______ _______ _____ _____    ______ ____
ROOT
ATOM      1  N   UNL     1      -1.066  -6.397   0.219  0.00  0.00    -0.300 N 
ATOM      2  C   UNL     1      -2.140  -7.200   0.344  0.00  0.00    +0.302 C 
ATOM      3  O   UNL     1      -3.234  -6.722   0.574  0.00  0.00    -0.253 OA
ATOM      4  N   UNL     1      -2.002  -8.535   0.215  0.00  0.00    -0.286 N 
ATOM      5  C   UNL     1      -3.179  -9.415   0.234  0.00  0.00    +0.110 C 
ATOM      6  C   UNL     1      -2.968 -10.498   1.296  0.00  0.00    +0.032 C 
ATOM      7  C   UNL     1      -1.647 -11.221   1.026  0.00  0.00    +0.078 C 
ATOM      8  C   UNL     1      -0.490 -10.224   1.116  0.00  0.00    +0.032 C 
ATOM      9  C   UNL     1      -0.673  -9.137   0.046  0.00  0.00    +0.110 C 
ATOM     10  H   UNL     1      -0.183  -6.782   0.107  0.00  0.00    +0.150 HD
ENDROOT
BRANCH   7  11
ATOM     11  C   UNL     1      -1.452 -12.310   2.050  0.00  0.00    +0.216 C 
ATOM     12  O   UNL     1      -2.288 -12.490   2.910  0.00  0.00    -0.276 OA
ATOM     13  N   UNL     1      -0.350 -13.084   2.009  0.00  0.00    -0.312 N 
ATOM     14  H   UNL     1       0.318 -12.941   1.320  0.00  0.00    +0.149 HD
BRANCH  13  15
ATOM     15  C   UNL     1      -0.161 -14.143   3.003  0.00  0.00    +0.073 C 
ATOM     16  C   UNL     1       1.231 -14.290   3.622  0.00  0.00    +0.024 C 
ATOM     17  C   UNL     1       0.727 -15.327   2.615  0.00  0.00    +0.024 C 
ENDBRANCH  13  15
ENDBRANCH   7  11
BRANCH   1  18
ATOM     18  C   UNL     1      -1.232  -4.941   0.251  0.00  0.00    +0.095 C 
BRANCH  18  19
ATOM     19  C   UNL     1       0.111  -4.268  -0.040  0.00  0.00    -0.020 C 
BRANCH  19  24
ATOM     20  C   UNL     1       1.759  -5.517  -5.436  0.00  0.00    +0.044 C 
ATOM     21  C   UNL     1       1.329  -5.191  -4.029  0.00  0.00    -0.050 A 
ATOM     22  C   UNL     1       1.870  -5.885  -2.963  0.00  0.00    +0.003 A 
ATOM     23  C   UNL     1       1.476  -5.586  -1.672  0.00  0.00    +0.002 A 
ATOM     24  C   UNL     1       0.541  -4.593  -1.447  0.00  0.00    -0.059 A 
ATOM     25  C   UNL     1       0.001  -3.899  -2.513  0.00  0.00    +0.002 A 
ATOM     26  C   UNL     1       0.398  -4.194  -3.804  0.00  0.00    +0.003 A 
ENDBRANCH  19  24
BRANCH  19  27
ATOM     27  N   UNL     1      -0.029  -2.813   0.105  0.00  0.00    +0.385 N 
ATOM     28  C   UNL     1      -0.282  -2.463   1.527  0.00  0.00    -0.078 C 
ATOM     29  C   UNL     1       0.153  -0.978   1.608  0.00  0.00    -0.020 C 
ATOM     30  C   UNL     1       1.389  -0.928   0.680  0.00  0.00    -0.020 C 
ATOM     31  C   UNL     1       1.237  -2.140  -0.257  0.00  0.00    -0.078 C 
ATOM     32  H   UNL     1      -0.781  -2.476  -0.476  0.00  0.00    -0.081 HD
ENDBRANCH  19  27
ENDBRANCH  18  19
ENDBRANCH   1  18
TORSDOF 6
