REMARK  Name = ZINC39533583
REMARK  14 active torsions:
REMARK  status: ('A' for Active; 'I' for Inactive)
REMARK    1  A    between atoms: C_1  and  C_2
REMARK    2  A    between atoms: C_2  and  O_3
REMARK    3  A    between atoms: O_3  and  N_4
REMARK    4  A    between atoms: N_4  and  C_5
REMARK    5  A    between atoms: C_5  and  C_6
REMARK    6  A    between atoms: C_6  and  C_8
REMARK    7  A    between atoms: C_6  and  N_18
REMARK    8  A    between atoms: C_11  and  C_14
REMARK    9  A    between atoms: C_14  and  C_15
REMARK   10  A    between atoms: C_15  and  C_16
REMARK   11  A    between atoms: C_15  and  C_17
REMARK   12  A    between atoms: C_22  and  S_25
REMARK   13  A    between atoms: S_25  and  O_28
REMARK   14  A    between atoms: O_28  and  C_29
REMARK                            x       y       z     vdW  Elec       q    Type
REMARK                         _______ _______ _______ _____ _____    ______ ____
ROOT
ATOM      1  N   UNL     1       1.908  -4.368  -1.246  0.00  0.00    -0.296 NA
ATOM      2  C   UNL     1       2.072  -5.827  -1.296  0.00  0.00    +0.066 C 
ATOM      3  C   UNL     1       2.659  -6.317   0.030  0.00  0.00    -0.064 C 
ATOM      4  N   UNL     1       1.761  -5.945   1.131  0.00  0.00    +0.398 N 
ATOM      5  C   UNL     1       1.627  -4.483   1.183  0.00  0.00    +0.130 C 
ATOM      6  C   UNL     1       1.031  -3.978  -0.133  0.00  0.00    +0.095 C 
ATOM      7  H   UNL     1       0.854  -6.361   0.980  0.00  0.00    -0.083 HD
ATOM      8  H   UNL     1       2.142  -6.279   2.003  0.00  0.00    -0.083 HD
ENDROOT
BRANCH   5   9
ATOM      9  S   UNL     1       0.534  -4.025   2.556  0.00  0.00    +0.109 S 
ATOM     10  O   UNL     1       0.534  -2.615   2.732  0.00  0.00    -0.138 OA
ATOM     11  O   UNL     1      -0.689  -4.744   2.470  0.00  0.00    -0.138 OA
BRANCH   9  12
ATOM     12  O   UNL     1       1.219  -4.572   3.800  0.00  0.00    -0.347 OA
BRANCH  12  13
ATOM     13  C   UNL     1       2.301  -3.851   4.198  0.00  0.00    +0.156 A 
ATOM     14  C   UNL     1       3.561  -4.161   3.707  0.00  0.00    +0.048 A 
ATOM     15  C   UNL     1       4.658  -3.427   4.112  0.00  0.00    +0.004 A 
ATOM     16  C   UNL     1       4.502  -2.384   5.006  0.00  0.00    +0.000 A 
ATOM     17  C   UNL     1       3.248  -2.074   5.497  0.00  0.00    +0.004 A 
ATOM     18  C   UNL     1       2.146  -2.801   5.091  0.00  0.00    +0.048 A 
ENDBRANCH  12  13
ENDBRANCH   9  12
ENDBRANCH   5   9
BRANCH   1  19
ATOM     19  C   UNL     1       1.399  -3.851  -2.524  0.00  0.00    +0.103 C 
BRANCH  19  20
ATOM     20  C   UNL     1       2.362  -4.203  -3.628  0.00  0.00    -0.029 A 
ATOM     21  C   UNL     1       3.724  -4.127  -3.407  0.00  0.00    +0.005 A 
ATOM     22  C   UNL     1       4.608  -4.449  -4.420  0.00  0.00    +0.004 A 
ATOM     23  C   UNL     1       4.129  -4.850  -5.653  0.00  0.00    -0.047 A 
ATOM     24  C   UNL     1       2.767  -4.927  -5.874  0.00  0.00    +0.004 A 
ATOM     25  C   UNL     1       1.883  -4.609  -4.860  0.00  0.00    +0.005 A 
BRANCH  23  26
ATOM     26  C   UNL     1       5.093  -5.201  -6.758  0.00  0.00    +0.038 C 
BRANCH  26  27
ATOM     27  C   UNL     1       5.426  -6.692  -6.689  0.00  0.00    -0.013 C 
ATOM     28  C   UNL     1       6.304  -7.074  -7.882  0.00  0.00    +0.007 C 
ATOM     29  C   UNL     1       6.176  -6.988  -5.389  0.00  0.00    +0.007 C 
ENDBRANCH  26  27
ENDBRANCH  23  26
ENDBRANCH  19  20
BRANCH  19  30
ATOM     30  C   UNL     1       1.254  -2.331  -2.438  0.00  0.00    +0.134 C 
BRANCH  30  31
ATOM     31  N   UNL     1       0.671  -1.823  -3.687  0.00  0.00    -0.199 NA
ATOM     32  H   UNL     1      -0.248  -2.209  -3.841  0.00  0.00    +0.154 HD
BRANCH  31  33
ATOM     33  O   UNL     1       0.633  -0.360  -3.692  0.00  0.00    -0.300 OA
BRANCH  33  35
ATOM     34  C   UNL     1       0.086   1.729  -4.776  0.00  0.00    +0.036 C 
ATOM     35  C   UNL     1       0.076   0.203  -4.881  0.00  0.00    +0.182 C 
ENDBRANCH  33  35
ENDBRANCH  31  33
ENDBRANCH  30  31
ENDBRANCH  19  30
ENDBRANCH   1  19
TORSDOF 11
