REMARK  Name = ZINC39639739
REMARK  7 active torsions:
REMARK  status: ('A' for Active; 'I' for Inactive)
REMARK    1  A    between atoms: C_1  and  C_2
REMARK    2  A    between atoms: C_9  and  C_16
REMARK    3  A    between atoms: C_11  and  O_12
REMARK    4  A    between atoms: C_16  and  O_17
REMARK    5  A    between atoms: O_17  and  C_18
REMARK    6  A    between atoms: C_18  and  C_20
REMARK    7  A    between atoms: C_26  and  C_28
REMARK                            x       y       z     vdW  Elec       q    Type
REMARK                         _______ _______ _______ _____ _____    ______ ____
ROOT
ATOM      1  O   UNL     1      -3.410  -7.534   0.639  0.00  0.00    -0.460 OA
ENDROOT
BRANCH   1   2
ATOM      2  C   UNL     1      -4.676  -7.912   0.402  0.00  0.00    +0.311 C 
ATOM      3  O   UNL     1      -4.969  -9.084   0.407  0.00  0.00    -0.251 OA
BRANCH   2   4
ATOM      4  C   UNL     1      -5.734  -6.873   0.129  0.00  0.00    +0.110 C 
ATOM      5  C   UNL     1      -5.846  -5.933   1.331  0.00  0.00    +0.015 C 
ATOM      6  C   UNL     1      -6.920  -4.878   1.055  0.00  0.00    +0.001 C 
ATOM      7  C   UNL     1      -8.265  -5.568   0.819  0.00  0.00    +0.001 C 
ATOM      8  C   UNL     1      -8.152  -6.508  -0.383  0.00  0.00    +0.013 C 
ATOM      9  C   UNL     1      -7.078  -7.563  -0.106  0.00  0.00    +0.089 C 
BRANCH   9  10
ATOM     10  C   UNL     1      -6.967  -8.489  -1.290  0.00  0.00    +0.224 C 
ATOM     11  O   UNL     1      -6.085  -8.326  -2.107  0.00  0.00    -0.275 OA
ATOM     12  N   UNL     1      -7.848  -9.498  -1.442  0.00  0.00    -0.271 N 
ATOM     13  C   UNL     1      -9.005  -9.740  -0.576  0.00  0.00    +0.118 C 
ATOM     14  C   UNL     1      -9.686 -10.991  -1.154  0.00  0.00    +0.056 C 
ATOM     15  C   UNL     1      -8.834 -11.374  -2.343  0.00  0.00    -0.024 A 
ATOM     16  C   UNL     1      -7.794 -10.464  -2.451  0.00  0.00    +0.039 A 
ATOM     17  C   UNL     1      -6.870 -10.611  -3.487  0.00  0.00    +0.024 A 
ATOM     18  C   UNL     1      -6.997 -11.645  -4.390  0.00  0.00    +0.002 A 
ATOM     19  C   UNL     1      -8.040 -12.545  -4.276  0.00  0.00    +0.000 A 
ATOM     20  C   UNL     1      -8.954 -12.411  -3.247  0.00  0.00    +0.005 A 
ENDBRANCH   9  10
ENDBRANCH   2   4
ENDBRANCH   1   2
BRANCH   1  21
ATOM     21  C   UNL     1      -2.460  -8.572   0.889  0.00  0.00    +0.268 C 
BRANCH  21  30
ATOM     22  C   UNL     1       5.582  -9.057  -2.717  0.00  0.00    +0.109 C 
ATOM     23  C   UNL     1       4.426  -8.879  -1.766  0.00  0.00    +0.214 C 
ATOM     24  O   UNL     1       4.629  -8.511  -0.623  0.00  0.00    -0.276 OA
ATOM     25  N   UNL     1       3.195  -9.122  -2.172  0.00  0.00    -0.286 N 
ATOM     26  C   UNL     1       2.142  -8.835  -1.359  0.00  0.00    +0.037 A 
ATOM     27  C   UNL     1       0.887  -9.418  -1.609  0.00  0.00    +0.024 A 
ATOM     28  C   UNL     1      -0.172  -9.140  -0.804  0.00  0.00    +0.014 A 
ATOM     29  C   UNL     1      -0.016  -8.264   0.285  0.00  0.00    +0.024 A 
ATOM     30  C   UNL     1      -1.103  -7.963   1.132  0.00  0.00    +0.007 A 
ATOM     31  C   UNL     1      -0.897  -7.098   2.188  0.00  0.00    +0.095 A 
ATOM     32  C   UNL     1       0.360  -6.547   2.395  0.00  0.00    +0.285 A 
ATOM     33  O   UNL     1       1.388  -6.835   1.590  0.00  0.00    -0.425 OA
ATOM     34  C   UNL     1       1.241  -7.674   0.543  0.00  0.00    +0.141 A 
ATOM     35  C   UNL     1       2.314  -7.968  -0.279  0.00  0.00    +0.070 A 
ATOM     36  H   UNL     1       3.041  -9.505  -3.049  0.00  0.00    +0.155 HD
BRANCH  32  37
ATOM     37  O   UNL     1       0.548  -5.705   3.429  0.00  0.00    -0.480 OA
ATOM     38  H   UNL     1       1.451  -5.367   3.501  0.00  0.00    +0.295 HD
ENDBRANCH  32  37
ENDBRANCH  21  30
ENDBRANCH   1  21
TORSDOF 6
