REMARK  Name = ZINC21238383
REMARK  13 active torsions:
REMARK  status: ('A' for Active; 'I' for Inactive)
REMARK    1  A    between atoms: C_1  and  C_2
REMARK    2  A    between atoms: C_2  and  O_3
REMARK    3  A    between atoms: O_3  and  C_4
REMARK    4  A    between atoms: C_7  and  C_12
REMARK    5  A    between atoms: C_9  and  O_10
REMARK    6  A    between atoms: O_10  and  C_11
REMARK    7  A    between atoms: C_17  and  C_27
REMARK    8  A    between atoms: C_30  and  O_35
REMARK    9  A    between atoms: C_31  and  O_33
REMARK   10  A    between atoms: O_33  and  C_34
REMARK   11  A    between atoms: O_35  and  C_36
REMARK   12  A    between atoms: C_36  and  C_37
REMARK   13  A    between atoms: C_36  and  C_38
REMARK                            x       y       z     vdW  Elec       q    Type
REMARK                         _______ _______ _______ _____ _____    ______ ____
ROOT
ATOM      1  C   UNL     1       0.471   0.839  -0.279  0.00  0.00    +0.032 C 
ATOM      2  C   UNL     1      -0.325   1.487   0.853  0.00  0.00    +0.059 C 
ATOM      3  C   UNL     1       0.255   1.071   2.196  0.00  0.00    +0.017 C 
ATOM      4  C   UNL     1       1.571   0.842   2.327  0.00  0.00    +0.036 C 
ATOM      5  C   UNL     1       2.280   0.449   3.601  0.00  0.00    +0.136 C 
ATOM      6  N   UNL     1       1.399   0.065   4.683  0.00  0.00    -0.331 N 
ATOM      7  C   UNL     1       0.520   0.982   5.257  0.00  0.00    +0.049 A 
ATOM      8  C   UNL     1       0.687   1.426   6.559  0.00  0.00    +0.025 A 
ATOM      9  C   UNL     1      -0.145   2.417   7.051  0.00  0.00    +0.002 A 
ATOM     10  C   UNL     1      -1.135   2.961   6.253  0.00  0.00    +0.002 A 
ATOM     11  C   UNL     1      -1.317   2.505   4.958  0.00  0.00    +0.025 A 
ATOM     12  C   UNL     1      -0.498   1.502   4.471  0.00  0.00    +0.052 A 
ATOM     13  N   UNL     1      -0.656   0.967   3.197  0.00  0.00    -0.316 N 
ATOM     14  C   UNL     1       2.430   0.961   1.208  0.00  0.00    +0.163 C 
ATOM     15  O   UNL     1       3.621   0.770   1.361  0.00  0.00    -0.292 OA
ATOM     16  C   UNL     1       1.924   1.313  -0.158  0.00  0.00    +0.088 C 
ATOM     17  H   UNL     1       1.415  -0.966   5.066  0.00  0.00    +0.147 HD
ATOM     18  H   UNL     1      -1.599   0.427   3.029  0.00  0.00    +0.152 HD
ENDROOT
BRANCH   1  22
ATOM     19  C   UNL     1      -1.135   2.045  -4.054  0.00  0.00    +0.162 A 
ATOM     20  C   UNL     1      -0.660   2.995  -3.165  0.00  0.00    +0.050 A 
ATOM     21  C   UNL     1      -0.142   2.602  -1.945  0.00  0.00    +0.008 A 
ATOM     22  C   UNL     1      -0.095   1.262  -1.610  0.00  0.00    -0.040 A 
ATOM     23  C   UNL     1      -0.562   0.308  -2.495  0.00  0.00    +0.053 A 
ATOM     24  C   UNL     1      -1.088   0.696  -3.717  0.00  0.00    +0.162 A 
BRANCH  24  25
ATOM     25  O   UNL     1      -1.552  -0.241  -4.587  0.00  0.00    -0.491 OA
ATOM     26  C   UNL     1      -1.472  -1.607  -4.174  0.00  0.00    +0.277 C 
ENDBRANCH  24  25
BRANCH  19  27
ATOM     27  O   UNL     1      -1.645   2.430  -5.255  0.00  0.00    -0.489 OA
BRANCH  27  29
ATOM     28  C   UNL     1      -2.266   4.069  -6.919  0.00  0.00    +0.048 C 
ATOM     29  C   UNL     1      -1.661   3.831  -5.534  0.00  0.00    +0.226 C 
ENDBRANCH  27  29
ENDBRANCH  19  27
ENDBRANCH   1  22
BRANCH   5  30
ATOM     30  C   UNL     1       3.120   1.614   4.060  0.00  0.00    -0.019 A 
ATOM     31  C   UNL     1       2.512   2.801   4.425  0.00  0.00    +0.009 A 
ATOM     32  C   UNL     1       3.278   3.872   4.846  0.00  0.00    +0.050 A 
ATOM     33  C   UNL     1       4.657   3.757   4.904  0.00  0.00    +0.162 A 
ATOM     34  C   UNL     1       5.269   2.563   4.536  0.00  0.00    +0.162 A 
ATOM     35  C   UNL     1       4.496   1.491   4.119  0.00  0.00    +0.055 A 
BRANCH  34  36
ATOM     36  O   UNL     1       6.623   2.445   4.591  0.00  0.00    -0.491 OA
ATOM     37  C   UNL     1       7.182   1.190   4.199  0.00  0.00    +0.277 C 
ENDBRANCH  34  36
BRANCH  33  38
ATOM     38  O   UNL     1       5.412   4.810   5.318  0.00  0.00    -0.486 OA
BRANCH  38  39
ATOM     39  C   UNL     1       4.713   5.961   5.797  0.00  0.00    +0.167 C 
ATOM     40  C   UNL     1       5.612   6.739   6.760  0.00  0.00    +0.051 C 
ATOM     41  C   UNL     1       4.335   6.856   4.615  0.00  0.00    +0.051 C 
ENDBRANCH  38  39
ENDBRANCH  33  38
ENDBRANCH   5  30
TORSDOF 8
