REMARK  Name = ZINC63393536
REMARK  11 active torsions:
REMARK  status: ('A' for Active; 'I' for Inactive)
REMARK    1  A    between atoms: C_1  and  C_2
REMARK    2  A    between atoms: C_2  and  N_3
REMARK    3  A    between atoms: N_3  and  S_4
REMARK    4  A    between atoms: S_4  and  C_7
REMARK    5  A    between atoms: C_10  and  N_13
REMARK    6  A    between atoms: C_14  and  C_16
REMARK    7  A    between atoms: N_21  and  C_23
REMARK    8  A    between atoms: C_23  and  C_24
REMARK    9  A    between atoms: C_24  and  C_25
REMARK   10  A    between atoms: C_28  and  O_34
REMARK   11  A    between atoms: O_34  and  C_35
REMARK                            x       y       z     vdW  Elec       q    Type
REMARK                         _______ _______ _______ _____ _____    ______ ____
ROOT
ATOM      1  C   UNL     1       0.876  -6.415   6.109  0.00  0.00    +0.101 C 
ATOM      2  C   UNL     1       1.224  -7.859   5.677  0.00  0.00    +0.110 C 
ATOM      3  C   UNL     1       0.990  -8.685   6.922  0.00  0.00    +0.216 C 
ATOM      4  O   UNL     1       1.405  -9.811   7.098  0.00  0.00    -0.276 OA
ATOM      5  N   UNL     1       0.253  -7.990   7.807  0.00  0.00    -0.300 N 
ATOM      6  C   UNL     1      -0.095  -6.662   7.285  0.00  0.00    +0.121 C 
ENDROOT
BRANCH   1   8
ATOM      7  N   UNL     1       0.857  -5.410   3.849  0.00  0.00    -0.285 N 
ATOM      8  C   UNL     1       0.193  -5.668   4.993  0.00  0.00    +0.222 C 
ATOM      9  O   UNL     1      -0.955  -5.299   5.124  0.00  0.00    -0.275 OA
ATOM     10  H   UNL     1       1.747  -5.771   3.713  0.00  0.00    +0.155 HD
BRANCH   7  14
ATOM     11  C   UNL     1      -0.913  -3.065   0.896  0.00  0.00    +0.105 A 
ATOM     12  C   UNL     1      -1.176  -2.810   2.229  0.00  0.00    +0.030 A 
ATOM     13  C   UNL     1      -0.591  -3.586   3.211  0.00  0.00    +0.025 A 
ATOM     14  C   UNL     1       0.262  -4.623   2.857  0.00  0.00    +0.034 A 
ATOM     15  C   UNL     1       0.524  -4.876   1.517  0.00  0.00    +0.025 A 
ATOM     16  C   UNL     1      -0.068  -4.100   0.540  0.00  0.00    +0.030 A 
BRANCH  11  17
ATOM     17  S   UNL     1      -1.661  -2.072  -0.353  0.00  0.00    +0.058 S 
ATOM     18  O   UNL     1      -0.831  -2.171  -1.502  0.00  0.00    -0.153 OA
ATOM     19  O   UNL     1      -1.978  -0.827   0.253  0.00  0.00    -0.153 OA
BRANCH  17  20
ATOM     20  N   UNL     1      -3.103  -2.787  -0.748  0.00  0.00    -0.190 NA
ATOM     21  H   UNL     1      -3.236  -3.150  -1.637  0.00  0.00    +0.148 HD
BRANCH  20  23
ATOM     22  C   UNL     1      -5.492  -3.217  -0.452  0.00  0.00    +0.022 C 
ATOM     23  C   UNL     1      -4.175  -2.870   0.246  0.00  0.00    +0.102 C 
ENDBRANCH  20  23
ENDBRANCH  17  20
ENDBRANCH  11  17
ENDBRANCH   7  14
ENDBRANCH   1   8
BRANCH   5  24
ATOM     24  C   UNL     1      -0.149  -8.492   9.123  0.00  0.00    +0.112 C 
BRANCH  24  25
ATOM     25  C   UNL     1       0.916  -8.123  10.157  0.00  0.00    +0.052 C 
BRANCH  25  26
ATOM     26  C   UNL     1       0.501  -8.639  11.511  0.00  0.00    -0.040 C 
ATOM     27  C   UNL     1       0.873  -9.806  12.084  0.00  0.00    +0.002 A 
ATOM     28  C   UNL     1       1.740 -10.903  11.639  0.00  0.00    +0.055 A 
ATOM     29  C   UNL     1       1.931 -11.973  12.447  0.00  0.00    +0.121 A 
ATOM     30  C   UNL     1       1.325 -12.076  13.711  0.00  0.00    +0.047 A 
ATOM     31  C   UNL     1       0.512 -11.119  14.208  0.00  0.00    +0.029 A 
ATOM     32  C   UNL     1       0.235  -9.916  13.417  0.00  0.00    +0.043 A 
ATOM     33  N   UNL     1      -0.501  -8.860  13.657  0.00  0.00    -0.380 N 
ATOM     34  C   UNL     1      -0.409  -7.955  12.506  0.00  0.00    +0.144 C 
ATOM     35  H   UNL     1      -1.017  -8.701  14.463  0.00  0.00    +0.160 HD
BRANCH  29  36
ATOM     36  O   UNL     1       2.736 -12.982  12.021  0.00  0.00    -0.495 OA
ATOM     37  C   UNL     1       2.910 -14.091  12.905  0.00  0.00    +0.277 C 
ENDBRANCH  29  36
ENDBRANCH  25  26
ENDBRANCH  24  25
ENDBRANCH   5  24
TORSDOF 9
