REMARK  Name = ZINC25383469
REMARK  11 active torsions:
REMARK  status: ('A' for Active; 'I' for Inactive)
REMARK    1  A    between atoms: C_1  and  C_2
REMARK    2  A    between atoms: C_2  and  C_3
REMARK    3  A    between atoms: C_2  and  C_4
REMARK    4  A    between atoms: C_2  and  N_5
REMARK    5  A    between atoms: N_5  and  S_6
REMARK    6  A    between atoms: S_6  and  C_9
REMARK    7  A    between atoms: C_12  and  C_15
REMARK    8  A    between atoms: N_17  and  C_18
REMARK    9  A    between atoms: C_18  and  C_19
REMARK   10  A    between atoms: C_19  and  C_21
REMARK   11  A    between atoms: C_19  and  N_26
REMARK                            x       y       z     vdW  Elec       q    Type
REMARK                         _______ _______ _______ _____ _____    ______ ____
ROOT
ATOM      1  C   UNL     1       1.468  -0.894  -1.012  0.00  0.00    +0.244 C 
ATOM      2  O   UNL     1       0.881   0.167  -1.087  0.00  0.00    -0.270 OA
ATOM      3  N   UNL     1       1.704  -1.450   0.193  0.00  0.00    -0.313 N 
ATOM      4  H   UNL     1       2.235  -2.411   0.261  0.00  0.00    +0.149 HD
ENDROOT
BRANCH   1   8
ATOM      5  C   UNL     1       2.776  -2.853  -4.547  0.00  0.00    +0.105 A 
ATOM      6  C   UNL     1       2.108  -1.645  -4.636  0.00  0.00    +0.029 A 
ATOM      7  C   UNL     1       1.680  -1.004  -3.492  0.00  0.00    +0.015 A 
ATOM      8  C   UNL     1       1.923  -1.576  -2.242  0.00  0.00    +0.037 A 
ATOM      9  C   UNL     1       2.603  -2.793  -2.159  0.00  0.00    +0.015 A 
ATOM     10  C   UNL     1       3.020  -3.426  -3.311  0.00  0.00    +0.029 A 
BRANCH   5  11
ATOM     11  S   UNL     1       3.317  -3.666  -6.013  0.00  0.00    +0.059 S 
ATOM     12  O   UNL     1       3.744  -4.965  -5.623  0.00  0.00    -0.153 OA
ATOM     13  O   UNL     1       2.307  -3.458  -6.990  0.00  0.00    -0.153 OA
BRANCH  11  14
ATOM     14  N   UNL     1       4.665  -2.866  -6.547  0.00  0.00    -0.185 NA
ATOM     15  H   UNL     1       4.580  -2.182  -7.405  0.00  0.00    +0.149 HD
BRANCH  14  17
ATOM     16  C   UNL     1       6.462  -4.321  -5.750  0.00  0.00    +0.029 C 
ATOM     17  C   UNL     1       5.898  -2.899  -5.756  0.00  0.00    +0.032 C 
ATOM     18  C   UNL     1       6.924  -1.946  -6.372  0.00  0.00    +0.029 C 
ATOM     19  C   UNL     1       5.595  -2.463  -4.321  0.00  0.00    +0.029 C 
ENDBRANCH  14  17
ENDBRANCH  11  14
ENDBRANCH   5  11
ENDBRANCH   1   8
BRANCH   3  20
ATOM     20  C   UNL     1       1.253  -0.774   1.412  0.00  0.00    +0.094 C 
BRANCH  20  21
ATOM     21  C   UNL     1       1.797  -1.514   2.636  0.00  0.00    -0.013 C 
BRANCH  21  22
ATOM     22  N   UNL     1       3.257  -1.363   2.691  0.00  0.00    +0.386 N 
ATOM     23  C   UNL     1       3.812  -1.995   3.915  0.00  0.00    -0.078 C 
ATOM     24  C   UNL     1       5.305  -2.209   3.557  0.00  0.00    -0.020 C 
ATOM     25  C   UNL     1       5.249  -2.600   2.063  0.00  0.00    -0.020 C 
ATOM     26  C   UNL     1       3.904  -2.051   1.553  0.00  0.00    -0.078 C 
ATOM     27  H   UNL     1       3.447  -0.279   2.668  0.00  0.00    -0.081 HD
ENDBRANCH  21  22
BRANCH  21  28
ATOM     28  C   UNL     1       1.185  -0.935   3.886  0.00  0.00    -0.022 A 
ATOM     29  C   UNL     1       0.252  -1.474   4.708  0.00  0.00    +0.009 A 
ATOM     30  C   UNL     1      -0.166  -0.754   5.811  0.00  0.00    +0.008 A 
ATOM     31  C   UNL     1       0.369   0.471   6.038  0.00  0.00    +0.045 A 
ATOM     32  S   UNL     1       1.506   0.635   4.672  0.00  0.00    -0.103 S 
ENDBRANCH  21  28
ENDBRANCH  20  21
ENDBRANCH   3  20
TORSDOF 8
