REMARK  Name = ZINC12479607
REMARK  13 active torsions:
REMARK  status: ('A' for Active; 'I' for Inactive)
REMARK    1  A    between atoms: C_1  and  C_2
REMARK    2  A    between atoms: C_5  and  C_8
REMARK    3  A    between atoms: C_8  and  C_10
REMARK    4  A    between atoms: C_8  and  N_18
REMARK    5  A    between atoms: N_12  and  C_13
REMARK    6  A    between atoms: C_13  and  C_14
REMARK    7  A    between atoms: C_14  and  C_15
REMARK    8  A    between atoms: C_15  and  C_16
REMARK    9  A    between atoms: C_15  and  C_17
REMARK   10  A    between atoms: N_18  and  C_19
REMARK   11  A    between atoms: C_26  and  C_28
REMARK   12  A    between atoms: C_29  and  N_36
REMARK   13  A    between atoms: C_30  and  C_33
REMARK                            x       y       z     vdW  Elec       q    Type
REMARK                         _______ _______ _______ _____ _____    ______ ____
ROOT
ATOM      1  N   UNL     1       3.278   1.716   0.797  0.00  0.00    -0.251 N 
ATOM      2  C   UNL     1       4.295   1.047   1.377  0.00  0.00    +0.262 C 
ATOM      3  O   UNL     1       4.727   0.032   0.863  0.00  0.00    -0.269 OA
ENDROOT
BRANCH   1   4
ATOM      4  C   UNL     1       2.703   2.814   1.446  0.00  0.00    +0.038 A 
ATOM      5  C   UNL     1       3.080   4.104   1.097  0.00  0.00    +0.026 A 
ATOM      6  C   UNL     1       2.507   5.187   1.735  0.00  0.00    +0.040 A 
ATOM      7  C   UNL     1       1.565   4.986   2.731  0.00  0.00    +0.124 A 
ATOM      8  C   UNL     1       1.193   3.701   3.085  0.00  0.00    +0.040 A 
ATOM      9  C   UNL     1       1.759   2.615   2.445  0.00  0.00    +0.026 A 
ATOM     10  F   UNL     1       1.010   6.046   3.357  0.00  0.00    -0.205 F 
ENDBRANCH   1   4
BRANCH   2  11
ATOM     11  C   UNL     1       4.878   1.541   2.626  0.00  0.00    +0.116 A 
ATOM     12  C   UNL     1       5.867   0.968   3.427  0.00  0.00    +0.076 A 
ATOM     13  C   UNL     1       6.162   1.745   4.548  0.00  0.00    +0.155 A 
ATOM     14  N   UNL     1       5.520   2.876   4.734  0.00  0.00    -0.203 NA
ATOM     15  S   UNL     1       4.522   3.037   3.524  0.00  0.00    +0.019 S 
BRANCH  13  16
ATOM     16  C   UNL     1       7.184   1.301   5.514  0.00  0.00    +0.262 C 
ATOM     17  O   UNL     1       7.774   0.253   5.336  0.00  0.00    -0.269 OA
ATOM     18  N   UNL     1       7.463   2.056   6.594  0.00  0.00    -0.324 N 
ATOM     19  H   UNL     1       6.992   2.893   6.736  0.00  0.00    +0.145 HD
ATOM     20  H   UNL     1       8.135   1.764   7.230  0.00  0.00    +0.145 HD
ENDBRANCH  13  16
BRANCH  12  21
ATOM     21  N   UNL     1       6.489  -0.240   3.141  0.00  0.00    -0.355 N 
ATOM     22  H   UNL     1       6.241  -0.736   2.345  0.00  0.00    +0.142 HD
ATOM     23  H   UNL     1       7.170  -0.588   3.737  0.00  0.00    +0.142 HD
ENDBRANCH  12  21
ENDBRANCH   2  11
BRANCH   1  24
ATOM     24  C   UNL     1       2.776   1.294  -0.512  0.00  0.00    +0.197 C 
BRANCH  24  29
ATOM     25  C   UNL     1      -2.942   0.509  -0.221  0.00  0.00    +0.044 C 
ATOM     26  C   UNL     1      -1.451   0.714  -0.297  0.00  0.00    -0.050 A 
ATOM     27  C   UNL     1      -0.607  -0.378  -0.377  0.00  0.00    +0.004 A 
ATOM     28  C   UNL     1       0.761  -0.190  -0.441  0.00  0.00    +0.006 A 
ATOM     29  C   UNL     1       1.285   1.089  -0.436  0.00  0.00    -0.018 A 
ATOM     30  C   UNL     1       0.440   2.181  -0.363  0.00  0.00    +0.006 A 
ATOM     31  C   UNL     1      -0.928   1.994  -0.294  0.00  0.00    +0.004 A 
ENDBRANCH  24  29
BRANCH  24  32
ATOM     32  C   UNL     1       3.086   2.356  -1.536  0.00  0.00    +0.238 C 
ATOM     33  O   UNL     1       3.669   3.366  -1.204  0.00  0.00    -0.273 OA
ATOM     34  N   UNL     1       2.715   2.183  -2.820  0.00  0.00    -0.313 N 
ATOM     35  H   UNL     1       2.249   1.375  -3.086  0.00  0.00    +0.149 HD
BRANCH  34  36
ATOM     36  C   UNL     1       3.016   3.216  -3.815  0.00  0.00    +0.104 C 
BRANCH  36  37
ATOM     37  C   UNL     1       2.491   2.774  -5.182  0.00  0.00    +0.022 C 
BRANCH  37  38
ATOM     38  C   UNL     1       2.806   3.853  -6.221  0.00  0.00    -0.016 C 
ATOM     39  C   UNL     1       4.322   3.973  -6.389  0.00  0.00    +0.007 C 
ATOM     40  C   UNL     1       2.174   3.470  -7.561  0.00  0.00    +0.007 C 
ENDBRANCH  37  38
ENDBRANCH  36  37
ENDBRANCH  34  36
ENDBRANCH  24  32
ENDBRANCH   1  24
TORSDOF 10
