REMARK  Name = ZINC40321067
REMARK  5 active torsions:
REMARK  status: ('A' for Active; 'I' for Inactive)
REMARK    1  A    between atoms: C_3  and  N_10
REMARK    2  A    between atoms: C_5  and  N_7
REMARK    3  A    between atoms: C_11  and  C_13
REMARK    4  A    between atoms: C_16  and  S_18
REMARK    5  A    between atoms: S_18  and  C_21
REMARK                            x       y       z     vdW  Elec       q    Type
REMARK                         _______ _______ _______ _____ _____    ______ ____
ROOT
ATOM      1  C   UNL     1       4.828   4.208  -0.235  0.00  0.00    +0.192 A 
ATOM      2  C   UNL     1       4.955   5.564  -0.333  0.00  0.00    +0.056 A 
ATOM      3  C   UNL     1       6.329   5.835  -0.427  0.00  0.00    +0.070 A 
ATOM      4  C   UNL     1       6.972   4.647  -0.383  0.00  0.00    +0.246 A 
ATOM      5  O   UNL     1       6.064   3.670  -0.261  0.00  0.00    -0.433 OA
ENDROOT
BRANCH   1   7
ATOM      6  N   UNL     1       3.583   2.123  -0.021  0.00  0.00    -0.279 N 
ATOM      7  C   UNL     1       3.568   3.467  -0.116  0.00  0.00    +0.284 C 
ATOM      8  O   UNL     1       2.509   4.066  -0.103  0.00  0.00    -0.266 OA
ATOM      9  H   UNL     1       4.428   1.651   0.045  0.00  0.00    +0.155 HD
BRANCH   6  12
ATOM     10  C   UNL     1       0.112   1.159  -0.753  0.00  0.00    +0.004 A 
ATOM     11  C   UNL     1       1.298   1.867  -0.757  0.00  0.00    +0.023 A 
ATOM     12  C   UNL     1       2.381   1.408  -0.019  0.00  0.00    +0.036 A 
ATOM     13  C   UNL     1       2.268   0.238   0.721  0.00  0.00    +0.056 A 
ATOM     14  C   UNL     1       1.080  -0.465   0.721  0.00  0.00    +0.128 A 
ATOM     15  C   UNL     1       0.003  -0.006  -0.015  0.00  0.00    +0.033 A 
BRANCH  14  16
ATOM     16  N   UNL     1       0.959  -1.712   1.509  0.00  0.00    +0.056 N 
ATOM     17  O   UNL     1       1.900  -2.115   2.152  0.00  0.00    -0.126 OA
ATOM     18  O   UNL     1      -0.081  -2.329   1.509  0.00  0.00    -0.126 OA
ENDBRANCH  14  16
ENDBRANCH   6  12
ENDBRANCH   1   7
BRANCH   4  19
ATOM     19  S   UNL     1       8.718   4.422  -0.464  0.00  0.00    +0.058 S 
ATOM     20  O   UNL     1       8.935   3.102  -0.941  0.00  0.00    -0.161 OA
ATOM     21  O   UNL     1       9.245   5.566  -1.122  0.00  0.00    -0.161 OA
BRANCH  19  22
ATOM     22  C   UNL     1       9.326   4.468   1.189  0.00  0.00    +0.097 A 
ATOM     23  C   UNL     1       9.708   5.671   1.752  0.00  0.00    +0.028 A 
ATOM     24  C   UNL     1      10.185   5.708   3.048  0.00  0.00    +0.017 A 
ATOM     25  C   UNL     1      10.281   4.540   3.783  0.00  0.00    +0.018 A 
ATOM     26  C   UNL     1       9.898   3.336   3.220  0.00  0.00    +0.017 A 
ATOM     27  C   UNL     1       9.416   3.301   1.925  0.00  0.00    +0.028 A 
ATOM     28 BR   UNL     1      10.934   4.588   5.557  0.00  0.00    -0.050 Br
ENDBRANCH  19  22
ENDBRANCH   4  19
TORSDOF 5
