REMARK  Name = ZINC05801796
REMARK  10 active torsions:
REMARK  status: ('A' for Active; 'I' for Inactive)
REMARK    1  A    between atoms: C_1  and  N_2
REMARK    2  A    between atoms: C_3  and  C_5
REMARK    3  A    between atoms: C_5  and  O_6
REMARK    4  A    between atoms: O_6  and  C_7
REMARK    5  A    between atoms: C_7  and  C_9
REMARK    6  A    between atoms: C_9  and  S_10
REMARK    7  A    between atoms: S_10  and  C_11
REMARK    8  A    between atoms: C_14  and  C_19
REMARK    9  A    between atoms: N_15  and  C_16
REMARK   10  A    between atoms: C_16  and  C_17
REMARK                            x       y       z     vdW  Elec       q    Type
REMARK                         _______ _______ _______ _____ _____    ______ ____
ROOT
ATOM      1  C   UNL     1      -0.750   3.499  -0.012  0.00  0.00    +0.193 A 
ATOM      2  N   UNL     1       0.563   3.552  -0.031  0.00  0.00    -0.122 NA
ATOM      3  N   UNL     1       1.054   2.365   0.013  0.00  0.00    -0.128 NA
ATOM      4  C   UNL     1       0.085   1.481   0.063  0.00  0.00    +0.165 A 
ATOM      5  N   UNL     1      -1.100   2.180   0.043  0.00  0.00    -0.298 N 
ENDROOT
BRANCH   4   6
ATOM      6  C   UNL     1       0.237   0.012   0.124  0.00  0.00    +0.019 A 
ATOM      7  C   UNL     1      -0.821  -0.785   0.564  0.00  0.00    +0.013 A 
ATOM      8  C   UNL     1      -0.673  -2.156   0.614  0.00  0.00    +0.021 A 
ATOM      9  C   UNL     1       0.524  -2.740   0.238  0.00  0.00    +0.041 A 
ATOM     10  C   UNL     1       1.579  -1.954  -0.194  0.00  0.00    +0.021 A 
ATOM     11  C   UNL     1       1.442  -0.583  -0.253  0.00  0.00    +0.013 A 
ATOM     12 CL   UNL     1       0.704  -4.466   0.310  0.00  0.00    -0.084 Cl
ENDBRANCH   4   6
BRANCH   1  13
ATOM     13  S   UNL     1      -1.852   4.872  -0.056  0.00  0.00    -0.075 S 
BRANCH  13  14
ATOM     14  C   UNL     1      -0.659   6.231  -0.130  0.00  0.00    +0.197 C 
BRANCH  14  15
ATOM     15  C   UNL     1      -1.395   7.545  -0.176  0.00  0.00    +0.318 C 
ATOM     16  O   UNL     1      -2.603   7.561  -0.161  0.00  0.00    -0.250 OA
BRANCH  15  17
ATOM     17  O   UNL     1      -0.710   8.697  -0.234  0.00  0.00    -0.455 OA
BRANCH  17  18
ATOM     18  C   UNL     1      -1.485   9.924  -0.277  0.00  0.00    +0.327 C 
BRANCH  18  21
ATOM     19  C   UNL     1      -0.144  13.506  -0.447  0.00  0.00    +0.128 C 
ATOM     20  N   UNL     1      -1.051  12.357  -0.386  0.00  0.00    -0.316 N 
ATOM     21  C   UNL     1      -0.551  11.106  -0.339  0.00  0.00    +0.251 C 
ATOM     22  O   UNL     1       0.649  10.931  -0.347  0.00  0.00    -0.272 OA
ATOM     23  H   UNL     1      -2.010  12.497  -0.380  0.00  0.00    +0.148 HD
ENDBRANCH  18  21
ENDBRANCH  17  18
ENDBRANCH  15  17
ENDBRANCH  14  15
ENDBRANCH  13  14
ENDBRANCH   1  13
BRANCH   5  24
ATOM     24  C   UNL     1      -2.456   1.625   0.077  0.00  0.00    +0.152 C 
BRANCH  24  25
ATOM     25  C   UNL     1      -2.932   1.549   1.505  0.00  0.00    -0.013 C 
ATOM     26  C   UNL     1      -4.057   2.123   1.851  0.00  0.00    +0.005 C 
ENDBRANCH  24  25
ENDBRANCH   5  24
TORSDOF 9
