REMARK  Name = ZINC67263450
REMARK  8 active torsions:
REMARK  status: ('A' for Active; 'I' for Inactive)
REMARK    1  A    between atoms: C_1  and  C_2
REMARK    2  A    between atoms: C_7  and  O_8
REMARK    3  A    between atoms: O_8  and  C_9
REMARK    4  A    between atoms: C_9  and  C_11
REMARK    5  A    between atoms: C_9  and  C_12
REMARK    6  A    between atoms: N_14  and  C_15
REMARK    7  A    between atoms: C_18  and  C_21
REMARK    8  A    between atoms: C_21  and  N_22
REMARK                            x       y       z     vdW  Elec       q    Type
REMARK                         _______ _______ _______ _____ _____    ______ ____
ROOT
ATOM      1  C   UNL     1      -0.734   0.005   4.674  0.00  0.00    +0.258 C 
ATOM      2  O   UNL     1      -1.065   1.157   4.486  0.00  0.00    -0.271 OA
ATOM      3  N   UNL     1      -1.085  -0.619   5.817  0.00  0.00    -0.282 N 
ATOM      4  H   UNL     1      -0.760  -1.514   6.000  0.00  0.00    +0.155 HD
ENDROOT
BRANCH   3   5
ATOM      5  C   UNL     1      -1.918   0.026   6.738  0.00  0.00    +0.034 A 
ATOM      6  C   UNL     1      -1.756  -0.200   8.099  0.00  0.00    +0.023 A 
ATOM      7  C   UNL     1      -2.580   0.438   9.005  0.00  0.00    +0.007 A 
ATOM      8  C   UNL     1      -3.566   1.300   8.560  0.00  0.00    -0.030 A 
ATOM      9  C   UNL     1      -3.730   1.526   7.205  0.00  0.00    +0.007 A 
ATOM     10  C   UNL     1      -2.905   0.896   6.294  0.00  0.00    +0.023 A 
BRANCH   8  11
ATOM     11  C   UNL     1      -4.463   1.993   9.552  0.00  0.00    +0.141 C 
BRANCH  11  12
ATOM     12  N   UNL     1      -3.863   3.272   9.942  0.00  0.00    -0.295 N 
ATOM     13  C   UNL     1      -4.494   4.069  10.827  0.00  0.00    +0.297 C 
ATOM     14  O   UNL     1      -5.560   3.728  11.301  0.00  0.00    -0.253 OA
ATOM     15  N   UNL     1      -3.942   5.246  11.186  0.00  0.00    -0.313 N 
ATOM     16  H   UNL     1      -3.013   3.544   9.564  0.00  0.00    +0.151 HD
ATOM     17  H   UNL     1      -3.091   5.518  10.807  0.00  0.00    +0.146 HD
ATOM     18  H   UNL     1      -4.396   5.820  11.822  0.00  0.00    +0.146 HD
ENDBRANCH  11  12
ENDBRANCH   8  11
ENDBRANCH   3   5
BRANCH   1  19
ATOM     19  C   UNL     1       0.068  -0.729   3.631  0.00  0.00    +0.256 C 
ATOM     20  C   UNL     1       1.402  -1.174   4.234  0.00  0.00    +0.062 C 
BRANCH  19  21
ATOM     21  O   UNL     1       0.312   0.137   2.521  0.00  0.00    -0.480 OA
BRANCH  21  28
ATOM     22  C   UNL     1       0.542   1.827   0.270  0.00  0.00    +0.047 C 
ATOM     23  C   UNL     1       0.660   0.327   0.176  0.00  0.00    -0.007 A 
ATOM     24  C   UNL     1       0.895  -0.272  -1.047  0.00  0.00    +0.027 A 
ATOM     25  C   UNL     1       1.003  -1.649  -1.134  0.00  0.00    +0.041 A 
ATOM     26  C   UNL     1       0.876  -2.428   0.003  0.00  0.00    +0.023 A 
ATOM     27  C   UNL     1       0.641  -1.832   1.227  0.00  0.00    +0.047 A 
ATOM     28  C   UNL     1       0.538  -0.451   1.317  0.00  0.00    +0.125 A 
ATOM     29 CL   UNL     1       1.298  -2.400  -2.671  0.00  0.00    -0.084 Cl
ENDBRANCH  21  28
ENDBRANCH  19  21
ENDBRANCH   1  19
TORSDOF 6
