REMARK  Name = ZINC20687752
REMARK  9 active torsions:
REMARK  status: ('A' for Active; 'I' for Inactive)
REMARK    1  A    between atoms: C_1  and  C_2
REMARK    2  A    between atoms: C_2  and  C_4
REMARK    3  A    between atoms: C_2  and  N_20
REMARK    4  A    between atoms: N_9  and  C_10
REMARK    5  A    between atoms: N_20  and  C_21
REMARK    6  A    between atoms: N_20  and  C_22
REMARK    7  A    between atoms: C_22  and  C_23
REMARK    8  A    between atoms: C_26  and  O_29
REMARK    9  A    between atoms: O_29  and  C_30
REMARK                            x       y       z     vdW  Elec       q    Type
REMARK                         _______ _______ _______ _____ _____    ______ ____
ROOT
ATOM      1  C   UNL     1      -1.613   5.077   2.768  0.00  0.00    +0.207 C 
ATOM      2  O   UNL     1      -1.171   5.875   1.970  0.00  0.00    -0.277 OA
ATOM      3  N   UNL     1      -1.474   3.755   2.546  0.00  0.00    -0.242 N 
ATOM      4  C   UNL     1      -0.843   3.320   1.438  0.00  0.00    +0.306 C 
ATOM      5  O   UNL     1      -0.400   4.121   0.637  0.00  0.00    -0.252 OA
ATOM      6  N   UNL     1      -0.704   1.998   1.216  0.00  0.00    -0.294 N 
ATOM      7  H   UNL     1      -1.876   3.031   3.270  0.00  0.00    +0.159 HD
ATOM      8  H   UNL     1      -1.106   1.274   1.940  0.00  0.00    +0.151 HD
ENDROOT
BRANCH   6   9
ATOM      9  C   UNL     1      -0.019   1.526   0.010  0.00  0.00    +0.037 C 
ATOM     10  C   UNL     1       1.417   2.055  -0.000  0.00  0.00    +0.029 C 
ATOM     11  C   UNL     1       2.133   1.562  -1.259  0.00  0.00    -0.008 C 
ATOM     12  C   UNL     1       2.154   0.032  -1.268  0.00  0.00    +0.007 C 
ATOM     13  C   UNL     1       0.718  -0.497  -1.257  0.00  0.00    -0.008 C 
ATOM     14  C   UNL     1       0.002  -0.004   0.002  0.00  0.00    +0.029 C 
ATOM     15  C   UNL     1      -0.022   0.009  -2.496  0.00  0.00    +0.007 C 
ATOM     16  C   UNL     1      -0.043   1.539  -2.488  0.00  0.00    -0.008 C 
ATOM     17  C   UNL     1       1.393   2.069  -2.499  0.00  0.00    +0.007 C 
ATOM     18  C   UNL     1      -0.759   2.033  -1.229  0.00  0.00    +0.029 C 
ENDBRANCH   6   9
BRANCH   1  20
ATOM     19  C   UNL     1      -3.754   5.034   4.019  0.00  0.00    -0.004 C 
ATOM     20  C   UNL     1      -2.319   5.563   4.008  0.00  0.00    +0.017 C 
BRANCH  20  21
ATOM     21  N   UNL     1      -2.339   7.032   4.016  0.00  0.00    +0.388 N 
ATOM     22  C   UNL     1      -3.163   7.553   2.918  0.00  0.00    -0.095 C 
ATOM     23  H   UNL     1      -1.308   7.385   3.862  0.00  0.00    -0.081 HD
BRANCH  21  24
ATOM     24  C   UNL     1      -2.803   7.545   5.312  0.00  0.00    -0.042 C 
BRANCH  24  25
ATOM     25  C   UNL     1      -2.579   9.034   5.372  0.00  0.00    -0.064 A 
ATOM     26  C   UNL     1      -1.389   9.534   5.867  0.00  0.00    +0.005 A 
ATOM     27  C   UNL     1      -1.180  10.899   5.917  0.00  0.00    +0.046 A 
ATOM     28  C   UNL     1      -2.169  11.768   5.481  0.00  0.00    +0.127 A 
ATOM     29  C   UNL     1      -3.365  11.264   4.991  0.00  0.00    +0.046 A 
ATOM     30  C   UNL     1      -3.567   9.898   4.937  0.00  0.00    +0.005 A 
BRANCH  28  31
ATOM     31  O   UNL     1      -1.968  13.111   5.535  0.00  0.00    -0.434 OA
BRANCH  31  32
ATOM     32  C   UNL     1      -0.713  13.558   6.052  0.00  0.00    +0.541 C 
ATOM     33  F   UNL     1      -0.561  13.103   7.366  0.00  0.00    -0.166 F 
ATOM     34  F   UNL     1       0.324  13.054   5.260  0.00  0.00    -0.166 F 
ENDBRANCH  31  32
ENDBRANCH  28  31
ENDBRANCH  24  25
ENDBRANCH  21  24
ENDBRANCH  20  21
ENDBRANCH   1  20
TORSDOF 7
