REMARK  Name = ZINC47740836
REMARK  10 active torsions:
REMARK  status: ('A' for Active; 'I' for Inactive)
REMARK    1  A    between atoms: C_1  and  C_2
REMARK    2  A    between atoms: C_4  and  S_23
REMARK    3  A    between atoms: C_6  and  N_9
REMARK    4  A    between atoms: C_7  and  C_8
REMARK    5  A    between atoms: C_10  and  C_12
REMARK    6  A    between atoms: C_13  and  C_22
REMARK    7  A    between atoms: C_14  and  C_19
REMARK    8  A    between atoms: C_15  and  C_18
REMARK    9  A    between atoms: C_19  and  C_21
REMARK   10  A    between atoms: S_23  and  N_26
REMARK                            x       y       z     vdW  Elec       q    Type
REMARK                         _______ _______ _______ _____ _____    ______ ____
ROOT
ATOM      1  N   UNL     1       0.052  -2.797   2.392  0.00  0.00    -0.280 N 
ATOM      2  C   UNL     1      -0.031  -4.142   2.384  0.00  0.00    +0.265 C 
ATOM      3  O   UNL     1      -0.028  -4.747   1.328  0.00  0.00    -0.268 OA
ATOM      4  H   UNL     1       0.131  -2.321   3.233  0.00  0.00    +0.155 HD
ENDROOT
BRANCH   1  10
ATOM      5  C   UNL     1       1.206   1.235  -0.172  0.00  0.00    +0.044 C 
ATOM      6  C   UNL     1       0.577  -0.132  -0.085  0.00  0.00    -0.044 A 
ATOM      7  C   UNL     1      -0.027  -0.686  -1.198  0.00  0.00    +0.032 A 
ATOM      8  C   UNL     1      -0.605  -1.940  -1.122  0.00  0.00    +0.107 A 
ATOM      9  C   UNL     1      -0.581  -2.643   0.067  0.00  0.00    +0.052 A 
ATOM     10  C   UNL     1       0.026  -2.089   1.186  0.00  0.00    +0.039 A 
ATOM     11  C   UNL     1       0.610  -0.831   1.105  0.00  0.00    -0.026 A 
ATOM     12  C   UNL     1       1.274  -0.228   2.317  0.00  0.00    +0.046 C 
BRANCH   8  13
ATOM     13  S   UNL     1      -1.375  -2.642  -2.543  0.00  0.00    +0.056 S 
ATOM     14  O   UNL     1      -2.319  -3.591  -2.067  0.00  0.00    -0.153 OA
ATOM     15  O   UNL     1      -1.744  -1.556  -3.383  0.00  0.00    -0.153 OA
BRANCH  13  16
ATOM     16  N   UNL     1      -0.213  -3.497  -3.357  0.00  0.00    -0.204 NA
ATOM     17  H   UNL     1       0.693  -3.531  -3.014  0.00  0.00    +0.144 HD
ATOM     18  H   UNL     1      -0.440  -3.963  -4.177  0.00  0.00    +0.144 HD
ENDBRANCH  13  16
ENDBRANCH   8  13
ENDBRANCH   1  10
BRANCH   2  19
ATOM     19  C   UNL     1      -0.125  -4.879   3.651  0.00  0.00    +0.106 A 
ATOM     20  C   UNL     1      -0.209  -6.232   3.782  0.00  0.00    -0.010 A 
ATOM     21  C   UNL     1      -0.281  -6.510   5.168  0.00  0.00    +0.041 A 
ATOM     22  C   UNL     1      -0.238  -5.292   5.828  0.00  0.00    +0.024 A 
ATOM     23  N   UNL     1      -0.138  -4.319   4.910  0.00  0.00    -0.354 N 
ATOM     24  H   UNL     1      -0.086  -3.369   5.103  0.00  0.00    +0.166 HD
ATOM     25  C   UNL     1      -0.288  -5.095   7.321  0.00  0.00    +0.064 C 
ATOM     26  C   UNL     1      -0.222  -7.242   2.663  0.00  0.00    +0.047 C 
BRANCH  21  27
ATOM     27  C   UNL     1      -0.383  -7.835   5.788  0.00  0.00    +0.162 C 
ATOM     28  O   UNL     1      -1.468  -8.362   5.919  0.00  0.00    -0.292 OA
ATOM     29  C   UNL     1       0.860  -8.543   6.262  0.00  0.00    +0.091 C 
ENDBRANCH  21  27
ENDBRANCH   2  19
TORSDOF 5
