REMARK  Name = ZINC33127935
REMARK  5 active torsions:
REMARK  status: ('A' for Active; 'I' for Inactive)
REMARK    1  A    between atoms: C_4  and  C_7
REMARK    2  A    between atoms: C_7  and  C_8
REMARK    3  A    between atoms: C_8  and  C_10
REMARK    4  A    between atoms: C_8  and  N_21
REMARK    5  A    between atoms: N_24  and  C_25
REMARK                            x       y       z     vdW  Elec       q    Type
REMARK                         _______ _______ _______ _____ _____    ______ ____
ROOT
ATOM      1  C   UNL     1       0.042   0.052  -0.182  0.00  0.00    +0.165 C 
ENDROOT
BRANCH   1   2
ATOM      2  C   UNL     1      -0.195   1.536  -0.293  0.00  0.00    +0.240 C 
ATOM      3  O   UNL     1       0.699   2.314  -0.033  0.00  0.00    -0.273 OA
ATOM      4  N   UNL     1      -1.398   2.000  -0.686  0.00  0.00    -0.269 N 
ATOM      5  C   UNL     1      -2.583   1.169  -0.918  0.00  0.00    +0.118 C 
ATOM      6  C   UNL     1      -3.686   2.151  -1.346  0.00  0.00    +0.056 C 
ATOM      7  C   UNL     1      -3.018   3.508  -1.322  0.00  0.00    -0.024 A 
ATOM      8  C   UNL     1      -1.700   3.343  -0.927  0.00  0.00    +0.040 A 
ATOM      9  C   UNL     1      -0.878   4.467  -0.826  0.00  0.00    +0.024 A 
ATOM     10  C   UNL     1      -1.375   5.721  -1.111  0.00  0.00    +0.002 A 
ATOM     11  C   UNL     1      -2.693   5.874  -1.501  0.00  0.00    +0.000 A 
ATOM     12  C   UNL     1      -3.511   4.765  -1.612  0.00  0.00    +0.005 A 
ENDBRANCH   1   2
BRANCH   1  13
ATOM     13  N   UNL     1       1.475  -0.225  -0.307  0.00  0.00    -0.288 N 
ATOM     14  C   UNL     1       1.893  -1.431  -0.739  0.00  0.00    +0.304 C 
ATOM     15  O   UNL     1       1.081  -2.289  -1.025  0.00  0.00    -0.252 OA
ATOM     16  N   UNL     1       3.212  -1.685  -0.853  0.00  0.00    -0.269 N 
ATOM     17  H   UNL     1       2.209   0.552  -0.048  0.00  0.00    +0.151 HD
ATOM     18  H   UNL     1       3.947  -0.936  -0.523  0.00  0.00    +0.156 HD
BRANCH  16  19
ATOM     19  C   UNL     1       3.646  -2.902  -1.392  0.00  0.00    +0.035 A 
ATOM     20  C   UNL     1       4.821  -3.485  -0.937  0.00  0.00    +0.023 A 
ATOM     21  C   UNL     1       5.244  -4.688  -1.467  0.00  0.00    +0.002 A 
ATOM     22  C   UNL     1       4.503  -5.307  -2.458  0.00  0.00    +0.000 A 
ATOM     23  C   UNL     1       3.335  -4.726  -2.916  0.00  0.00    +0.002 A 
ATOM     24  C   UNL     1       2.904  -3.526  -2.386  0.00  0.00    +0.023 A 
ENDBRANCH  16  19
ENDBRANCH   1  13
BRANCH   1  25
ATOM     25  C   UNL     1      -0.458  -0.444   1.176  0.00  0.00    +0.067 C 
BRANCH  25  29
ATOM     26  C   UNL     1      -0.029  -4.689   1.388  0.00  0.00    +0.000 A 
ATOM     27  C   UNL     1       0.977  -3.868   1.863  0.00  0.00    +0.000 A 
ATOM     28  C   UNL     1       0.838  -2.494   1.794  0.00  0.00    +0.004 A 
ATOM     29  C   UNL     1      -0.306  -1.942   1.250  0.00  0.00    -0.045 A 
ATOM     30  C   UNL     1      -1.314  -2.762   0.780  0.00  0.00    +0.004 A 
ATOM     31  C   UNL     1      -1.173  -4.136   0.844  0.00  0.00    +0.000 A 
ENDBRANCH  25  29
ENDBRANCH   1  25
TORSDOF 5
