REMARK  Name = ZINC08961930
REMARK  7 active torsions:
REMARK  status: ('A' for Active; 'I' for Inactive)
REMARK    1  A    between atoms: C_1  and  C_2
REMARK    2  A    between atoms: C_4  and  C_27
REMARK    3  A    between atoms: C_5  and  S_9
REMARK    4  A    between atoms: C_7  and  C_8
REMARK    5  A    between atoms: S_9  and  N_12
REMARK    6  A    between atoms: N_12  and  C_13
REMARK    7  A    between atoms: C_23  and  C_26
REMARK                            x       y       z     vdW  Elec       q    Type
REMARK                         _______ _______ _______ _____ _____    ______ ____
ROOT
ATOM      1  N   UNL     1      -2.348  -0.415   1.294  0.00  0.00    -0.216 N 
ATOM      2  H   UNL     1      -2.547  -1.028   2.019  0.00  0.00    +0.174 HD
ENDROOT
BRANCH   1   3
ATOM      3  C   UNL     1      -2.853   0.889   1.322  0.00  0.00    +0.049 A 
ATOM      4  C   UNL     1      -3.428   1.435   0.178  0.00  0.00    +0.028 A 
ATOM      5  C   UNL     1      -3.932   2.720   0.194  0.00  0.00    +0.048 A 
ATOM      6  C   UNL     1      -3.869   3.475   1.353  0.00  0.00    +0.133 A 
ATOM      7  C   UNL     1      -3.287   2.932   2.509  0.00  0.00    +0.080 A 
ATOM      8  C   UNL     1      -2.785   1.632   2.489  0.00  0.00    +0.041 A 
ATOM      9  C   UNL     1      -3.220   3.756   3.731  0.00  0.00    +0.248 C 
ATOM     10  O   UNL     1      -2.184   3.846   4.361  0.00  0.00    -0.270 OA
ATOM     11  N   UNL     1      -4.334   4.409   4.139  0.00  0.00    -0.308 N 
ATOM     12  C   UNL     1      -5.596   4.199   3.427  0.00  0.00    +0.148 C 
ATOM     13  C   UNL     1      -5.591   4.931   2.092  0.00  0.00    +0.187 C 
ATOM     14  O   UNL     1      -4.368   4.737   1.393  0.00  0.00    -0.487 OA
ATOM     15  C   UNL     1      -5.790   6.428   2.342  0.00  0.00    +0.053 C 
ATOM     16  H   UNL     1      -4.296   5.012   4.898  0.00  0.00    +0.149 HD
ENDBRANCH   1   3
BRANCH   1  17
ATOM     17  S   UNL     1      -1.409  -0.913   0.024  0.00  0.00    +0.073 S 
ATOM     18  O   UNL     1      -2.122  -0.585  -1.161  0.00  0.00    -0.150 OA
ATOM     19  O   UNL     1      -0.994  -2.239   0.320  0.00  0.00    -0.150 OA
BRANCH  17  24
ATOM     20  C   UNL     1       3.570   2.496   0.042  0.00  0.00    +0.044 C 
ATOM     21  C   UNL     1       2.326   1.645   0.038  0.00  0.00    -0.047 A 
ATOM     22  C   UNL     1       2.087   0.765   1.077  0.00  0.00    +0.009 A 
ATOM     23  C   UNL     1       0.946  -0.016   1.073  0.00  0.00    -0.024 A 
ATOM     24  C   UNL     1       0.045   0.082   0.029  0.00  0.00    +0.112 A 
ATOM     25  C   UNL     1       0.285   0.961  -1.010  0.00  0.00    +0.032 A 
ATOM     26  C   UNL     1       1.425   1.743  -1.006  0.00  0.00    -0.046 A 
ATOM     27  C   UNL     1       1.687   2.701  -2.139  0.00  0.00    +0.044 C 
ATOM     28  C   UNL     1       0.682  -0.970   2.209  0.00  0.00    +0.046 C 
ENDBRANCH  17  24
ENDBRANCH   1  17
TORSDOF 3
