REMARK  Name = ZINC00622841
REMARK  7 active torsions:
REMARK  status: ('A' for Active; 'I' for Inactive)
REMARK    1  A    between atoms: C_4  and  C_7
REMARK    2  A    between atoms: C_14  and  N_36
REMARK    3  A    between atoms: C_15  and  C_34
REMARK    4  A    between atoms: C_16  and  C_18
REMARK    5  A    between atoms: C_22  and  O_24
REMARK    6  A    between atoms: O_24  and  C_25
REMARK    7  A    between atoms: C_25  and  C_26
REMARK                            x       y       z     vdW  Elec       q    Type
REMARK                         _______ _______ _______ _____ _____    ______ ____
ROOT
ATOM      1  C   UNL     1       3.991  -0.942  -0.186  0.00  0.00    +0.100 A 
ATOM      2  C   UNL     1       4.136  -2.037   0.671  0.00  0.00    +0.054 A 
ATOM      3  C   UNL     1       5.407  -2.514   0.535  0.00  0.00    +0.223 A 
ATOM      4  N   UNL     1       6.038  -1.746  -0.378  0.00  0.00    -0.246 N 
ATOM      5  H   UNL     1       6.955  -1.853  -0.677  0.00  0.00    +0.192 HD
ATOM      6  N   UNL     1       5.134  -0.769  -0.822  0.00  0.00    -0.171 NA
ATOM      7  O   UNL     1       5.869  -3.579   1.237  0.00  0.00    -0.423 OA
ATOM      8  C   UNL     1       5.134  -4.002   2.286  0.00  0.00    +0.200 C 
ATOM      9  C   UNL     1       3.861  -3.610   2.519  0.00  0.00    +0.098 C 
ATOM     10  C   UNL     1       3.131  -2.652   1.611  0.00  0.00    +0.102 C 
ENDROOT
BRANCH   1  14
ATOM     11  C   UNL     1       0.479   1.408  -0.671  0.00  0.00    +0.000 A 
ATOM     12  C   UNL     1       0.876   1.014   0.594  0.00  0.00    +0.001 A 
ATOM     13  C   UNL     1       2.014   0.252   0.757  0.00  0.00    +0.010 A 
ATOM     14  C   UNL     1       2.765  -0.122  -0.355  0.00  0.00    +0.003 A 
ATOM     15  C   UNL     1       2.361   0.277  -1.627  0.00  0.00    +0.010 A 
ATOM     16  C   UNL     1       1.221   1.040  -1.779  0.00  0.00    +0.001 A 
ENDBRANCH   1  14
BRANCH  10  17
ATOM     17  C   UNL     1       2.086  -3.397   0.821  0.00  0.00    -0.031 A 
ATOM     18  C   UNL     1       2.465  -4.392  -0.061  0.00  0.00    +0.005 A 
ATOM     19  C   UNL     1       1.509  -5.077  -0.788  0.00  0.00    +0.004 A 
ATOM     20  C   UNL     1       0.171  -4.768  -0.634  0.00  0.00    +0.045 A 
ATOM     21  C   UNL     1      -0.212  -3.770   0.250  0.00  0.00    +0.121 A 
ATOM     22  C   UNL     1       0.749  -3.088   0.982  0.00  0.00    +0.050 A 
BRANCH  21  23
ATOM     23  O   UNL     1      -1.527  -3.464   0.403  0.00  0.00    -0.487 OA
BRANCH  23  24
ATOM     24  C   UNL     1      -2.462  -4.211  -0.379  0.00  0.00    +0.266 C 
BRANCH  24  25
ATOM     25  C   UNL     1      -3.861  -3.736  -0.078  0.00  0.00    +0.008 A 
ATOM     26  C   UNL     1      -4.064  -2.718   0.834  0.00  0.00    +0.010 A 
ATOM     27  C   UNL     1      -5.346  -2.282   1.110  0.00  0.00    +0.020 A 
ATOM     28  C   UNL     1      -6.427  -2.865   0.473  0.00  0.00    +0.042 A 
ATOM     29  C   UNL     1      -6.224  -3.884  -0.441  0.00  0.00    +0.040 A 
ATOM     30  C   UNL     1      -4.940  -4.316  -0.720  0.00  0.00    +0.049 A 
ATOM     31 CL   UNL     1      -4.685  -5.590  -1.871  0.00  0.00    -0.083 Cl
ATOM     32 CL   UNL     1      -8.038  -2.318   0.821  0.00  0.00    -0.083 Cl
ENDBRANCH  24  25
ENDBRANCH  23  24
ENDBRANCH  21  23
ENDBRANCH  10  17
BRANCH   8  33
ATOM     33  N   UNL     1       5.712  -4.881   3.168  0.00  0.00    -0.328 N 
ATOM     34  H   UNL     1       6.623  -5.180   3.027  0.00  0.00    +0.145 HD
ATOM     35  H   UNL     1       5.208  -5.202   3.932  0.00  0.00    +0.145 HD
ENDBRANCH   8  33
BRANCH   9  36
ATOM     36  C   UNL     1       3.181  -4.123   3.670  0.00  0.00    +0.101 C 
ATOM     37  N   UNL     1       2.642  -4.531   4.582  0.00  0.00    -0.191 NA
ENDBRANCH   9  36
TORSDOF 7
