REMARK  Name = ZINC21601863
REMARK  9 active torsions:
REMARK  status: ('A' for Active; 'I' for Inactive)
REMARK    1  A    between atoms: C_1  and  C_2
REMARK    2  A    between atoms: C_2  and  C_4
REMARK    3  A    between atoms: C_2  and  O_18
REMARK    4  A    between atoms: N_6  and  C_7
REMARK    5  A    between atoms: C_8  and  C_15
REMARK    6  A    between atoms: O_18  and  C_19
REMARK    7  A    between atoms: C_19  and  C_21
REMARK    8  A    between atoms: C_21  and  N_22
REMARK    9  A    between atoms: C_23  and  C_25
REMARK                            x       y       z     vdW  Elec       q    Type
REMARK                         _______ _______ _______ _____ _____    ______ ____
ROOT
ATOM      1  C   UNL     1      -0.448   2.931  -5.136  0.00  0.00    +0.062 C 
ATOM      2  C   UNL     1      -1.803   2.255  -4.912  0.00  0.00    +0.259 C 
ENDROOT
BRANCH   2   3
ATOM      3  C   UNL     1      -2.257   2.497  -3.496  0.00  0.00    +0.258 C 
ATOM      4  O   UNL     1      -3.300   3.079  -3.285  0.00  0.00    -0.271 OA
ATOM      5  N   UNL     1      -1.504   2.067  -2.463  0.00  0.00    -0.276 N 
ATOM      6  H   UNL     1      -0.558   1.540  -2.655  0.00  0.00    +0.155 HD
BRANCH   5   7
ATOM      7  C   UNL     1      -1.923   2.290  -1.160  0.00  0.00    +0.084 A 
ATOM      8  C   UNL     1      -1.294   1.929   0.019  0.00  0.00    +0.068 A 
ATOM      9  C   UNL     1      -1.949   2.292   1.275  0.00  0.00    -0.023 A 
ATOM     10  C   UNL     1      -3.116   2.947   1.141  0.00  0.00    -0.004 A 
ATOM     11  S   UNL     1      -3.359   3.086  -0.613  0.00  0.00    -0.077 S 
ATOM     12  C   UNL     1      -3.727   3.290   2.473  0.00  0.00    +0.043 C 
ATOM     13  C   UNL     1      -2.568   3.137   3.483  0.00  0.00    +0.010 C 
ATOM     14  C   UNL     1      -1.659   2.119   2.766  0.00  0.00    +0.037 C 
BRANCH   8  15
ATOM     15  C   UNL     1      -0.014   1.213   0.009  0.00  0.00    +0.244 C 
ATOM     16  O   UNL     1       0.002  -0.004   0.002  0.00  0.00    -0.270 OA
ATOM     17  N   UNL     1       1.143   1.903   0.001  0.00  0.00    -0.325 N 
ATOM     18  H   UNL     1       2.103   1.366  -0.006  0.00  0.00    +0.145 HD
ATOM     19  H   UNL     1       1.129   3.002   0.003  0.00  0.00    +0.145 HD
ENDBRANCH   8  15
ENDBRANCH   5   7
ENDBRANCH   2   3
BRANCH   2  20
ATOM     20  O   UNL     1      -2.778   2.808  -5.835  0.00  0.00    -0.451 OA
BRANCH  20  21
ATOM     21  C   UNL     1      -2.902   2.202  -7.026  0.00  0.00    +0.325 C 
ATOM     22  O   UNL     1      -2.218   1.242  -7.289  0.00  0.00    -0.249 OA
BRANCH  21  23
ATOM     23  C   UNL     1      -3.894   2.720  -8.035  0.00  0.00    +0.225 C 
BRANCH  23  24
ATOM     24  N   UNL     1      -3.837   1.895  -9.244  0.00  0.00    -0.304 N 
ATOM     25  C   UNL     1      -4.642   2.173 -10.288  0.00  0.00    +0.220 C 
ATOM     26  O   UNL     1      -5.413   3.107 -10.228  0.00  0.00    -0.275 OA
ATOM     27  H   UNL     1      -3.138   1.047  -9.299  0.00  0.00    +0.149 HD
BRANCH  25  28
ATOM     28  C   UNL     1      -4.584   1.323 -11.532  0.00  0.00    +0.048 C 
ATOM     29  C   UNL     1      -3.175   1.382 -12.125  0.00  0.00    +0.019 C 
ATOM     30  C   UNL     1      -3.116   0.520 -13.387  0.00  0.00    -0.009 C 
ATOM     31  C   UNL     1      -4.123   1.046 -14.412  0.00  0.00    +0.007 C 
ATOM     32  C   UNL     1      -5.532   0.986 -13.819  0.00  0.00    -0.009 C 
ATOM     33  C   UNL     1      -5.591   1.849 -12.556  0.00  0.00    +0.019 C 
ATOM     34  C   UNL     1      -5.876  -0.462 -13.463  0.00  0.00    +0.007 C 
ATOM     35  C   UNL     1      -4.869  -0.988 -12.438  0.00  0.00    -0.009 C 
ATOM     36  C   UNL     1      -3.459  -0.928 -13.031  0.00  0.00    +0.007 C 
ATOM     37  C   UNL     1      -4.927  -0.125 -11.176  0.00  0.00    +0.019 C 
ENDBRANCH  25  28
ENDBRANCH  23  24
ENDBRANCH  21  23
ENDBRANCH  20  21
ENDBRANCH   2  20
TORSDOF 8
