REMARK  Name = ZINC06134260
REMARK  11 active torsions:
REMARK  status: ('A' for Active; 'I' for Inactive)
REMARK    1  A    between atoms: C_1  and  C_2
REMARK    2  A    between atoms: C_2  and  O_3
REMARK    3  A    between atoms: O_3  and  C_4
REMARK    4  A    between atoms: C_12  and  N_32
REMARK    5  A    between atoms: C_13  and  C_17
REMARK    6  A    between atoms: N_19  and  C_20
REMARK    7  A    between atoms: N_19  and  C_26
REMARK    8  A    between atoms: C_20  and  C_21
REMARK    9  A    between atoms: C_21  and  O_23
REMARK   10  A    between atoms: O_23  and  C_24
REMARK   11  A    between atoms: C_24  and  C_25
REMARK                            x       y       z     vdW  Elec       q    Type
REMARK                         _______ _______ _______ _____ _____    ______ ____
ROOT
ATOM      1  C   UNL     1      -7.358   6.159   5.725  0.00  0.00    +0.121 A 
ATOM      2  C   UNL     1      -7.729   4.880   6.155  0.00  0.00    +0.048 A 
ATOM      3  C   UNL     1      -7.029   3.781   5.767  0.00  0.00    +0.032 A 
ATOM      4  C   UNL     1      -5.915   3.924   4.921  0.00  0.00    +0.073 A 
ATOM      5  C   UNL     1      -5.536   5.220   4.483  0.00  0.00    +0.005 A 
ATOM      6  C   UNL     1      -6.283   6.337   4.905  0.00  0.00    +0.055 A 
ATOM      7  C   UNL     1      -4.428   5.373   3.643  0.00  0.00    +0.022 A 
ATOM      8  C   UNL     1      -3.711   4.230   3.247  0.00  0.00    +0.030 A 
ATOM      9  C   UNL     1      -2.538   4.156   2.385  0.00  0.00    +0.053 A 
ATOM     10  C   UNL     1      -1.992   2.919   2.128  0.00  0.00    +0.098 A 
ATOM     11  S   UNL     1      -3.043   1.802   3.035  0.00  0.00    -0.062 S 
ATOM     12  C   UNL     1      -4.172   2.979   3.740  0.00  0.00    +0.111 A 
ATOM     13  N   UNL     1      -5.211   2.858   4.527  0.00  0.00    -0.239 NA
ENDROOT
BRANCH  10  14
ATOM     14  C   UNL     1      -0.866   2.608   1.328  0.00  0.00    +0.260 C 
ATOM     15  O   UNL     1      -0.190   3.502   0.853  0.00  0.00    -0.269 OA
ATOM     16  N   UNL     1      -0.542   1.321   1.093  0.00  0.00    -0.256 N 
BRANCH  16  17
ATOM     17  C   UNL     1      -1.378   0.295   1.545  0.00  0.00    +0.037 A 
ATOM     18  C   UNL     1      -1.125  -0.323   2.763  0.00  0.00    +0.023 A 
ATOM     19  C   UNL     1      -1.956  -1.332   3.209  0.00  0.00    +0.002 A 
ATOM     20  C   UNL     1      -3.032  -1.735   2.439  0.00  0.00    +0.000 A 
ATOM     21  C   UNL     1      -3.283  -1.125   1.224  0.00  0.00    +0.002 A 
ATOM     22  C   UNL     1      -2.459  -0.112   0.774  0.00  0.00    +0.023 A 
ENDBRANCH  16  17
BRANCH  16  23
ATOM     23  C   UNL     1       0.686   0.996   0.363  0.00  0.00    +0.234 C 
BRANCH  23  24
ATOM     24  C   UNL     1       0.391   0.929  -1.114  0.00  0.00    +0.325 C 
ATOM     25  O   UNL     1      -0.731   1.131  -1.515  0.00  0.00    -0.249 OA
BRANCH  24  26
ATOM     26  O   UNL     1       1.373   0.644  -1.983  0.00  0.00    -0.464 OA
BRANCH  26  27
ATOM     27  C   UNL     1       1.015   0.597  -3.389  0.00  0.00    +0.229 C 
ATOM     28  C   UNL     1       2.256   0.261  -4.220  0.00  0.00    +0.048 C 
ENDBRANCH  26  27
ENDBRANCH  24  26
ENDBRANCH  23  24
ENDBRANCH  16  23
ENDBRANCH  10  14
BRANCH   9  29
ATOM     29  N   UNL     1      -1.985   5.303   1.836  0.00  0.00    -0.356 N 
ATOM     30  H   UNL     1      -1.205   5.240   1.264  0.00  0.00    +0.142 HD
ATOM     31  H   UNL     1      -2.380   6.170   2.025  0.00  0.00    +0.142 HD
ENDBRANCH   9  29
BRANCH   1  32
ATOM     32  O   UNL     1      -8.079   7.238   6.130  0.00  0.00    -0.492 OA
BRANCH  32  34
ATOM     33  C   UNL     1      -9.876   8.313   7.336  0.00  0.00    +0.048 C 
ATOM     34  C   UNL     1      -9.194   6.989   6.989  0.00  0.00    +0.225 C 
ENDBRANCH  32  34
ENDBRANCH   1  32
TORSDOF 9
