REMARK  Name = ZINC04529330
REMARK  3 active torsions:
REMARK  status: ('A' for Active; 'I' for Inactive)
REMARK    1  A    between atoms: C_1  and  C_2
REMARK    2  A    between atoms: C_2  and  O_3
REMARK    3  A    between atoms: O_3  and  P_4
REMARK                            x       y       z     vdW  Elec       q    Type
REMARK                         _______ _______ _______ _____ _____    ______ ____
ROOT
ATOM      1  P   UNL     1       0.877  -2.026  -1.510  0.00  0.00    +0.349 P 
ATOM      2  H   UNL     1       1.313  -2.708  -0.344  0.00  0.00    +0.162 HD
ATOM      3  O   UNL     1      -0.461  -2.630  -1.991  0.00  0.00    -0.260 OA
ATOM      4  O   UNL     1       1.940  -2.177  -2.622  0.00  0.00    -0.143 OA
ENDROOT
BRANCH   1   5
ATOM      5  O   UNL     1       0.671  -0.465  -1.174  0.00  0.00    -0.309 OA
BRANCH   5   7
ATOM      6  C   UNL     1      -0.019   1.526   0.010  0.00  0.00    +0.034 C 
ATOM      7  C   UNL     1       0.002  -0.004   0.002  0.00  0.00    +0.166 C 
ENDBRANCH   5   7
ENDBRANCH   1   5
TORSDOF 2
