REMARK  Name = ZINC33436006
REMARK  7 active torsions:
REMARK  status: ('A' for Active; 'I' for Inactive)
REMARK    1  A    between atoms: C_1  and  C_2
REMARK    2  A    between atoms: C_5  and  S_8
REMARK    3  A    between atoms: S_8  and  N_11
REMARK    4  A    between atoms: N_11  and  C_12
REMARK    5  A    between atoms: C_15  and  N_18
REMARK    6  A    between atoms: C_19  and  N_37
REMARK    7  A    between atoms: C_20  and  C_23
REMARK                            x       y       z     vdW  Elec       q    Type
REMARK                         _______ _______ _______ _____ _____    ______ ____
ROOT
ATOM      1  N   UNL     1      -3.077  -2.250   0.230  0.00  0.00    -0.198 N 
ATOM      2  C   UNL     1      -1.765  -1.886   0.190  0.00  0.00    +0.152 A 
ATOM      3  C   UNL     1      -1.749  -0.505   0.043  0.00  0.00    +0.189 A 
ATOM      4  N   UNL     1      -3.024  -0.075  -0.010  0.00  0.00    -0.122 NA
ATOM      5  N   UNL     1      -3.827  -1.074   0.097  0.00  0.00    -0.058 NA
ENDROOT
BRANCH   3   6
ATOM      6  C   UNL     1      -0.551   0.339  -0.046  0.00  0.00    +0.270 C 
ATOM      7  O   UNL     1       0.551  -0.174  -0.107  0.00  0.00    -0.268 OA
ATOM      8  N   UNL     1      -0.671   1.681  -0.058  0.00  0.00    -0.293 N 
ATOM      9  C   UNL     1      -1.996   2.320  -0.078  0.00  0.00    +0.127 C 
ATOM     10  C   UNL     1      -2.045   3.362   1.051  0.00  0.00    +0.125 C 
ATOM     11  N   UNL     1      -0.910   4.283   0.910  0.00  0.00    -0.314 N 
ATOM     12  C   UNL     1       0.370   3.578   1.064  0.00  0.00    +0.125 C 
ATOM     13  C   UNL     1       0.519   2.546  -0.058  0.00  0.00    +0.127 C 
ATOM     14  C   UNL     1      -1.009   5.337   1.811  0.00  0.00    +0.099 A 
ATOM     15  C   UNL     1      -2.153   6.129   1.822  0.00  0.00    +0.042 A 
ATOM     16  C   UNL     1      -2.238   7.175   2.723  0.00  0.00    +0.005 A 
ATOM     17  C   UNL     1      -1.173   7.394   3.587  0.00  0.00    +0.018 A 
ATOM     18  C   UNL     1      -0.069   6.569   3.521  0.00  0.00    +0.084 A 
ATOM     19  N   UNL     1      -0.017   5.575   2.654  0.00  0.00    -0.350 N 
ATOM     20  H   UNL     1       0.879   4.937   2.644  0.00  0.00    +0.166 HD
ENDBRANCH   3   6
BRANCH   1  24
ATOM     21  C   UNL     1      -4.574  -6.123   0.649  0.00  0.00    +0.048 A 
ATOM     22  C   UNL     1      -5.247  -5.052   1.222  0.00  0.00    +0.026 A 
ATOM     23  C   UNL     1      -4.752  -3.771   1.083  0.00  0.00    +0.030 A 
ATOM     24  C   UNL     1      -3.580  -3.553   0.371  0.00  0.00    +0.069 A 
ATOM     25  C   UNL     1      -2.910  -4.622  -0.207  0.00  0.00    +0.030 A 
ATOM     26  C   UNL     1      -3.401  -5.904  -0.064  0.00  0.00    +0.026 A 
BRANCH  21  27
ATOM     27  N   UNL     1      -5.075  -7.420   0.788  0.00  0.00    -0.216 N 
ATOM     28  H   UNL     1      -5.413  -7.776   1.773  0.00  0.00    +0.174 HD
BRANCH  27  29
ATOM     29  S   UNL     1      -5.162  -8.421  -0.528  0.00  0.00    +0.072 S 
ATOM     30  O   UNL     1      -3.894  -8.360  -1.168  0.00  0.00    -0.150 OA
ATOM     31  O   UNL     1      -5.727  -9.642  -0.074  0.00  0.00    -0.150 OA
BRANCH  29  36
ATOM     32  C   UNL     1      -9.144  -5.995  -4.357  0.00  0.00    +0.044 C 
ATOM     33  C   UNL     1      -8.150  -6.601  -3.401  0.00  0.00    -0.050 A 
ATOM     34  C   UNL     1      -6.800  -6.345  -3.553  0.00  0.00    +0.005 A 
ATOM     35  C   UNL     1      -5.887  -6.901  -2.676  0.00  0.00    +0.029 A 
ATOM     36  C   UNL     1      -6.325  -7.712  -1.646  0.00  0.00    +0.109 A 
ATOM     37  C   UNL     1      -7.674  -7.973  -1.497  0.00  0.00    +0.029 A 
ATOM     38  C   UNL     1      -8.587  -7.413  -2.371  0.00  0.00    +0.005 A 
ENDBRANCH  29  36
ENDBRANCH  27  29
ENDBRANCH  21  27
ENDBRANCH   1  24
BRANCH   2  39
ATOM     39  N   UNL     1      -0.671  -2.722   0.280  0.00  0.00    -0.341 N 
ATOM     40  H   UNL     1       0.345  -2.305   0.234  0.00  0.00    +0.144 HD
ATOM     41  H   UNL     1      -0.816  -3.807   0.397  0.00  0.00    +0.144 HD
ENDBRANCH   2  39
TORSDOF 6
