REMARK  Name = ZINC25054329
REMARK  12 active torsions:
REMARK  status: ('A' for Active; 'I' for Inactive)
REMARK    1  A    between atoms: C_1  and  C_2
REMARK    2  A    between atoms: C_2  and  O_3
REMARK    3  A    between atoms: O_3  and  C_4
REMARK    4  A    between atoms: C_4  and  C_6
REMARK    5  A    between atoms: C_10  and  N_11
REMARK    6  A    between atoms: C_12  and  C_14
REMARK    7  A    between atoms: C_14  and  C_16
REMARK    8  A    between atoms: C_14  and  O_17
REMARK    9  A    between atoms: O_17  and  C_18
REMARK   10  A    between atoms: C_18  and  C_20
REMARK   11  A    between atoms: C_22  and  N_27
REMARK   12  A    between atoms: C_29  and  C_33
REMARK                            x       y       z     vdW  Elec       q    Type
REMARK                         _______ _______ _______ _____ _____    ______ ____
ROOT
ATOM      1  N   UNL     1      -0.349   1.190  -2.440  0.00  0.00    -0.276 N 
ATOM      2  C   UNL     1      -0.742   1.585  -1.213  0.00  0.00    +0.258 C 
ATOM      3  O   UNL     1      -1.681   2.342  -1.091  0.00  0.00    -0.271 OA
ATOM      4  H   UNL     1       0.503   0.504  -2.551  0.00  0.00    +0.155 HD
ENDROOT
BRANCH   1   9
ATOM      5  C   UNL     1      -0.763   1.364  -4.898  0.00  0.00    +0.091 A 
ATOM      6  C   UNL     1      -1.627   1.978  -5.893  0.00  0.00    -0.021 A 
ATOM      7  C   UNL     1      -2.593   2.781  -5.399  0.00  0.00    -0.004 A 
ATOM      8  S   UNL     1      -2.375   2.725  -3.643  0.00  0.00    -0.077 S 
ATOM      9  C   UNL     1      -1.019   1.650  -3.563  0.00  0.00    +0.086 A 
ATOM     10  C   UNL     1      -3.618   3.547  -6.179  0.00  0.00    +0.046 C 
ATOM     11  C   UNL     1      -3.178   3.583  -7.650  0.00  0.00    -0.009 C 
ATOM     12  C   UNL     1      -2.784   2.168  -8.081  0.00  0.00    +0.008 C 
ATOM     13  C   UNL     1      -1.480   1.759  -7.394  0.00  0.00    +0.037 C 
ATOM     14  C   UNL     1      -4.334   4.083  -8.518  0.00  0.00    +0.008 C 
BRANCH   5  15
ATOM     15  C   UNL     1       0.332   0.474  -5.288  0.00  0.00    +0.342 C 
ATOM     16  O   UNL     1       0.135  -0.721  -5.399  0.00  0.00    -0.245 OA
BRANCH  15  17
ATOM     17  O   UNL     1       1.560   0.980  -5.524  0.00  0.00    -0.461 OA
BRANCH  17  19
ATOM     18  C   UNL     1       3.911   0.793  -6.132  0.00  0.00    +0.048 C 
ATOM     19  C   UNL     1       2.598   0.040  -5.907  0.00  0.00    +0.229 C 
ENDBRANCH  17  19
ENDBRANCH  15  17
ENDBRANCH   5  15
ENDBRANCH   1   9
BRANCH   2  20
ATOM     20  C   UNL     1      -0.013   1.086   0.008  0.00  0.00    +0.259 C 
ATOM     21  C   UNL     1       1.423   1.615  -0.003  0.00  0.00    +0.062 C 
BRANCH  20  22
ATOM     22  O   UNL     1      -0.692   1.554   1.203  0.00  0.00    -0.449 OA
BRANCH  22  23
ATOM     23  C   UNL     1      -0.613   0.773   2.297  0.00  0.00    +0.343 C 
ATOM     24  O   UNL     1       0.007  -0.271   2.255  0.00  0.00    -0.245 OA
BRANCH  23  25
ATOM     25  C   UNL     1      -1.279   1.185   3.548  0.00  0.00    +0.096 A 
ATOM     26  C   UNL     1      -1.988   2.388   3.602  0.00  0.00    +0.040 A 
ATOM     27  C   UNL     1      -2.614   2.765   4.778  0.00  0.00    +0.025 A 
ATOM     28  C   UNL     1      -2.529   1.955   5.904  0.00  0.00    +0.025 A 
ATOM     29  C   UNL     1      -1.825   0.767   5.856  0.00  0.00    +0.041 A 
ATOM     30  C   UNL     1      -1.199   0.376   4.686  0.00  0.00    +0.137 A 
ATOM     31  F   UNL     1      -0.511  -0.786   4.643  0.00  0.00    -0.205 F 
BRANCH  27  32
ATOM     32  N   UNL     1      -3.328   3.966   4.834  0.00  0.00    -0.358 N 
ATOM     33  H   UNL     1      -3.826   4.267   5.768  0.00  0.00    +0.142 HD
ATOM     34  H   UNL     1      -3.393   4.611   3.944  0.00  0.00    +0.142 HD
ENDBRANCH  27  32
ENDBRANCH  23  25
ENDBRANCH  22  23
ENDBRANCH  20  22
ENDBRANCH   2  20
TORSDOF 9
