REMARK  Name = ZINC38995114
REMARK  8 active torsions:
REMARK  status: ('A' for Active; 'I' for Inactive)
REMARK    1  A    between atoms: C_1  and  C_2
REMARK    2  A    between atoms: C_5  and  N_8
REMARK    3  A    between atoms: C_9  and  C_11
REMARK    4  A    between atoms: C_11  and  S_12
REMARK    5  A    between atoms: S_12  and  C_13
REMARK    6  A    between atoms: C_17  and  C_21
REMARK    7  A    between atoms: N_19  and  N_20
REMARK    8  A    between atoms: C_24  and  C_27
REMARK                            x       y       z     vdW  Elec       q    Type
REMARK                         _______ _______ _______ _____ _____    ______ ____
ROOT
ATOM      1  C   UNL     1       0.597  -8.760   2.631  0.00  0.00    +0.214 C 
ATOM      2  N   UNL     1       1.745  -9.101   1.749  0.00  0.00    -0.228 NA
ATOM      3  N   UNL     1       1.416 -10.425   1.214  0.00  0.00    -0.234 NA
ATOM      4  C   UNL     1      -0.052 -10.566   1.293  0.00  0.00    +0.185 C 
ATOM      5  N   UNL     1      -0.568  -9.311   1.889  0.00  0.00    -0.197 NA
ATOM      6  H   UNL     1       1.843  -8.425   1.006  0.00  0.00    +0.143 HD
ATOM      7  H   UNL     1       1.739 -10.521   0.263  0.00  0.00    +0.143 HD
ENDROOT
BRANCH   4   8
ATOM      8  C   UNL     1      -0.635 -10.764  -0.108  0.00  0.00    +0.187 C 
ATOM      9  C   UNL     1      -0.141 -12.065  -0.716  0.00  0.00    +0.034 C 
ATOM     10  C   UNL     1       0.535 -11.672  -1.813  0.00  0.00    +0.091 C 
ATOM     11  N   UNL     1       0.503 -10.319  -1.930  0.00  0.00    -0.154 NA
ATOM     12  N   UNL     1      -0.122  -9.741  -1.034  0.00  0.00    -0.176 NA
BRANCH  10  13
ATOM     13  C   UNL     1       1.217 -12.588  -2.760  0.00  0.00    +0.002 A 
ATOM     14  C   UNL     1       1.183 -13.965  -2.547  0.00  0.00    +0.013 A 
ATOM     15  C   UNL     1       1.819 -14.813  -3.430  0.00  0.00    +0.039 A 
ATOM     16  C   UNL     1       2.491 -14.298  -4.527  0.00  0.00    +0.123 A 
ATOM     17  C   UNL     1       2.528 -12.930  -4.742  0.00  0.00    +0.039 A 
ATOM     18  C   UNL     1       1.890 -12.075  -3.867  0.00  0.00    +0.013 A 
ATOM     19  F   UNL     1       3.112 -15.132  -5.389  0.00  0.00    -0.205 F 
ENDBRANCH  10  13
ENDBRANCH   4   8
BRANCH   5  20
ATOM     20  N   UNL     1      -1.680  -9.575   2.788  0.00  0.00    -0.264 NA
ATOM     21  H   UNL     1      -1.977  -8.730   3.254  0.00  0.00    +0.137 HD
ATOM     22  H   UNL     1      -2.448 -10.006   2.296  0.00  0.00    +0.137 HD
ENDBRANCH   5  20
BRANCH   1  23
ATOM     23  S   UNL     1       0.446  -6.963   2.823  0.00  0.00    -0.115 S 
BRANCH  23  24
ATOM     24  C   UNL     1       0.309  -6.349   1.121  0.00  0.00    +0.168 C 
BRANCH  24  26
ATOM     25  N   UNL     1       0.059  -4.170  -0.021  0.00  0.00    -0.285 N 
ATOM     26  C   UNL     1       0.175  -4.848   1.138  0.00  0.00    +0.227 C 
ATOM     27  O   UNL     1       0.173  -4.251   2.193  0.00  0.00    -0.275 OA
ATOM     28  H   UNL     1      -0.017  -4.651  -0.860  0.00  0.00    +0.155 HD
BRANCH  25  33
ATOM     29  C   UNL     1       0.008   1.503   0.007  0.00  0.00    +0.044 C 
ATOM     30  C   UNL     1       0.022  -0.004  -0.001  0.00  0.00    -0.050 A 
ATOM     31  C   UNL     1       0.777  -0.692   0.931  0.00  0.00    +0.005 A 
ATOM     32  C   UNL     1       0.791  -2.073   0.927  0.00  0.00    +0.023 A 
ATOM     33  C   UNL     1       0.046  -2.771  -0.014  0.00  0.00    +0.033 A 
ATOM     34  C   UNL     1      -0.712  -2.077  -0.948  0.00  0.00    +0.023 A 
ATOM     35  C   UNL     1      -0.726  -0.696  -0.936  0.00  0.00    +0.005 A 
ENDBRANCH  25  33
ENDBRANCH  24  26
ENDBRANCH  23  24
ENDBRANCH   1  23
TORSDOF 7
