REMARK  Name = ZINC00706452
REMARK  8 active torsions:
REMARK  status: ('A' for Active; 'I' for Inactive)
REMARK    1  A    between atoms: C_1  and  C_2
REMARK    2  A    between atoms: C_3  and  C_19
REMARK    3  A    between atoms: C_4  and  C_10
REMARK    4  A    between atoms: C_13  and  O_18
REMARK    5  A    between atoms: C_14  and  O_16
REMARK    6  A    between atoms: O_16  and  C_17
REMARK    7  A    between atoms: C_19  and  O_21
REMARK    8  A    between atoms: O_21  and  C_22
REMARK                            x       y       z     vdW  Elec       q    Type
REMARK                         _______ _______ _______ _____ _____    ______ ____
ROOT
ATOM      1  C   UNL     1      -2.374   8.482  -2.344  0.00  0.00    +0.061 C 
ATOM      2  C   UNL     1      -1.265   7.911  -1.498  0.00  0.00    +0.021 C 
ATOM      3  C   UNL     1      -1.109   6.571  -1.425  0.00  0.00    +0.078 C 
ATOM      4  C   UNL     1       0.018   6.039  -0.564  0.00  0.00    +0.144 C 
ATOM      5  N   UNL     1       0.857   7.033   0.127  0.00  0.00    -0.288 N 
ATOM      6  C   UNL     1       0.576   8.340  -0.045  0.00  0.00    +0.304 C 
ATOM      7  O   UNL     1       1.262   9.168   0.521  0.00  0.00    -0.252 OA
ATOM      8  N   UNL     1      -0.434   8.755  -0.819  0.00  0.00    -0.273 N 
ATOM      9  H   UNL     1       1.593   6.754   0.693  0.00  0.00    +0.151 HD
ATOM     10  H   UNL     1      -0.585   9.710  -0.902  0.00  0.00    +0.156 HD
ENDROOT
BRANCH   4  11
ATOM     11  C   UNL     1      -0.583   5.132   0.479  0.00  0.00    -0.019 A 
ATOM     12  C   UNL     1      -0.537   3.761   0.311  0.00  0.00    +0.009 A 
ATOM     13  C   UNL     1      -1.086   2.925   1.265  0.00  0.00    +0.049 A 
ATOM     14  C   UNL     1      -1.685   3.462   2.393  0.00  0.00    +0.158 A 
ATOM     15  C   UNL     1      -1.732   4.842   2.563  0.00  0.00    +0.162 A 
ATOM     16  C   UNL     1      -1.185   5.674   1.600  0.00  0.00    +0.055 A 
BRANCH  15  17
ATOM     17  O   UNL     1      -2.319   5.373   3.669  0.00  0.00    -0.491 OA
ATOM     18  C   UNL     1      -2.438   6.796   3.720  0.00  0.00    +0.277 C 
ENDBRANCH  15  17
BRANCH  14  19
ATOM     19  O   UNL     1      -2.227   2.641   3.333  0.00  0.00    -0.503 OA
ATOM     20  H   UNL     1      -3.158   2.429   3.181  0.00  0.00    +0.292 HD
ENDBRANCH  14  19
ENDBRANCH   4  11
BRANCH   3  21
ATOM     21  C   UNL     1      -1.968   5.695  -2.129  0.00  0.00    +0.339 C 
ATOM     22  O   UNL     1      -2.929   6.138  -2.729  0.00  0.00    -0.245 OA
BRANCH  21  23
ATOM     23  O   UNL     1      -1.721   4.369  -2.135  0.00  0.00    -0.458 OA
BRANCH  23  24
ATOM     24  C   UNL     1      -2.562   3.556  -2.956  0.00  0.00    +0.177 C 
ATOM     25  C   UNL     1      -3.828   3.185  -2.181  0.00  0.00    +0.044 C 
ATOM     26  C   UNL     1      -4.728   2.315  -3.061  0.00  0.00    +0.004 C 
ATOM     27  C   UNL     1      -3.979   1.040  -3.454  0.00  0.00    +0.000 C 
ATOM     28  C   UNL     1      -2.713   1.411  -4.229  0.00  0.00    +0.004 C 
ATOM     29  C   UNL     1      -1.813   2.281  -3.349  0.00  0.00    +0.044 C 
ENDBRANCH  23  24
ENDBRANCH  21  23
ENDBRANCH   3  21
TORSDOF 6
