REMARK  Name = ZINC05186505
REMARK  5 active torsions:
REMARK  status: ('A' for Active; 'I' for Inactive)
REMARK    1  A    between atoms: C_1  and  C_2
REMARK    2  A    between atoms: C_5  and  C_7
REMARK    3  A    between atoms: N_14  and  C_17
REMARK    4  A    between atoms: C_19  and  C_24
REMARK    5  A    between atoms: C_21  and  C_23
REMARK                            x       y       z     vdW  Elec       q    Type
REMARK                         _______ _______ _______ _____ _____    ______ ____
ROOT
ATOM      1  C   UNL     1      -7.003   2.427   0.038  0.00  0.00    +0.064 C 
ATOM      2  C   UNL     1      -6.249   2.524   1.202  0.00  0.00    +0.103 C 
ATOM      3  C   UNL     1      -6.880   2.787   2.507  0.00  0.00    +0.257 C 
ATOM      4  O   UNL     1      -8.085   2.927   2.601  0.00  0.00    -0.270 OA
ATOM      5  N   UNL     1      -6.087   2.868   3.595  0.00  0.00    -0.235 N 
ATOM      6  C   UNL     1      -4.758   2.715   3.506  0.00  0.00    +0.320 C 
ATOM      7  O   UNL     1      -4.099   2.800   4.523  0.00  0.00    -0.251 OA
ATOM      8  N   UNL     1      -4.118   2.475   2.353  0.00  0.00    -0.190 N 
ATOM      9  C   UNL     1      -4.784   2.374   1.184  0.00  0.00    +0.264 C 
ATOM     10  O   UNL     1      -4.191   2.160   0.143  0.00  0.00    -0.269 OA
ATOM     11  H   UNL     1      -6.487   3.041   4.462  0.00  0.00    +0.159 HD
ENDROOT
BRANCH   8  12
ATOM     12  C   UNL     1      -2.724   2.331   2.361  0.00  0.00    +0.046 A 
ATOM     13  C   UNL     1      -1.909   3.435   2.152  0.00  0.00    +0.027 A 
ATOM     14  C   UNL     1      -0.535   3.290   2.160  0.00  0.00    -0.048 A 
ATOM     15  C   UNL     1       0.028   2.046   2.377  0.00  0.00    +0.006 A 
ATOM     16  C   UNL     1      -0.781   0.944   2.585  0.00  0.00    -0.048 A 
ATOM     17  C   UNL     1      -2.155   1.082   2.572  0.00  0.00    +0.027 A 
ATOM     18  C   UNL     1      -0.162  -0.410   2.819  0.00  0.00    +0.044 C 
ATOM     19  C   UNL     1       0.350   4.488   1.933  0.00  0.00    +0.044 C 
ENDBRANCH   8  12
BRANCH   1  24
ATOM     20  C   UNL     1     -11.239   4.729   1.154  0.00  0.00    +0.086 C 
ATOM     21  C   UNL     1     -10.256   3.767   0.539  0.00  0.00    +0.103 A 
ATOM     22  C   UNL     1     -10.564   2.783  -0.339  0.00  0.00    +0.045 A 
ATOM     23  C   UNL     1      -9.371   2.129  -0.666  0.00  0.00    +0.049 A 
ATOM     24  C   UNL     1      -8.367   2.758   0.056  0.00  0.00    +0.129 A 
ATOM     25  O   UNL     1      -8.938   3.750   0.773  0.00  0.00    -0.461 OA
ENDBRANCH   1  24
TORSDOF 2
