REMARK  Name = ZINC01434748
REMARK  6 active torsions:
REMARK  status: ('A' for Active; 'I' for Inactive)
REMARK    1  A    between atoms: C_1  and  C_2
REMARK    2  A    between atoms: C_2  and  O_3
REMARK    3  A    between atoms: O_3  and  C_4
REMARK    4  A    between atoms: C_9  and  C_10
REMARK    5  A    between atoms: C_15  and  C_20
REMARK    6  A    between atoms: C_23  and  C_26
REMARK                            x       y       z     vdW  Elec       q    Type
REMARK                         _______ _______ _______ _____ _____    ______ ____
ROOT
ATOM      1  C   UNL     1      -3.309   3.629  -1.272  0.00  0.00    +0.139 C 
ATOM      2  C   UNL     1      -3.764   2.202  -1.464  0.00  0.00    +0.037 C 
ATOM      3  C   UNL     1      -3.307   1.131  -0.793  0.00  0.00    +0.017 C 
ATOM      4  C   UNL     1      -3.835  -0.258  -1.109  0.00  0.00    +0.059 C 
ATOM      5  C   UNL     1      -5.301  -0.172  -1.530  0.00  0.00    +0.032 C 
ATOM      6  C   UNL     1      -5.379   0.720  -2.774  0.00  0.00    +0.088 C 
ATOM      7  C   UNL     1      -4.768   2.049  -2.450  0.00  0.00    +0.163 C 
ATOM      8  O   UNL     1      -5.148   3.032  -3.055  0.00  0.00    -0.292 OA
ATOM      9  N   UNL     1      -2.362   1.175   0.180  0.00  0.00    -0.316 N 
ATOM     10  C   UNL     1      -1.165   1.873   0.091  0.00  0.00    +0.052 A 
ATOM     11  C   UNL     1       0.065   1.238   0.114  0.00  0.00    +0.025 A 
ATOM     12  C   UNL     1       1.222   1.998   0.104  0.00  0.00    +0.002 A 
ATOM     13  C   UNL     1       1.151   3.379   0.076  0.00  0.00    +0.002 A 
ATOM     14  C   UNL     1      -0.078   4.016   0.041  0.00  0.00    +0.025 A 
ATOM     15  C   UNL     1      -1.236   3.257   0.035  0.00  0.00    +0.049 A 
ATOM     16  N   UNL     1      -2.494   3.847  -0.085  0.00  0.00    -0.331 N 
ATOM     17  H   UNL     1      -2.535   0.681   0.997  0.00  0.00    +0.152 HD
ATOM     18  H   UNL     1      -2.825   4.414   0.630  0.00  0.00    +0.147 HD
ENDROOT
BRANCH   5  19
ATOM     19  C   UNL     1      -5.821  -1.550  -1.854  0.00  0.00    -0.043 A 
ATOM     20  C   UNL     1      -5.236  -2.288  -2.865  0.00  0.00    +0.004 A 
ATOM     21  C   UNL     1      -5.709  -3.553  -3.160  0.00  0.00    +0.003 A 
ATOM     22  C   UNL     1      -6.774  -4.076  -2.449  0.00  0.00    -0.050 A 
ATOM     23  C   UNL     1      -7.362  -3.335  -1.441  0.00  0.00    +0.003 A 
ATOM     24  C   UNL     1      -6.885  -2.072  -1.143  0.00  0.00    +0.004 A 
ATOM     25  C   UNL     1      -7.292  -5.453  -2.772  0.00  0.00    +0.044 C 
ENDBRANCH   5  19
BRANCH   1  31
ATOM     26  C   UNL     1      -2.280   5.388  -2.733  0.00  0.00    +0.126 A 
ATOM     27  C   UNL     1      -1.548   5.767  -3.849  0.00  0.00    +0.046 A 
ATOM     28  C   UNL     1      -1.055   4.805  -4.709  0.00  0.00    +0.004 A 
ATOM     29  C   UNL     1      -1.290   3.466  -4.458  0.00  0.00    +0.001 A 
ATOM     30  C   UNL     1      -2.015   3.086  -3.344  0.00  0.00    +0.009 A 
ATOM     31  C   UNL     1      -2.515   4.044  -2.483  0.00  0.00    +0.019 A 
BRANCH  26  32
ATOM     32  O   UNL     1      -2.767   6.333  -1.885  0.00  0.00    -0.492 OA
BRANCH  32  34
ATOM     33  C   UNL     1      -3.110   8.607  -1.144  0.00  0.00    +0.048 C 
ATOM     34  C   UNL     1      -2.486   7.697  -2.204  0.00  0.00    +0.225 C 
ENDBRANCH  32  34
ENDBRANCH  26  32
ENDBRANCH   1  31
TORSDOF 4
