REMARK  Name = ZINC25163308
REMARK  8 active torsions:
REMARK  status: ('A' for Active; 'I' for Inactive)
REMARK    1  A    between atoms: C_6  and  N_7
REMARK    2  A    between atoms: C_8  and  N_31
REMARK    3  A    between atoms: C_9  and  C_29
REMARK    4  A    between atoms: C_10  and  C_12
REMARK    5  A    between atoms: C_12  and  C_13
REMARK    6  A    between atoms: C_13  and  C_14
REMARK    7  A    between atoms: C_14  and  N_15
REMARK    8  A    between atoms: C_16  and  C_18
REMARK                            x       y       z     vdW  Elec       q    Type
REMARK                         _______ _______ _______ _____ _____    ______ ____
ROOT
ATOM      1  N   UNL     1      -0.716   3.522   0.028  0.00  0.00    -0.217 N 
ATOM      2  C   UNL     1      -1.148   2.241   0.019  0.00  0.00    +0.138 A 
ATOM      3  C   UNL     1      -0.017   1.428   0.010  0.00  0.00    +0.114 A 
ATOM      4  C   UNL     1       1.108   2.284   0.004  0.00  0.00    +0.083 A 
ATOM      5  N   UNL     1       0.683   3.517   0.014  0.00  0.00    -0.168 NA
ENDROOT
BRANCH   1  11
ATOM      6  C   UNL     1      -2.741   4.660  -0.640  0.00  0.00    +0.030 A 
ATOM      7  C   UNL     1      -3.546   5.782  -0.621  0.00  0.00    +0.040 A 
ATOM      8  C   UNL     1      -3.142   6.913   0.068  0.00  0.00    +0.124 A 
ATOM      9  C   UNL     1      -1.933   6.919   0.745  0.00  0.00    +0.040 A 
ATOM     10  C   UNL     1      -1.129   5.797   0.733  0.00  0.00    +0.030 A 
ATOM     11  C   UNL     1      -1.532   4.662   0.042  0.00  0.00    +0.068 A 
ATOM     12  F   UNL     1      -3.928   8.012   0.081  0.00  0.00    -0.205 F 
ENDBRANCH   1  11
BRANCH   2  13
ATOM     13  N   UNL     1      -2.463   1.818   0.022  0.00  0.00    -0.342 N 
ATOM     14  H   UNL     1      -2.695   0.742   0.014  0.00  0.00    +0.144 HD
ATOM     15  H   UNL     1      -3.278   2.556   0.032  0.00  0.00    +0.144 HD
ENDBRANCH   2  13
BRANCH   3  16
ATOM     16  C   UNL     1       0.002  -0.004   0.002  0.00  0.00    +0.104 C 
ATOM     17  N   UNL     1       0.018  -1.140  -0.004  0.00  0.00    -0.191 NA
ENDBRANCH   3  16
BRANCH   4  18
ATOM     18  C   UNL     1       2.550   1.847  -0.012  0.00  0.00    +0.060 C 
BRANCH  18  19
ATOM     19  C   UNL     1       3.025   1.707  -1.460  0.00  0.00    +0.025 C 
BRANCH  19  20
ATOM     20  C   UNL     1       4.489   1.264  -1.477  0.00  0.00    +0.104 C 
BRANCH  20  21
ATOM     21  N   UNL     1       4.943   1.130  -2.863  0.00  0.00    -0.312 N 
ATOM     22  C   UNL     1       6.209   0.747  -3.123  0.00  0.00    +0.254 C 
ATOM     23  O   UNL     1       6.972   0.514  -2.210  0.00  0.00    -0.272 OA
ATOM     24  H   UNL     1       4.251   1.341  -3.691  0.00  0.00    +0.149 HD
BRANCH  22  25
ATOM     25  C   UNL     1       6.676   0.609  -4.550  0.00  0.00    +0.263 C 
ATOM     26  C   UNL     1       6.007  -0.609  -5.230  0.00  0.00    +0.093 C 
ATOM     27  C   UNL     1       7.126  -1.130  -6.111  0.00  0.00    -0.000 A 
ATOM     28  C   UNL     1       7.134  -2.002  -7.177  0.00  0.00    +0.027 A 
ATOM     29  C   UNL     1       8.323  -2.293  -7.824  0.00  0.00    +0.041 A 
ATOM     30  C   UNL     1       9.500  -1.704  -7.394  0.00  0.00    +0.023 A 
ATOM     31  C   UNL     1       9.494  -0.834  -6.325  0.00  0.00    +0.047 A 
ATOM     32  C   UNL     1       8.302  -0.540  -5.666  0.00  0.00    +0.125 A 
ATOM     33  O   UNL     1       8.073   0.273  -4.598  0.00  0.00    -0.479 OA
ATOM     34 CL   UNL     1       8.338  -3.391  -9.168  0.00  0.00    -0.084 Cl
ENDBRANCH  22  25
ENDBRANCH  20  21
ENDBRANCH  19  20
ENDBRANCH  18  19
ENDBRANCH   4  18
TORSDOF 8
