REMARK  Name = ZINC01262078
REMARK  6 active torsions:
REMARK  status: ('A' for Active; 'I' for Inactive)
REMARK    1  A    between atoms: C_1  and  C_2
REMARK    2  A    between atoms: N_8  and  C_9
REMARK    3  A    between atoms: C_9  and  C_10
REMARK    4  A    between atoms: C_16  and  C_24
REMARK    5  A    between atoms: C_18  and  C_22
REMARK    6  A    between atoms: C_19  and  N_21
REMARK                            x       y       z     vdW  Elec       q    Type
REMARK                         _______ _______ _______ _____ _____    ______ ____
ROOT
ATOM      1  C   UNL     1       1.119   3.599   0.011  0.00  0.00    +0.064 C 
ATOM      2  C   UNL     1       1.146   2.093   0.002  0.00  0.00    +0.023 A 
ATOM      3  C   UNL     1      -0.017   1.406   0.010  0.00  0.00    +0.068 A 
ATOM      4  C   UNL     1       0.002  -0.004   0.002  0.00  0.00    +0.141 A 
ATOM      5  C   UNL     1       1.217  -0.655  -0.013  0.00  0.00    +0.072 A 
ATOM      6  C   UNL     1       2.398   0.099  -0.020  0.00  0.00    +0.259 A 
ATOM      7  O   UNL     1       3.481  -0.465  -0.033  0.00  0.00    -0.267 OA
ATOM      8  N   UNL     1       2.339   1.443  -0.013  0.00  0.00    -0.310 N 
ATOM      9  C   UNL     1       1.284  -2.158  -0.024  0.00  0.00    +0.104 C 
ATOM     10  C   UNL     1      -0.042  -2.738   0.382  0.00  0.00    +0.098 C 
ATOM     11  C   UNL     1      -1.169  -1.987   0.376  0.00  0.00    +0.199 C 
ATOM     12  O   UNL     1      -1.159  -0.693   0.009  0.00  0.00    -0.441 OA
ENDROOT
BRANCH   9  13
ATOM     13  C   UNL     1       1.634  -2.633  -1.410  0.00  0.00    -0.017 A 
ATOM     14  C   UNL     1       0.806  -2.325  -2.474  0.00  0.00    +0.055 A 
ATOM     15  C   UNL     1       1.126  -2.760  -3.750  0.00  0.00    +0.167 A 
ATOM     16  C   UNL     1       2.283  -3.507  -3.958  0.00  0.00    +0.167 A 
ATOM     17  C   UNL     1       3.108  -3.813  -2.888  0.00  0.00    +0.065 A 
ATOM     18  C   UNL     1       2.786  -3.370  -1.617  0.00  0.00    +0.026 A 
ATOM     19 BR   UNL     1       3.918  -3.781  -0.159  0.00  0.00    -0.050 Br
ATOM     20  O   UNL     1       2.374  -3.811  -5.286  0.00  0.00    -0.453 OA
ATOM     21  C   UNL     1       1.055  -3.592  -5.821  0.00  0.00    +0.466 C 
ATOM     22  O   UNL     1       0.492  -2.595  -4.948  0.00  0.00    -0.453 OA
ENDBRANCH   9  13
BRANCH  11  23
ATOM     23  N   UNL     1      -2.355  -2.562   0.755  0.00  0.00    -0.328 N 
ATOM     24  H   UNL     1      -2.379  -3.495   1.022  0.00  0.00    +0.145 HD
ATOM     25  H   UNL     1      -3.171  -2.037   0.756  0.00  0.00    +0.145 HD
ENDBRANCH  11  23
BRANCH  10  26
ATOM     26  C   UNL     1      -0.116  -4.111   0.782  0.00  0.00    +0.101 C 
ATOM     27  N   UNL     1      -0.174  -5.200   1.100  0.00  0.00    -0.191 NA
ENDBRANCH  10  26
BRANCH   8  28
ATOM     28  C   UNL     1       3.582   2.219  -0.021  0.00  0.00    +0.156 C 
BRANCH  28  29
ATOM     29  C   UNL     1       4.000   2.497  -1.467  0.00  0.00    +0.138 C 
ATOM     30  C   UNL     1       5.332   3.287  -1.499  0.00  0.00    +0.035 C 
ATOM     31  C   UNL     1       5.873   2.894  -2.902  0.00  0.00    +0.031 C 
ATOM     32  C   UNL     1       5.377   1.440  -3.051  0.00  0.00    +0.160 C 
ATOM     33  O   UNL     1       4.276   1.264  -2.151  0.00  0.00    -0.375 OA
ENDBRANCH  28  29
ENDBRANCH   8  28
TORSDOF 5
