REMARK  Name = ZINC01199999
REMARK  4 active torsions:
REMARK  status: ('A' for Active; 'I' for Inactive)
REMARK    1  A    between atoms: C_4  and  N_24
REMARK    2  A    between atoms: C_5  and  C_7
REMARK    3  A    between atoms: N_9  and  C_10
REMARK    4  A    between atoms: C_11  and  C_21
REMARK                            x       y       z     vdW  Elec       q    Type
REMARK                         _______ _______ _______ _____ _____    ______ ____
ROOT
ATOM      1  C   UNL     1      -2.428   1.810   3.235  0.00  0.00    +0.085 A 
ATOM      2  C   UNL     1      -1.683   2.889   2.806  0.00  0.00    +0.068 A 
ATOM      3  C   UNL     1      -0.773   2.700   1.670  0.00  0.00    -0.023 A 
ATOM      4  C   UNL     1      -0.836   1.477   1.119  0.00  0.00    -0.004 A 
ATOM      5  S   UNL     1      -1.970   0.559   2.130  0.00  0.00    -0.077 S 
ATOM      6  C   UNL     1      -0.128   0.957  -0.100  0.00  0.00    +0.043 C 
ATOM      7  C   UNL     1      -0.918   1.459  -1.321  0.00  0.00    +0.005 C 
ATOM      8  C   UNL     1      -1.065   2.982  -1.206  0.00  0.00    +0.000 C 
ATOM      9  C   UNL     1       0.347   3.526  -1.240  0.00  0.00    +0.000 C 
ATOM     10  C   UNL     1       1.057   3.491   0.103  0.00  0.00    +0.005 C 
ATOM     11  C   UNL     1       0.138   3.859   1.261  0.00  0.00    +0.037 C 
ENDROOT
BRANCH   2  12
ATOM     12  C   UNL     1      -1.792   4.190   3.474  0.00  0.00    +0.244 C 
ATOM     13  O   UNL     1      -2.608   5.006   3.087  0.00  0.00    -0.270 OA
ATOM     14  N   UNL     1      -0.988   4.482   4.515  0.00  0.00    -0.325 N 
ATOM     15  H   UNL     1      -0.338   3.832   4.823  0.00  0.00    +0.145 HD
ATOM     16  H   UNL     1      -1.060   5.343   4.957  0.00  0.00    +0.145 HD
ENDBRANCH   2  12
BRANCH   1  19
ATOM     17  C   UNL     1      -3.970   0.591   4.553  0.00  0.00    +0.251 C 
ATOM     18  O   UNL     1      -3.763  -0.393   3.869  0.00  0.00    -0.270 OA
ATOM     19  N   UNL     1      -3.326   1.744   4.288  0.00  0.00    -0.275 N 
ATOM     20  H   UNL     1      -3.491   2.529   4.834  0.00  0.00    +0.156 HD
BRANCH  17  25
ATOM     21  C   UNL     1      -6.887   1.346   6.795  0.00  0.00    +0.001 A 
ATOM     22  C   UNL     1      -6.722   0.391   7.782  0.00  0.00    +0.002 A 
ATOM     23  C   UNL     1      -5.665  -0.500   7.722  0.00  0.00    +0.033 A 
ATOM     24  C   UNL     1      -4.767  -0.441   6.676  0.00  0.00    +0.138 A 
ATOM     25  C   UNL     1      -4.928   0.521   5.677  0.00  0.00    +0.067 A 
ATOM     26  C   UNL     1      -5.994   1.420   5.746  0.00  0.00    +0.015 A 
BRANCH  24  27
ATOM     27  N   UNL     1      -3.637  -1.394   6.614  0.00  0.00    +0.057 N 
ATOM     28  O   UNL     1      -3.564  -2.305   7.418  0.00  0.00    -0.126 OA
ATOM     29  O   UNL     1      -2.780  -1.267   5.758  0.00  0.00    -0.126 OA
ENDBRANCH  24  27
ENDBRANCH  17  25
ENDBRANCH   1  19
TORSDOF 4
