REMARK  Name = ZINC08845396
REMARK  12 active torsions:
REMARK  status: ('A' for Active; 'I' for Inactive)
REMARK    1  A    between atoms: C_1  and  C_2
REMARK    2  A    between atoms: C_4  and  O_39
REMARK    3  A    between atoms: C_5  and  C_9
REMARK    4  A    between atoms: N_17  and  C_29
REMARK    5  A    between atoms: C_18  and  C_20
REMARK    6  A    between atoms: C_23  and  C_26
REMARK    7  A    between atoms: C_26  and  C_27
REMARK    8  A    between atoms: C_26  and  C_28
REMARK    9  A    between atoms: C_29  and  C_30
REMARK   10  A    between atoms: C_30  and  C_31
REMARK   11  A    between atoms: C_34  and  O_37
REMARK   12  A    between atoms: O_37  and  C_38
REMARK                            x       y       z     vdW  Elec       q    Type
REMARK                         _______ _______ _______ _____ _____    ______ ____
ROOT
ATOM      1  C   UNL     1       0.128  -4.365  -0.052  0.00  0.00    +0.102 A 
ATOM      2  C   UNL     1       0.201  -5.150   1.103  0.00  0.00    +0.035 A 
ATOM      3  C   UNL     1       0.166  -6.462   0.670  0.00  0.00    +0.126 A 
ATOM      4  N   UNL     1       0.076  -6.410  -0.692  0.00  0.00    -0.272 N 
ATOM      5  H   UNL     1       0.034  -7.182  -1.277  0.00  0.00    +0.189 HD
ATOM      6  N   UNL     1       0.050  -5.185  -1.082  0.00  0.00    -0.173 NA
ATOM      7  C   UNL     1       0.239  -7.342   1.842  0.00  0.00    +0.265 C 
ATOM      8  O   UNL     1       0.231  -8.558   1.798  0.00  0.00    -0.268 OA
ATOM      9  N   UNL     1       0.317  -6.615   2.970  0.00  0.00    -0.285 N 
ATOM     10  C   UNL     1       0.299  -5.193   2.604  0.00  0.00    +0.141 C 
ENDROOT
BRANCH   1  15
ATOM     11  C   UNL     1       0.136   1.395  -0.269  0.00  0.00    +0.045 C 
ATOM     12  C   UNL     1       0.136  -0.112  -0.214  0.00  0.00    -0.029 A 
ATOM     13  C   UNL     1       0.944  -0.832  -1.074  0.00  0.00    +0.050 A 
ATOM     14  C   UNL     1       0.947  -2.216  -1.028  0.00  0.00    +0.126 A 
ATOM     15  C   UNL     1       0.131  -2.882  -0.108  0.00  0.00    +0.045 A 
ATOM     16  C   UNL     1      -0.679  -2.148   0.755  0.00  0.00    +0.034 A 
ATOM     17  C   UNL     1      -0.669  -0.768   0.702  0.00  0.00    +0.045 A 
ATOM     18 CL   UNL     1      -1.674   0.147   1.782  0.00  0.00    -0.083 Cl
BRANCH  14  19
ATOM     19  O   UNL     1       1.740  -2.925  -1.873  0.00  0.00    -0.506 OA
ATOM     20  H   UNL     1       2.622  -3.108  -1.524  0.00  0.00    +0.292 HD
ENDBRANCH  14  19
ENDBRANCH   1  15
BRANCH  10  21
ATOM     21  C   UNL     1       1.571  -4.524   3.059  0.00  0.00    -0.022 A 
ATOM     22  C   UNL     1       2.792  -5.128   2.824  0.00  0.00    +0.006 A 
ATOM     23  C   UNL     1       3.958  -4.515   3.241  0.00  0.00    +0.004 A 
ATOM     24  C   UNL     1       3.904  -3.297   3.894  0.00  0.00    -0.045 A 
ATOM     25  C   UNL     1       2.683  -2.693   4.128  0.00  0.00    +0.004 A 
ATOM     26  C   UNL     1       1.517  -3.304   3.707  0.00  0.00    +0.006 A 
BRANCH  24  27
ATOM     27  C   UNL     1       5.175  -2.629   4.350  0.00  0.00    +0.013 C 
ATOM     28  C   UNL     1       5.304  -1.262   3.674  0.00  0.00    +0.012 C 
ATOM     29  C   UNL     1       5.138  -2.445   5.868  0.00  0.00    +0.012 C 
ENDBRANCH  24  27
ENDBRANCH  10  21
BRANCH   9  30
ATOM     30  C   UNL     1       0.403  -7.149   4.332  0.00  0.00    +0.114 C 
BRANCH  30  31
ATOM     31  C   UNL     1       1.873  -7.342   4.712  0.00  0.00    +0.054 C 
BRANCH  31  32
ATOM     32  C   UNL     1       1.962  -7.891   6.112  0.00  0.00    -0.046 A 
ATOM     33  C   UNL     1       2.031  -7.027   7.189  0.00  0.00    +0.007 A 
ATOM     34  C   UNL     1       2.113  -7.529   8.474  0.00  0.00    +0.046 A 
ATOM     35  C   UNL     1       2.126  -8.900   8.682  0.00  0.00    +0.120 A 
ATOM     36  C   UNL     1       2.057  -9.765   7.600  0.00  0.00    +0.046 A 
ATOM     37  C   UNL     1       1.969  -9.259   6.317  0.00  0.00    +0.007 A 
BRANCH  35  38
ATOM     38  O   UNL     1       2.207  -9.396   9.945  0.00  0.00    -0.495 OA
ATOM     39  C   UNL     1       2.216 -10.818  10.085  0.00  0.00    +0.277 C 
ENDBRANCH  35  38
ENDBRANCH  31  32
ENDBRANCH  30  31
ENDBRANCH   9  30
TORSDOF 8
