REMARK  Name = ZINC57411643
REMARK  3 active torsions:
REMARK  status: ('A' for Active; 'I' for Inactive)
REMARK    1  A    between atoms: N_8  and  N_9
REMARK    2  A    between atoms: N_19  and  C_20
REMARK    3  A    between atoms: C_20  and  C_21
REMARK                            x       y       z     vdW  Elec       q    Type
REMARK                         _______ _______ _______ _____ _____    ______ ____
ROOT
ATOM      1  C   UNL     1      -0.017   1.376   0.010  0.00  0.00    +0.001 A 
ATOM      2  C   UNL     1       1.172   2.087   0.002  0.00  0.00    +0.002 A 
ATOM      3  C   UNL     1       2.385   1.428  -0.013  0.00  0.00    +0.024 A 
ATOM      4  C   UNL     1       2.424   0.037  -0.021  0.00  0.00    +0.046 A 
ATOM      5  C   UNL     1       1.219  -0.677  -0.013  0.00  0.00    +0.028 A 
ATOM      6  C   UNL     1       0.002  -0.004   0.002  0.00  0.00    +0.012 A 
ATOM      7  C   UNL     1       1.584  -2.112  -0.024  0.00  0.00    +0.153 C 
ATOM      8  N   UNL     1       0.772  -3.145  -0.022  0.00  0.00    -0.175 NA
ATOM      9  C   UNL     1       3.057  -2.131  -0.038  0.00  0.00    +0.272 C 
ATOM     10  O   UNL     1       3.761  -3.124  -0.050  0.00  0.00    -0.268 OA
ATOM     11  N   UNL     1       3.487  -0.858  -0.036  0.00  0.00    -0.261 N 
ENDROOT
BRANCH   8  12
ATOM     12  N   UNL     1       1.250  -4.343  -0.033  0.00  0.00    -0.219 N 
ATOM     13  C   UNL     1       0.390  -5.436  -0.031  0.00  0.00    +0.161 A 
ATOM     14  C   UNL     1       0.904  -6.733  -0.037  0.00  0.00    +0.050 A 
ATOM     15  C   UNL     1       0.005  -7.787  -0.035  0.00  0.00    +0.045 A 
ATOM     16  C   UNL     1      -1.351  -7.489  -0.027  0.00  0.00    +0.152 A 
ATOM     17  N   UNL     1      -1.750  -6.231  -0.022  0.00  0.00    -0.136 NA
ATOM     18  N   UNL     1      -0.922  -5.250  -0.018  0.00  0.00    -0.131 NA
ATOM     19 CL   UNL     1      -2.522  -8.771  -0.025  0.00  0.00    -0.060 Cl
ATOM     20  H   UNL     1       2.210  -4.481  -0.043  0.00  0.00    +0.176 HD
ENDBRANCH   8  12
BRANCH  11  21
ATOM     21  C   UNL     1       4.898  -0.463  -0.048  0.00  0.00    +0.149 C 
BRANCH  21  22
ATOM     22  C   UNL     1       5.395  -0.334   1.369  0.00  0.00    -0.030 A 
ATOM     23  C   UNL     1       5.296   0.876   2.030  0.00  0.00    +0.006 A 
ATOM     24  C   UNL     1       5.752   0.994   3.329  0.00  0.00    +0.020 A 
ATOM     25  C   UNL     1       6.309  -0.099   3.969  0.00  0.00    +0.041 A 
ATOM     26  C   UNL     1       6.408  -1.310   3.307  0.00  0.00    +0.020 A 
ATOM     27  C   UNL     1       5.946  -1.429   2.010  0.00  0.00    +0.006 A 
ATOM     28 CL   UNL     1       6.882   0.049   5.600  0.00  0.00    -0.084 Cl
ENDBRANCH  21  22
ENDBRANCH  11  21
TORSDOF 3
