REMARK  Name = ZINC02253811
REMARK  4 active torsions:
REMARK  status: ('A' for Active; 'I' for Inactive)
REMARK    1  A    between atoms: C_1  and  S_2
REMARK    2  A    between atoms: S_2  and  C_3
REMARK    3  A    between atoms: C_9  and  C_13
REMARK    4  A    between atoms: C_20  and  C_29
REMARK                            x       y       z     vdW  Elec       q    Type
REMARK                         _______ _______ _______ _____ _____    ______ ____
ROOT
ATOM      1  C   UNL     1      -1.702  -0.454   0.016  0.00  0.00    +0.174 C 
ATOM      2  N   UNL     1      -2.715   0.389   0.024  0.00  0.00    -0.192 NA
ATOM      3  C   UNL     1      -3.881  -0.282   0.033  0.00  0.00    +0.216 C 
ATOM      4  N   UNL     1      -5.130   0.135   0.040  0.00  0.00    -0.326 N 
ATOM      5  C   UNL     1      -6.209  -0.684   0.045  0.00  0.00    +0.058 C 
ATOM      6  C   UNL     1      -6.075  -2.027   0.052  0.00  0.00    +0.026 C 
ATOM      7  C   UNL     1      -4.677  -2.603   0.042  0.00  0.00    +0.159 C 
ATOM      8  N   UNL     1      -3.578  -1.629   0.032  0.00  0.00    -0.209 N 
ATOM      9  N   UNL     1      -2.186  -1.735   0.014  0.00  0.00    -0.239 N 
ATOM     10  C   UNL     1      -7.284  -2.915   0.075  0.00  0.00    +0.241 C 
ATOM     11  O   UNL     1      -8.375  -2.289  -0.603  0.00  0.00    -0.479 OA
ATOM     12  C   UNL     1      -8.643  -0.994  -0.299  0.00  0.00    +0.131 A 
ATOM     13  C   UNL     1      -7.588  -0.134   0.035  0.00  0.00    +0.040 A 
ATOM     14  C   UNL     1      -7.841   1.194   0.346  0.00  0.00    +0.013 A 
ATOM     15  C   UNL     1      -9.141   1.664   0.325  0.00  0.00    +0.001 A 
ATOM     16  C   UNL     1     -10.184   0.816  -0.004  0.00  0.00    +0.004 A 
ATOM     17  C   UNL     1      -9.939  -0.510  -0.315  0.00  0.00    +0.046 A 
ATOM     18  H   UNL     1      -5.287   1.092   0.041  0.00  0.00    +0.169 HD
ATOM     19  H   UNL     1      -1.665  -2.554   0.003  0.00  0.00    +0.172 HD
ENDROOT
BRANCH   7  20
ATOM     20  C   UNL     1      -4.537  -3.477  -1.178  0.00  0.00    -0.021 A 
ATOM     21  C   UNL     1      -4.284  -2.906  -2.411  0.00  0.00    +0.007 A 
ATOM     22  C   UNL     1      -4.155  -3.707  -3.530  0.00  0.00    +0.015 A 
ATOM     23  C   UNL     1      -4.279  -5.080  -3.416  0.00  0.00    +0.018 A 
ATOM     24  C   UNL     1      -4.532  -5.651  -2.182  0.00  0.00    +0.015 A 
ATOM     25  C   UNL     1      -4.655  -4.849  -1.062  0.00  0.00    +0.007 A 
ATOM     26 BR   UNL     1      -4.103  -6.176  -4.947  0.00  0.00    -0.050 Br
ENDBRANCH   7  20
BRANCH  10  27
ATOM     27  C   UNL     1      -7.678  -3.183   1.505  0.00  0.00    +0.034 A 
ATOM     28  C   UNL     1      -7.346  -4.229   2.300  0.00  0.00    +0.015 A 
ATOM     29  C   UNL     1      -7.829  -4.266   3.595  0.00  0.00    +0.008 A 
ATOM     30  C   UNL     1      -8.620  -3.255   4.031  0.00  0.00    +0.045 A 
ATOM     31  S   UNL     1      -8.698  -2.201   2.593  0.00  0.00    -0.098 S 
ENDBRANCH  10  27
BRANCH   1  33
ATOM     32  C   UNL     1      -0.022   1.810   0.012  0.00  0.00    +0.093 C 
ATOM     33  S   UNL     1       0.002  -0.004   0.002  0.00  0.00    -0.092 S 
ENDBRANCH   1  33
TORSDOF 3
