REMARK  Name = ZINC13403940
REMARK  8 active torsions:
REMARK  status: ('A' for Active; 'I' for Inactive)
REMARK    1  A    between atoms: C_3  and  C_10
REMARK    2  A    between atoms: C_5  and  N_7
REMARK    3  A    between atoms: C_17  and  N_37
REMARK    4  A    between atoms: C_18  and  C_35
REMARK    5  A    between atoms: C_19  and  C_21
REMARK    6  A    between atoms: C_24  and  O_27
REMARK    7  A    between atoms: O_27  and  C_28
REMARK    8  A    between atoms: C_28  and  C_30
REMARK                            x       y       z     vdW  Elec       q    Type
REMARK                         _______ _______ _______ _____ _____    ______ ____
ROOT
ATOM      1  C   UNL     1       3.714   2.208   0.012  0.00  0.00    +0.100 A 
ATOM      2  C   UNL     1       3.946   3.370  -0.730  0.00  0.00    +0.054 A 
ATOM      3  C   UNL     1       5.228   3.774  -0.492  0.00  0.00    +0.223 A 
ATOM      4  N   UNL     1       5.781   2.897   0.371  0.00  0.00    -0.246 N 
ATOM      5  H   UNL     1       6.686   2.934   0.720  0.00  0.00    +0.192 HD
ATOM      6  N   UNL     1       4.817   1.926   0.680  0.00  0.00    -0.171 NA
ATOM      7  O   UNL     1       5.767   4.877  -1.070  0.00  0.00    -0.423 OA
ATOM      8  C   UNL     1       5.102   5.428  -2.106  0.00  0.00    +0.200 C 
ATOM      9  C   UNL     1       3.828   5.119  -2.431  0.00  0.00    +0.098 C 
ATOM     10  C   UNL     1       3.015   4.115  -1.651  0.00  0.00    +0.102 C 
ENDROOT
BRANCH   1  13
ATOM     11  C   UNL     1       0.561   0.480  -1.088  0.00  0.00    +0.003 A 
ATOM     12  C   UNL     1       1.737   1.202  -1.127  0.00  0.00    +0.010 A 
ATOM     13  C   UNL     1       2.449   1.433   0.048  0.00  0.00    +0.005 A 
ATOM     14  C   UNL     1       1.969   0.933   1.257  0.00  0.00    +0.042 A 
ATOM     15  C   UNL     1       0.792   0.212   1.284  0.00  0.00    +0.127 A 
ATOM     16  C   UNL     1       0.090  -0.014   0.114  0.00  0.00    +0.033 A 
BRANCH  15  17
ATOM     17  N   UNL     1       0.282  -0.320   2.567  0.00  0.00    +0.056 N 
ATOM     18  O   UNL     1       0.895  -0.123   3.591  0.00  0.00    -0.126 OA
ATOM     19  O   UNL     1      -0.749  -0.951   2.593  0.00  0.00    -0.126 OA
ENDBRANCH  15  17
ENDBRANCH   1  13
BRANCH  10  20
ATOM     20  C   UNL     1       1.964   4.830  -0.842  0.00  0.00    -0.034 A 
ATOM     21  C   UNL     1       2.338   5.790   0.080  0.00  0.00    +0.008 A 
ATOM     22  C   UNL     1       1.377   6.447   0.824  0.00  0.00    +0.046 A 
ATOM     23  C   UNL     1       0.035   6.143   0.643  0.00  0.00    +0.132 A 
ATOM     24  C   UNL     1      -0.338   5.180  -0.283  0.00  0.00    +0.046 A 
ATOM     25  C   UNL     1       0.627   4.530  -1.028  0.00  0.00    +0.008 A 
BRANCH  23  26
ATOM     26  O   UNL     1      -0.913   6.788   1.374  0.00  0.00    -0.422 OA
BRANCH  26  27
ATOM     27  C   UNL     1      -1.255   8.039   1.004  0.00  0.00    +0.351 C 
ATOM     28  O   UNL     1      -0.659   8.590   0.098  0.00  0.00    -0.244 OA
BRANCH  27  29
ATOM     29  C   UNL     1      -2.345   8.733   1.692  0.00  0.00    +0.097 A 
ATOM     30  C   UNL     1      -2.853  10.005   1.466  0.00  0.00    +0.022 A 
ATOM     31  C   UNL     1      -3.890  10.387   2.281  0.00  0.00    +0.008 A 
ATOM     32  C   UNL     1      -4.338   9.523   3.226  0.00  0.00    +0.046 A 
ATOM     33  S   UNL     1      -3.371   8.163   3.033  0.00  0.00    -0.090 S 
ENDBRANCH  27  29
ENDBRANCH  26  27
ENDBRANCH  23  26
ENDBRANCH  10  20
BRANCH   8  34
ATOM     34  N   UNL     1       5.758   6.357  -2.874  0.00  0.00    -0.328 N 
ATOM     35  H   UNL     1       6.674   6.600  -2.665  0.00  0.00    +0.145 HD
ATOM     36  H   UNL     1       5.306   6.771  -3.626  0.00  0.00    +0.145 HD
ENDBRANCH   8  34
BRANCH   9  37
ATOM     37  C   UNL     1       3.226   5.767  -3.557  0.00  0.00    +0.101 C 
ATOM     38  N   UNL     1       2.749   6.282  -4.450  0.00  0.00    -0.191 NA
ENDBRANCH   9  37
TORSDOF 8
