REMARK  Name = ZINC01054846
REMARK  6 active torsions:
REMARK  status: ('A' for Active; 'I' for Inactive)
REMARK    1  A    between atoms: C_1  and  C_2
REMARK    2  A    between atoms: C_4  and  O_27
REMARK    3  A    between atoms: C_6  and  O_26
REMARK    4  A    between atoms: C_7  and  C_8
REMARK    5  A    between atoms: N_9  and  C_10
REMARK    6  A    between atoms: C_17  and  C_19
REMARK                            x       y       z     vdW  Elec       q    Type
REMARK                         _______ _______ _______ _____ _____    ______ ____
ROOT
ATOM      1  C   UNL     1       0.046   0.025   4.803  0.00  0.00    +0.066 A 
ATOM      2  C   UNL     1       0.887   1.132   4.979  0.00  0.00    +0.031 A 
ATOM      3  C   UNL     1       0.895   1.816   6.174  0.00  0.00    +0.050 A 
ATOM      4  C   UNL     1       0.069   1.412   7.213  0.00  0.00    +0.156 A 
ATOM      5  C   UNL     1      -0.779   0.303   7.048  0.00  0.00    +0.112 A 
ATOM      6  C   UNL     1      -0.791  -0.386   5.835  0.00  0.00    +0.059 A 
ATOM      7  N   UNL     1      -1.454   0.151   8.217  0.00  0.00    -0.209 NA
ATOM      8  C   UNL     1      -1.068   1.084   9.050  0.00  0.00    +0.228 A 
ATOM      9  O   UNL     1      -0.141   1.868   8.469  0.00  0.00    -0.435 OA
ENDROOT
BRANCH   8  10
ATOM     10  C   UNL     1      -1.576   1.252  10.428  0.00  0.00    +0.038 A 
ATOM     11  C   UNL     1      -2.538   0.375  10.932  0.00  0.00    +0.013 A 
ATOM     12  C   UNL     1      -3.008   0.537  12.219  0.00  0.00    +0.002 A 
ATOM     13  C   UNL     1      -2.529   1.567  13.009  0.00  0.00    +0.014 A 
ATOM     14  C   UNL     1      -1.576   2.441  12.516  0.00  0.00    +0.014 A 
ATOM     15  C   UNL     1      -1.093   2.285  11.232  0.00  0.00    +0.027 A 
ATOM     16  I   UNL     1      -0.859   3.996  13.722  0.00  0.00    -0.044 I 
ENDBRANCH   8  10
BRANCH   1  18
ATOM     17  C   UNL     1       0.025   0.013   2.488  0.00  0.00    +0.123 C 
ATOM     18  N   UNL     1       0.045  -0.649   3.612  0.00  0.00    -0.255 NA
BRANCH  17  25
ATOM     19  C   UNL     1      -0.018   1.503   0.010  0.00  0.00    +0.044 C 
ATOM     20  C   UNL     1       0.002  -0.004   0.002  0.00  0.00    -0.035 A 
ATOM     21  C   UNL     1       0.006  -0.686  -1.193  0.00  0.00    +0.049 A 
ATOM     22  C   UNL     1       0.025  -2.077  -1.206  0.00  0.00    +0.121 A 
ATOM     23  C   UNL     1       0.040  -2.788  -0.015  0.00  0.00    +0.091 A 
ATOM     24  C   UNL     1       0.037  -2.115   1.194  0.00  0.00    +0.129 A 
ATOM     25  C   UNL     1       0.023  -0.711   1.210  0.00  0.00    +0.038 A 
BRANCH  24  26
ATOM     26  O   UNL     1       0.052  -2.810   2.360  0.00  0.00    -0.506 OA
ATOM     27  H   UNL     1       0.939  -2.999   2.694  0.00  0.00    +0.292 HD
ENDBRANCH  24  26
BRANCH  22  28
ATOM     28  O   UNL     1       0.027  -2.742  -2.390  0.00  0.00    -0.507 OA
ATOM     29  H   UNL     1       0.911  -2.922  -2.738  0.00  0.00    +0.292 HD
ENDBRANCH  22  28
ENDBRANCH  17  25
ENDBRANCH   1  18
TORSDOF 5
