REMARK  Name = ZINC39125255
REMARK  20 active torsions:
REMARK  status: ('A' for Active; 'I' for Inactive)
REMARK    1  A    between atoms: C_1  and  C_2
REMARK    2  A    between atoms: C_2  and  C_3
REMARK    3  A    between atoms: C_3  and  N_4
REMARK    4  A    between atoms: C_5  and  N_37
REMARK    5  A    between atoms: C_6  and  N_15
REMARK    6  A    between atoms: N_9  and  C_12
REMARK    7  A    between atoms: C_12  and  C_13
REMARK    8  A    between atoms: C_13  and  C_14
REMARK    9  A    between atoms: C_16  and  C_18
REMARK   10  A    between atoms: C_18  and  C_20
REMARK   11  A    between atoms: C_18  and  C_22
REMARK   12  A    between atoms: C_20  and  C_21
REMARK   13  A    between atoms: C_25  and  N_28
REMARK   14  A    between atoms: N_28  and  C_29
REMARK   15  A    between atoms: C_29  and  C_30
REMARK   16  A    between atoms: C_30  and  O_32
REMARK   17  A    between atoms: O_32  and  C_33
REMARK   18  A    between atoms: C_33  and  C_34
REMARK   19  A    between atoms: C_33  and  C_35
REMARK   20  A    between atoms: C_33  and  C_36
REMARK                            x       y       z     vdW  Elec       q    Type
REMARK                         _______ _______ _______ _____ _____    ______ ____
ROOT
ATOM      1  N   UNL     1       2.561  -4.887   0.162  0.00  0.00    -0.278 N 
ATOM      2  C   UNL     1       2.774  -6.215   0.053  0.00  0.00    +0.225 C 
ATOM      3  O   UNL     1       2.046  -6.891  -0.644  0.00  0.00    -0.275 OA
ATOM      4  H   UNL     1       3.182  -4.336   0.663  0.00  0.00    +0.155 HD
ENDROOT
BRANCH   1   7
ATOM      5  N   UNL     1      -0.575  -3.036  -0.330  0.00  0.00    -0.280 N 
ATOM      6  C   UNL     1       0.513  -3.597   0.298  0.00  0.00    +0.127 A 
ATOM      7  C   UNL     1       1.434  -4.300  -0.452  0.00  0.00    +0.137 A 
ATOM      8  C   UNL     1       1.231  -4.421  -1.839  0.00  0.00    +0.280 A 
ATOM      9  O   UNL     1       2.029  -5.037  -2.525  0.00  0.00    -0.265 OA
ATOM     10  N   UNL     1       0.148  -3.852  -2.404  0.00  0.00    -0.259 N 
ATOM     11  C   UNL     1      -0.742  -3.176  -1.657  0.00  0.00    +0.333 A 
ATOM     12  O   UNL     1      -1.713  -2.676  -2.192  0.00  0.00    -0.246 OA
BRANCH   6  13
ATOM     13  N   UNL     1       0.681  -3.459   1.655  0.00  0.00    -0.343 N 
ATOM     14  H   UNL     1       0.030  -2.964   2.176  0.00  0.00    +0.144 HD
ATOM     15  H   UNL     1       1.450  -3.857   2.091  0.00  0.00    +0.144 HD
ENDBRANCH   6  13
BRANCH   5  16
ATOM     16  C   UNL     1      -1.561  -2.288   0.454  0.00  0.00    +0.128 C 
BRANCH  16  18
ATOM     17  C   UNL     1      -3.681  -2.460   1.766  0.00  0.00    +0.005 C 
ATOM     18  C   UNL     1      -2.651  -3.242   0.948  0.00  0.00    +0.018 C 
ENDBRANCH  16  18
ENDBRANCH   5  16
BRANCH  10  19
ATOM     19  C   UNL     1      -0.065  -3.977  -3.848  0.00  0.00    +0.130 C 
BRANCH  19  20
ATOM     20  C   UNL     1      -0.888  -5.234  -4.136  0.00  0.00    +0.018 C 
ATOM     21  C   UNL     1      -1.111  -5.364  -5.644  0.00  0.00    +0.005 C 
ENDBRANCH  19  20
ENDBRANCH  10  19
ENDBRANCH   1   7
BRANCH   2  22
ATOM     22  C   UNL     1       3.916  -6.858   0.796  0.00  0.00    +0.105 C 
BRANCH  22  23
ATOM     23  C   UNL     1       3.763  -8.357   0.752  0.00  0.00    -0.035 A 
ATOM     24  C   UNL     1       3.748  -9.014  -0.464  0.00  0.00    +0.006 A 
ATOM     25  C   UNL     1       3.608 -10.387  -0.508  0.00  0.00    +0.023 A 
ATOM     26  C   UNL     1       3.481 -11.108   0.672  0.00  0.00    +0.028 A 
ATOM     27  C   UNL     1       3.496 -10.445   1.893  0.00  0.00    +0.023 A 
ATOM     28  C   UNL     1       3.642  -9.073   1.929  0.00  0.00    +0.006 A 
BRANCH  26  29
ATOM     29  N   UNL     1       3.339 -12.497   0.632  0.00  0.00    -0.334 N 
ATOM     30  H   UNL     1       3.328 -12.959  -0.221  0.00  0.00    +0.147 HD
BRANCH  29  31
ATOM     31  C   UNL     1       3.205 -13.257   1.877  0.00  0.00    +0.222 C 
BRANCH  31  32
ATOM     32  C   UNL     1       3.066 -14.723   1.559  0.00  0.00    +0.325 C 
ATOM     33  O   UNL     1       3.078 -15.096   0.410  0.00  0.00    -0.249 OA
BRANCH  32  34
ATOM     34  O   UNL     1       2.930 -15.615   2.553  0.00  0.00    -0.458 OA
BRANCH  34  35
ATOM     35  C   UNL     1       2.804 -16.989   2.179  0.00  0.00    +0.105 C 
ATOM     36  C   UNL     1       4.050 -17.423   1.404  0.00  0.00    +0.055 C 
ATOM     37  C   UNL     1       2.659 -17.849   3.436  0.00  0.00    +0.055 C 
ATOM     38  C   UNL     1       1.567 -17.165   1.295  0.00  0.00    +0.055 C 
ENDBRANCH  34  35
ENDBRANCH  32  34
ENDBRANCH  31  32
ENDBRANCH  29  31
ENDBRANCH  26  29
ENDBRANCH  22  23
BRANCH  22  39
ATOM     39  C   UNL     1       5.240  -6.462   0.139  0.00  0.00    +0.014 C 
ATOM     40  C   UNL     1       5.467  -4.959   0.317  0.00  0.00    +0.005 C 
ENDBRANCH  22  39
ENDBRANCH   2  22
TORSDOF 14
