REMARK  Name = ZINC13560277
REMARK  10 active torsions:
REMARK  status: ('A' for Active; 'I' for Inactive)
REMARK    1  A    between atoms: C_1  and  C_2
REMARK    2  A    between atoms: C_7  and  C_39
REMARK    3  A    between atoms: C_8  and  C_9
REMARK    4  A    between atoms: C_14  and  C_17
REMARK    5  A    between atoms: C_14  and  N_79
REMARK    6  A    between atoms: C_20  and  N_23
REMARK    7  A    between atoms: N_23  and  C_24
REMARK    8  A    between atoms: N_23  and  C_33
REMARK    9  A    between atoms: C_24  and  C_25
REMARK   10  A    between atoms: C_30  and  C_31
REMARK                            x       y       z     vdW  Elec       q    Type
REMARK                         _______ _______ _______ _____ _____    ______ ____
ROOT
ATOM      1  C   UNL     1      -1.463  -3.065  -5.166  0.00  0.00    -0.076 C 
ATOM      2  C   UNL     1      -2.774  -3.796  -5.462  0.00  0.00    +0.004 C 
ATOM      3  C   UNL     1      -3.142  -3.598  -6.935  0.00  0.00    +0.070 C 
ATOM      4  C   UNL     1      -3.254  -2.100  -7.228  0.00  0.00    +0.004 C 
ATOM      5  C   UNL     1      -1.929  -1.417  -6.881  0.00  0.00    -0.076 C 
ATOM      6  N   UNL     1      -1.644  -1.624  -5.445  0.00  0.00    +0.383 N 
ATOM      7  H   UNL     1      -2.438  -1.276  -4.894  0.00  0.00    -0.081 HD
ENDROOT
BRANCH   6  13
ATOM      8  C   UNL     1       1.132   2.010  -2.591  0.00  0.00    +0.249 C 
ATOM      9  O   UNL     1       1.435   1.709  -1.453  0.00  0.00    -0.270 OA
ATOM     10  N   UNL     1       0.955   1.049  -3.519  0.00  0.00    -0.298 N 
ATOM     11  C   UNL     1       0.583   1.397  -4.897  0.00  0.00    +0.107 C 
ATOM     12  C   UNL     1      -0.671   0.615  -5.286  0.00  0.00    +0.007 C 
ATOM     13  C   UNL     1      -0.428  -0.879  -5.059  0.00  0.00    -0.066 C 
ATOM     14  C   UNL     1      -0.141  -1.131  -3.577  0.00  0.00    +0.007 C 
ATOM     15  C   UNL     1       1.124  -0.368  -3.169  0.00  0.00    +0.107 C 
ATOM     16  C   UNL     1       0.770  -1.334  -5.895  0.00  0.00    -0.010 C 
BRANCH   8  24
ATOM     17  C   UNL     1       3.409   3.563  -3.569  0.00  0.00    +0.044 C 
ATOM     18  C   UNL     1       2.042   4.183  -3.428  0.00  0.00    -0.035 A 
ATOM     19  C   UNL     1       1.828   5.510  -3.758  0.00  0.00    +0.025 A 
ATOM     20  C   UNL     1       0.561   6.047  -3.615  0.00  0.00    +0.134 A 
ATOM     21  N   UNL     1      -0.443   5.314  -3.170  0.00  0.00    -0.143 N 
ATOM     22  O   UNL     1      -1.723   5.907  -3.041  0.00  0.00    -0.164 OA
ATOM     23  C   UNL     1      -0.290   4.046  -2.848  0.00  0.00    +0.071 A 
ATOM     24  C   UNL     1       0.959   3.432  -2.958  0.00  0.00    +0.062 A 
ATOM     25  C   UNL     1      -1.471   3.253  -2.350  0.00  0.00    +0.068 C 
ENDBRANCH   8  24
ENDBRANCH   6  13
BRANCH   3  26
ATOM     26  N   UNL     1      -4.426  -4.248  -7.212  0.00  0.00    -0.323 N 
BRANCH  26  27
ATOM     27  C   UNL     1      -5.576  -3.841  -6.532  0.00  0.00    +0.030 A 
ATOM     28  C   UNL     1      -6.490  -2.999  -7.154  0.00  0.00    +0.023 A 
ATOM     29  C   UNL     1      -7.628  -2.602  -6.480  0.00  0.00    +0.002 A 
ATOM     30  C   UNL     1      -7.854  -3.033  -5.186  0.00  0.00    +0.000 A 
ATOM     31  C   UNL     1      -6.943  -3.866  -4.563  0.00  0.00    +0.002 A 
ATOM     32  C   UNL     1      -5.805  -4.271  -5.232  0.00  0.00    +0.023 A 
ENDBRANCH  26  27
BRANCH  26  33
ATOM     33  C   UNL     1      -4.503  -5.325  -8.202  0.00  0.00    +0.141 C 
BRANCH  33  34
ATOM     34  C   UNL     1      -4.224  -6.646  -7.530  0.00  0.00    -0.013 A 
ATOM     35  C   UNL     1      -2.959  -7.194  -7.582  0.00  0.00    +0.006 A 
ATOM     36  C   UNL     1      -2.702  -8.406  -6.967  0.00  0.00    +0.000 A 
ATOM     37  C   UNL     1      -3.710  -9.076  -6.295  0.00  0.00    +0.001 A 
ATOM     38  C   UNL     1      -4.979  -8.539  -6.235  0.00  0.00    +0.019 A 
ATOM     39  C   UNL     1      -5.244  -7.313  -6.850  0.00  0.00    +0.056 A 
BRANCH  39  40
ATOM     40  C   UNL     1      -6.558  -6.747  -6.787  0.00  0.00    +0.099 C 
ATOM     41  N   UNL     1      -7.600  -6.297  -6.737  0.00  0.00    -0.191 NA
ENDBRANCH  39  40
ENDBRANCH  33  34
ENDBRANCH  26  33
ENDBRANCH   3  26
TORSDOF 7
