REMARK  Name = ZINC09010379
REMARK  7 active torsions:
REMARK  status: ('A' for Active; 'I' for Inactive)
REMARK    1  A    between atoms: C_1  and  C_2
REMARK    2  A    between atoms: C_5  and  C_7
REMARK    3  A    between atoms: C_9  and  N_29
REMARK    4  A    between atoms: C_10  and  C_27
REMARK    5  A    between atoms: C_13  and  C_25
REMARK    6  A    between atoms: C_15  and  C_19
REMARK    7  A    between atoms: C_22  and  C_24
REMARK                            x       y       z     vdW  Elec       q    Type
REMARK                         _______ _______ _______ _____ _____    ______ ____
ROOT
ATOM      1  C   UNL     1       3.670  -0.156  -0.828  0.00  0.00    +0.027 C 
ATOM      2  C   UNL     1       4.687   0.736  -0.518  0.00  0.00    +0.025 A 
ATOM      3  C   UNL     1       4.549   2.154  -0.151  0.00  0.00    +0.069 A 
ATOM      4  C   UNL     1       5.820   2.657   0.017  0.00  0.00    +0.149 A 
ATOM      5  N   UNL     1       6.774   1.671  -0.246  0.00  0.00    -0.267 N 
ATOM      6  C   UNL     1       6.126   0.463  -0.481  0.00  0.00    +0.083 A 
ATOM      7  C   UNL     1       6.749  -0.759  -0.657  0.00  0.00    +0.110 C 
ATOM      8  S   UNL     1       8.507  -0.824  -0.475  0.00  0.00    -0.094 S 
ATOM      9  C   UNL     1       9.029   0.858  -0.919  0.00  0.00    +0.177 C 
ATOM     10  C   UNL     1       8.108   1.860  -0.275  0.00  0.00    +0.251 C 
ATOM     11  O   UNL     1       8.577   2.859   0.229  0.00  0.00    -0.271 OA
ENDROOT
BRANCH   1  16
ATOM     12  C   UNL     1      -1.782   0.764  -1.066  0.00  0.00    +0.051 C 
ATOM     13  C   UNL     1      -0.276   0.755  -1.120  0.00  0.00    -0.013 A 
ATOM     14  C   UNL     1       0.557   1.715  -1.603  0.00  0.00    +0.011 A 
ATOM     15  C   UNL     1       1.913   1.514  -1.555  0.00  0.00    +0.016 A 
ATOM     16  C   UNL     1       2.353   0.312  -1.003  0.00  0.00    +0.013 A 
ATOM     17  S   UNL     1       0.812  -0.480  -0.575  0.00  0.00    -0.094 S 
ENDBRANCH   1  16
BRANCH   9  18
ATOM     18  C   UNL     1      10.438   1.089  -0.437  0.00  0.00    +0.012 A 
ATOM     19  C   UNL     1      11.546   1.396  -1.155  0.00  0.00    +0.013 A 
ATOM     20  C   UNL     1      12.748   1.566  -0.493  0.00  0.00    +0.011 A 
ATOM     21  C   UNL     1      12.782   1.420   0.854  0.00  0.00    -0.013 A 
ATOM     22  S   UNL     1      11.079   1.038   1.228  0.00  0.00    -0.097 S 
ATOM     23  C   UNL     1      13.954   1.551   1.793  0.00  0.00    +0.051 C 
ENDBRANCH   9  18
BRANCH   3  24
ATOM     24  N   UNL     1       3.361   2.853  -0.001  0.00  0.00    -0.355 N 
ATOM     25  H   UNL     1       3.380   3.917   0.279  0.00  0.00    +0.142 HD
ATOM     26  H   UNL     1       2.399   2.344  -0.161  0.00  0.00    +0.142 HD
ENDBRANCH   3  24
BRANCH   7  27
ATOM     27  C   UNL     1       5.994  -1.935  -0.971  0.00  0.00    +0.108 C 
ATOM     28  N   UNL     1       5.396  -2.868  -1.221  0.00  0.00    -0.190 NA
ENDBRANCH   7  27
BRANCH   4  29
ATOM     29  C   UNL     1       6.121   4.002   0.407  0.00  0.00    +0.120 C 
ATOM     30  N   UNL     1       6.360   5.068   0.717  0.00  0.00    -0.189 NA
ENDBRANCH   4  29
TORSDOF 5
