REMARK  Name = ZINC32943384
REMARK  8 active torsions:
REMARK  status: ('A' for Active; 'I' for Inactive)
REMARK    1  A    between atoms: C_1  and  C_2
REMARK    2  A    between atoms: C_2  and  C_3
REMARK    3  A    between atoms: C_8  and  N_9
REMARK    4  A    between atoms: N_11  and  C_12
REMARK    5  A    between atoms: C_12  and  C_13
REMARK    6  A    between atoms: C_13  and  C_14
REMARK    7  A    between atoms: N_24  and  C_25
REMARK    8  A    between atoms: C_25  and  C_27
REMARK                            x       y       z     vdW  Elec       q    Type
REMARK                         _______ _______ _______ _____ _____    ______ ____
ROOT
ATOM      1  N   UNL     1      -1.368  -0.777  -2.443  0.00  0.00    -0.328 N 
ATOM      2  C   UNL     1      -2.131  -0.620  -3.565  0.00  0.00    +0.194 C 
ATOM      3  N   UNL     1      -1.587  -0.068  -4.688  0.00  0.00    -0.357 N 
ATOM      4  N   UNL     1      -3.398  -1.002  -3.562  0.00  0.00    -0.143 NA
ATOM      5  H   UNL     1      -2.129   0.043  -5.485  0.00  0.00    +0.162 HD
ATOM      6  H   UNL     1      -0.792  -0.056  -2.143  0.00  0.00    +0.169 HD
ENDROOT
BRANCH   1  12
ATOM      7  C   UNL     1      -0.748  -2.092  -0.515  0.00  0.00    -0.024 A 
ATOM      8  C   UNL     1      -0.803  -3.276   0.193  0.00  0.00    +0.005 A 
ATOM      9  C   UNL     1      -1.518  -4.349  -0.306  0.00  0.00    +0.000 A 
ATOM     10  C   UNL     1      -2.180  -4.240  -1.516  0.00  0.00    +0.002 A 
ATOM     11  C   UNL     1      -2.129  -3.059  -2.228  0.00  0.00    +0.026 A 
ATOM     12  C   UNL     1      -1.416  -1.977  -1.727  0.00  0.00    +0.045 A 
BRANCH   7  14
ATOM     13  C   UNL     1      -0.910   0.001   0.805  0.00  0.00    +0.009 C 
ATOM     14  C   UNL     1       0.031  -0.923   0.030  0.00  0.00    +0.034 C 
ENDBRANCH   7  14
ENDBRANCH   1  12
BRANCH   4  15
ATOM     15  C   UNL     1      -4.052  -1.146  -2.401  0.00  0.00    +0.276 C 
ATOM     16  O   UNL     1      -3.475  -0.943  -1.347  0.00  0.00    -0.268 OA
BRANCH  15  17
ATOM     17  C   UNL     1      -5.474  -1.552  -2.399  0.00  0.00    +0.109 A 
ATOM     18  C   UNL     1      -5.818  -2.906  -2.349  0.00  0.00    +0.138 A 
ATOM     19  C   UNL     1      -7.150  -3.277  -2.348  0.00  0.00    +0.039 A 
ATOM     20  C   UNL     1      -8.140  -2.313  -2.394  0.00  0.00    +0.006 A 
ATOM     21  C   UNL     1      -7.808  -0.971  -2.444  0.00  0.00    +0.039 A 
ATOM     22  C   UNL     1      -6.481  -0.583  -2.441  0.00  0.00    +0.138 A 
ATOM     23  F   UNL     1      -6.159   0.728  -2.483  0.00  0.00    -0.205 F 
ATOM     24  F   UNL     1      -4.852  -3.849  -2.304  0.00  0.00    -0.205 F 
ENDBRANCH  15  17
ENDBRANCH   4  15
BRANCH   3  25
ATOM     25  C   UNL     1      -0.184   0.355  -4.691  0.00  0.00    +0.120 C 
BRANCH  25  26
ATOM     26  C   UNL     1       0.171   0.935  -6.062  0.00  0.00    +0.058 C 
BRANCH  26  27
ATOM     27  C   UNL     1       1.613   1.370  -6.064  0.00  0.00    -0.021 A 
ATOM     28  C   UNL     1       2.075   2.605  -5.813  0.00  0.00    +0.087 A 
ATOM     29  N   UNL     1       3.440   2.621  -5.907  0.00  0.00    -0.360 N 
ATOM     30  H   UNL     1       3.999   3.401  -5.767  0.00  0.00    +0.165 HD
ATOM     31  C   UNL     1       3.902   1.365  -6.230  0.00  0.00    +0.047 A 
ATOM     32  C   UNL     1       2.778   0.525  -6.337  0.00  0.00    +0.003 A 
ATOM     33  C   UNL     1       2.945  -0.825  -6.653  0.00  0.00    +0.010 A 
ATOM     34  C   UNL     1       4.201  -1.324  -6.854  0.00  0.00    +0.001 A 
ATOM     35  C   UNL     1       5.313  -0.500  -6.745  0.00  0.00    +0.002 A 
ATOM     36  C   UNL     1       5.170   0.836  -6.444  0.00  0.00    +0.026 A 
ENDBRANCH  26  27
ENDBRANCH  25  26
ENDBRANCH   3  25
TORSDOF 7
