REMARK  Name = ZINC00720551
REMARK  6 active torsions:
REMARK  status: ('A' for Active; 'I' for Inactive)
REMARK    1  A    between atoms: C_1  and  O_2
REMARK    2  A    between atoms: O_2  and  C_3
REMARK    3  A    between atoms: C_6  and  C_11
REMARK    4  A    between atoms: C_8  and  O_9
REMARK    5  A    between atoms: O_9  and  C_10
REMARK    6  A    between atoms: C_16  and  C_26
REMARK                            x       y       z     vdW  Elec       q    Type
REMARK                         _______ _______ _______ _____ _____    ______ ____
ROOT
ATOM      1  C   UNL     1      -1.333   2.112   0.020  0.00  0.00    +0.032 C 
ATOM      2  C   UNL     1      -2.129   1.730   1.266  0.00  0.00    +0.059 C 
ATOM      3  C   UNL     1      -3.462   2.461   1.272  0.00  0.00    +0.017 C 
ATOM      4  C   UNL     1      -4.091   2.735   0.117  0.00  0.00    +0.037 C 
ATOM      5  C   UNL     1      -5.424   3.432  -0.022  0.00  0.00    +0.143 C 
ATOM      6  N   UNL     1      -5.907   4.049   1.195  0.00  0.00    -0.331 N 
ATOM      7  C   UNL     1      -6.236   3.281   2.310  0.00  0.00    +0.049 A 
ATOM      8  C   UNL     1      -7.537   3.206   2.780  0.00  0.00    +0.025 A 
ATOM      9  C   UNL     1      -7.824   2.394   3.864  0.00  0.00    +0.002 A 
ATOM     10  C   UNL     1      -6.822   1.660   4.473  0.00  0.00    +0.002 A 
ATOM     11  C   UNL     1      -5.518   1.745   4.016  0.00  0.00    +0.025 A 
ATOM     12  C   UNL     1      -5.227   2.573   2.946  0.00  0.00    +0.052 A 
ATOM     13  N   UNL     1      -3.925   2.787   2.506  0.00  0.00    -0.316 N 
ATOM     14  C   UNL     1      -3.501   2.377  -1.118  0.00  0.00    +0.163 C 
ATOM     15  O   UNL     1      -4.103   2.619  -2.146  0.00  0.00    -0.292 OA
ATOM     16  C   UNL     1      -2.162   1.710  -1.205  0.00  0.00    +0.088 C 
ATOM     17  H   UNL     1      -6.004   5.013   1.234  0.00  0.00    +0.147 HD
ATOM     18  H   UNL     1      -3.302   3.199   3.125  0.00  0.00    +0.152 HD
ENDROOT
BRANCH   1  22
ATOM     19  C   UNL     1       2.399   0.024  -0.020  0.00  0.00    +0.161 A 
ATOM     20  C   UNL     1       1.207  -0.682  -0.013  0.00  0.00    +0.049 A 
ATOM     21  C   UNL     1       0.002  -0.004   0.002  0.00  0.00    +0.008 A 
ATOM     22  C   UNL     1      -0.017   1.378   0.010  0.00  0.00    -0.040 A 
ATOM     23  C   UNL     1       1.169   2.089   0.002  0.00  0.00    +0.053 A 
ATOM     24  C   UNL     1       2.380   1.415  -0.013  0.00  0.00    +0.162 A 
BRANCH  19  26
ATOM     25  C   UNL     1       3.528  -2.069  -0.042  0.00  0.00    +0.277 C 
ATOM     26  O   UNL     1       3.585  -0.641  -0.035  0.00  0.00    -0.491 OA
ENDBRANCH  19  26
BRANCH  24  27
ATOM     27  O   UNL     1       3.548   2.113  -0.020  0.00  0.00    -0.491 OA
ATOM     28  C   UNL     1       3.452   3.539  -0.012  0.00  0.00    +0.277 C 
ENDBRANCH  24  27
ENDBRANCH   1  22
BRANCH   5  29
ATOM     29  C   UNL     1      -6.444   2.423  -0.484  0.00  0.00    +0.016 A 
ATOM     30  C   UNL     1      -6.932   2.213  -1.731  0.00  0.00    +0.015 A 
ATOM     31  C   UNL     1      -7.870   1.217  -1.925  0.00  0.00    +0.028 A 
ATOM     32  C   UNL     1      -8.283   0.487  -0.859  0.00  0.00    +0.078 A 
ATOM     33  S   UNL     1      -7.328   1.201   0.470  0.00  0.00    -0.080 S 
ATOM     34 CL   UNL     1      -9.440  -0.806  -0.801  0.00  0.00    -0.076 Cl
ENDBRANCH   5  29
TORSDOF 4
