REMARK  Name = ZINC39710974
REMARK  12 active torsions:
REMARK  status: ('A' for Active; 'I' for Inactive)
REMARK    1  A    between atoms: C_1  and  C_2
REMARK    2  A    between atoms: C_8  and  C_14
REMARK    3  A    between atoms: C_14  and  C_16
REMARK    4  A    between atoms: C_14  and  N_26
REMARK    5  A    between atoms: N_21  and  C_22
REMARK    6  A    between atoms: C_22  and  C_23
REMARK    7  A    between atoms: C_22  and  C_24
REMARK    8  A    between atoms: C_22  and  C_25
REMARK    9  A    between atoms: N_26  and  C_27
REMARK   10  A    between atoms: N_26  and  C_33
REMARK   11  A    between atoms: C_27  and  C_28
REMARK   12  A    between atoms: C_33  and  C_34
REMARK                            x       y       z     vdW  Elec       q    Type
REMARK                         _______ _______ _______ _____ _____    ______ ____
ROOT
ATOM      1  C   UNL     1       1.498  -3.145   4.590  0.00  0.00    -0.009 C 
ENDROOT
BRANCH   1   9
ATOM      2  C   UNL     1      -2.245   1.527   5.946  0.00  0.00    +0.045 C 
ATOM      3  C   UNL     1      -0.979   1.467   5.130  0.00  0.00    -0.029 A 
ATOM      4  C   UNL     1      -0.324   2.616   4.818  0.00  0.00    +0.005 A 
ATOM      5  C   UNL     1       0.852   2.631   4.067  0.00  0.00    +0.001 A 
ATOM      6  C   UNL     1       1.411   1.483   3.604  0.00  0.00    +0.009 A 
ATOM      7  C   UNL     1       0.756   0.209   3.904  0.00  0.00    -0.007 A 
ATOM      8  C   UNL     1       1.281  -0.968   3.460  0.00  0.00    -0.006 C 
ATOM      9  C   UNL     1       0.536  -2.240   3.818  0.00  0.00    +0.088 C 
ATOM     10  C   UNL     1      -0.726  -2.099   4.638  0.00  0.00    +0.223 C 
ATOM     11  O   UNL     1      -1.363  -3.086   4.954  0.00  0.00    -0.275 OA
ATOM     12  N   UNL     1      -1.135  -0.898   5.011  0.00  0.00    -0.284 N 
ATOM     13  C   UNL     1      -0.481   0.222   4.703  0.00  0.00    +0.043 A 
ATOM     14  H   UNL     1      -1.947  -0.829   5.537  0.00  0.00    +0.155 HD
ENDBRANCH   1   9
BRANCH   1  15
ATOM     15  C   UNL     1       2.883  -3.089   3.942  0.00  0.00    +0.205 C 
ATOM     16  N   UNL     1       3.361  -1.702   3.872  0.00  0.00    -0.152 NA
ATOM     17  N   UNL     1       3.530  -1.397   2.689  0.00  0.00    -0.070 NA
ATOM     18  N   UNL     1       3.223  -2.437   1.812  0.00  0.00    -0.179 N 
ATOM     19  N   UNL     1       2.811  -3.530   2.533  0.00  0.00    -0.183 NA
ATOM     20  H   UNL     1       3.290  -2.394   0.846  0.00  0.00    +0.191 HD
BRANCH  19  21
ATOM     21  C   UNL     1       1.440  -3.915   2.171  0.00  0.00    +0.035 C 
ATOM     22  C   UNL     1       0.676  -2.683   1.684  0.00  0.00    +0.029 C 
ATOM     23  C   UNL     1       1.482  -4.963   1.057  0.00  0.00    +0.029 C 
ATOM     24  C   UNL     1       0.735  -4.501   3.396  0.00  0.00    +0.029 C 
ENDBRANCH  19  21
ENDBRANCH   1  15
BRANCH   1  25
ATOM     25  N   UNL     1       1.591  -2.687   5.983  0.00  0.00    +0.389 N 
ATOM     26  H   UNL     1       2.424  -3.066   6.407  0.00  0.00    -0.081 HD
BRANCH  25  27
ATOM     27  C   UNL     1       1.650  -1.219   6.012  0.00  0.00    -0.035 C 
BRANCH  27  28
ATOM     28  C   UNL     1       1.983  -0.758   7.408  0.00  0.00    -0.027 A 
ATOM     29  C   UNL     1       3.198  -0.528   7.964  0.00  0.00    +0.009 A 
ATOM     30  C   UNL     1       3.264  -0.104   9.278  0.00  0.00    +0.008 A 
ATOM     31  C   UNL     1       2.112   0.071   9.971  0.00  0.00    +0.045 A 
ATOM     32  S   UNL     1       0.880  -0.364   8.755  0.00  0.00    -0.103 S 
ENDBRANCH  27  28
ENDBRANCH  25  27
BRANCH  25  33
ATOM     33  C   UNL     1       0.410  -3.144   6.728  0.00  0.00    -0.046 C 
BRANCH  33  34
ATOM     34  C   UNL     1       0.414  -4.672   6.802  0.00  0.00    +0.102 C 
ATOM     35  C   UNL     1      -0.928  -5.171   7.380  0.00  0.00    +0.032 C 
ATOM     36  C   UNL     1      -0.477  -6.347   8.289  0.00  0.00    +0.030 C 
ATOM     37  C   UNL     1       0.889  -5.821   8.796  0.00  0.00    +0.160 C 
ATOM     38  O   UNL     1       1.457  -5.114   7.679  0.00  0.00    -0.378 OA
ENDBRANCH  33  34
ENDBRANCH  25  33
ENDBRANCH   1  25
TORSDOF 8
