REMARK  Name = ZINC06884722
REMARK  3 active torsions:
REMARK  status: ('A' for Active; 'I' for Inactive)
REMARK    1  A    between atoms: C_5  and  C_7
REMARK    2  A    between atoms: C_10  and  N_11
REMARK    3  A    between atoms: N_11  and  C_12
REMARK                            x       y       z     vdW  Elec       q    Type
REMARK                         _______ _______ _______ _____ _____    ______ ____
ROOT
ATOM      1  C   UNL     1       1.250  -2.159  -0.022  0.00  0.00    +0.235 C 
ATOM      2  N   UNL     1       2.340  -2.873  -0.032  0.00  0.00    -0.204 NA
ATOM      3  C   UNL     1       2.004  -4.199  -0.038  0.00  0.00    +0.165 C 
ATOM      4  C   UNL     1       2.864  -5.278  -0.048  0.00  0.00    +0.107 C 
ATOM      5  C   UNL     1       0.537  -4.232  -0.030  0.00  0.00    +0.366 C 
ATOM      6  O   UNL     1      -0.179  -5.217  -0.032  0.00  0.00    -0.243 OA
ATOM      7  O   UNL     1       0.151  -2.939  -0.015  0.00  0.00    -0.402 OA
ENDROOT
BRANCH   1  12
ATOM      8  C   UNL     1      -0.017   1.375   0.010  0.00  0.00    +0.001 A 
ATOM      9  C   UNL     1       1.170   2.087   0.002  0.00  0.00    +0.003 A 
ATOM     10  C   UNL     1       2.383   1.424  -0.013  0.00  0.00    +0.039 A 
ATOM     11  C   UNL     1       2.418   0.042  -0.021  0.00  0.00    +0.136 A 
ATOM     12  C   UNL     1       1.222  -0.683  -0.013  0.00  0.00    +0.072 A 
ATOM     13  C   UNL     1       0.002  -0.004   0.002  0.00  0.00    +0.016 A 
ATOM     14  F   UNL     1       3.603  -0.606  -0.037  0.00  0.00    -0.205 F 
ENDBRANCH   1  12
BRANCH   4  15
ATOM     15  N   UNL     1       4.210  -5.076  -0.054  0.00  0.00    -0.317 N 
ATOM     16  H   UNL     1       4.564  -4.173  -0.051  0.00  0.00    +0.152 HD
BRANCH  15  17
ATOM     17  C   UNL     1       5.081  -6.169  -0.065  0.00  0.00    +0.051 A 
ATOM     18  C   UNL     1       4.574  -7.463  -0.075  0.00  0.00    +0.046 A 
ATOM     19  C   UNL     1       5.437  -8.541  -0.086  0.00  0.00    +0.061 A 
ATOM     20  C   UNL     1       6.807  -8.334  -0.086  0.00  0.00    +0.061 A 
ATOM     21  C   UNL     1       7.314  -7.047  -0.075  0.00  0.00    +0.043 A 
ATOM     22  C   UNL     1       6.455  -5.964  -0.071  0.00  0.00    +0.064 A 
ATOM     23 CL   UNL     1       7.093  -4.350  -0.066  0.00  0.00    -0.082 Cl
ATOM     24 CL   UNL     1       7.889  -9.692  -0.098  0.00  0.00    -0.082 Cl
ATOM     25 CL   UNL     1       4.805 -10.158  -0.098  0.00  0.00    -0.082 Cl
ENDBRANCH  15  17
ENDBRANCH   4  15
TORSDOF 3
