REMARK  Name = ZINC20756234
REMARK  7 active torsions:
REMARK  status: ('A' for Active; 'I' for Inactive)
REMARK    1  A    between atoms: C_1  and  C_2
REMARK    2  A    between atoms: C_2  and  N_3
REMARK    3  A    between atoms: N_3  and  C_4
REMARK    4  A    between atoms: N_3  and  S_10
REMARK    5  A    between atoms: S_10  and  C_13
REMARK    6  A    between atoms: C_26  and  C_29
REMARK    7  A    between atoms: C_32  and  N_35
REMARK                            x       y       z     vdW  Elec       q    Type
REMARK                         _______ _______ _______ _____ _____    ______ ____
ROOT
ATOM      1  C   UNL     1       0.406  -0.783  -0.573  0.00  0.00    +0.109 A 
ATOM      2  C   UNL     1       1.789  -0.773  -0.609  0.00  0.00    +0.030 A 
ATOM      3  C   UNL     1       2.459   0.420  -0.786  0.00  0.00    +0.025 A 
ATOM      4  C   UNL     1       1.747   1.604  -0.928  0.00  0.00    +0.031 A 
ATOM      5  C   UNL     1       0.361   1.599  -0.895  0.00  0.00    -0.018 A 
ATOM      6  C   UNL     1      -0.302   0.393  -0.715  0.00  0.00    +0.034 A 
ATOM      7  C   UNL     1      -0.449   2.847  -1.052  0.00  0.00    +0.049 C 
ATOM      8  C   UNL     1      -1.030   3.298   0.267  0.00  0.00    -0.023 C 
ATOM      9  C   UNL     1      -1.037   4.607   0.336  0.00  0.00    -0.030 C 
ATOM     10  C   UNL     1      -0.464   5.209  -0.926  0.00  0.00    +0.033 C 
ATOM     11  C   UNL     1       0.387   4.051  -1.526  0.00  0.00    +0.029 C 
ATOM     12  C   UNL     1       1.741   4.063  -0.812  0.00  0.00    +0.105 C 
ATOM     13  N   UNL     1       2.441   2.807  -1.101  0.00  0.00    -0.336 N 
ATOM     14  H   UNL     1       3.486   2.825  -1.445  0.00  0.00    +0.147 HD
ENDROOT
BRANCH  12  15
ATOM     15  C   UNL     1       1.528   4.191   0.674  0.00  0.00    -0.027 A 
ATOM     16  C   UNL     1       1.489   5.442   1.261  0.00  0.00    +0.008 A 
ATOM     17  C   UNL     1       1.288   5.560   2.623  0.00  0.00    +0.033 A 
ATOM     18  C   UNL     1       1.136   4.427   3.401  0.00  0.00    +0.126 A 
ATOM     19  C   UNL     1       1.181   3.176   2.814  0.00  0.00    +0.033 A 
ATOM     20  C   UNL     1       1.377   3.058   1.451  0.00  0.00    +0.008 A 
BRANCH  18  21
ATOM     21  N   UNL     1       0.926   4.553   4.860  0.00  0.00    +0.056 N 
ATOM     22  O   UNL     1       0.791   3.555   5.545  0.00  0.00    -0.126 OA
ATOM     23  O   UNL     1       0.886   5.655   5.377  0.00  0.00    -0.126 OA
ENDBRANCH  18  21
ENDBRANCH  12  15
BRANCH   1  24
ATOM     24  S   UNL     1      -0.455  -2.304  -0.345  0.00  0.00    +0.075 S 
ATOM     25  O   UNL     1       0.447  -3.187   0.308  0.00  0.00    -0.150 OA
ATOM     26  O   UNL     1      -1.726  -1.974   0.198  0.00  0.00    -0.150 OA
BRANCH  24  27
ATOM     27  N   UNL     1      -0.733  -2.939  -1.849  0.00  0.00    -0.203 N 
BRANCH  27  28
ATOM     28  C   UNL     1      -1.954  -2.712  -2.488  0.00  0.00    +0.051 A 
ATOM     29  C   UNL     1      -3.137  -3.150  -1.905  0.00  0.00    +0.025 A 
ATOM     30  C   UNL     1      -4.343  -2.920  -2.537  0.00  0.00    +0.002 A 
ATOM     31  C   UNL     1      -4.374  -2.263  -3.754  0.00  0.00    +0.000 A 
ATOM     32  C   UNL     1      -3.198  -1.830  -4.339  0.00  0.00    +0.002 A 
ATOM     33  C   UNL     1      -1.989  -2.053  -3.710  0.00  0.00    +0.025 A 
ENDBRANCH  27  28
BRANCH  27  35
ATOM     34  C   UNL     1       0.050  -5.223  -2.237  0.00  0.00    +0.026 C 
ATOM     35  C   UNL     1       0.301  -3.739  -2.510  0.00  0.00    +0.128 C 
ENDBRANCH  27  35
ENDBRANCH  24  27
ENDBRANCH   1  24
TORSDOF 6
