REMARK  Name = ZINC11859262
REMARK  7 active torsions:
REMARK  status: ('A' for Active; 'I' for Inactive)
REMARK    1  A    between atoms: C_1  and  C_2
REMARK    2  A    between atoms: C_2  and  O_3
REMARK    3  A    between atoms: O_3  and  C_4
REMARK    4  A    between atoms: C_4  and  C_6
REMARK    5  A    between atoms: C_8  and  C_20
REMARK    6  A    between atoms: C_14  and  C_15
REMARK    7  A    between atoms: C_14  and  O_19
REMARK                            x       y       z     vdW  Elec       q    Type
REMARK                         _______ _______ _______ _____ _____    ______ ____
ROOT
ATOM      1  C   UNL     1       1.376  -0.523  -0.685  0.00  0.00    +0.181 C 
ATOM      2  C   UNL     1       2.691  -1.195  -0.275  0.00  0.00    +0.121 C 
ATOM      3  N   UNL     1       3.772  -0.210  -0.334  0.00  0.00    -0.319 N 
ATOM      4  C   UNL     1       3.539   1.095  -0.129  0.00  0.00    +0.133 C 
ATOM      5  S   UNL     1       4.856   2.187  -0.200  0.00  0.00    -0.019 S 
ATOM      6  N   UNL     1       2.315   1.579   0.130  0.00  0.00    -0.291 N 
ATOM      7  C   UNL     1       1.150   0.697   0.215  0.00  0.00    +0.244 C 
ATOM      8  H   UNL     1       4.675  -0.506  -0.526  0.00  0.00    +0.148 HD
ATOM      9  H   UNL     1       2.199   2.534   0.258  0.00  0.00    +0.151 HD
ENDROOT
BRANCH   2  10
ATOM     10  C   UNL     1       2.992  -2.330  -1.219  0.00  0.00    -0.019 A 
ATOM     11  C   UNL     1       3.885  -2.159  -2.232  0.00  0.00    +0.006 A 
ATOM     12  C   UNL     1       4.176  -3.198  -3.114  0.00  0.00    +0.001 A 
ATOM     13  C   UNL     1       3.576  -4.413  -2.989  0.00  0.00    +0.008 A 
ATOM     14  C   UNL     1       2.648  -4.627  -1.956  0.00  0.00    -0.018 A 
ATOM     15  C   UNL     1       2.356  -3.572  -1.055  0.00  0.00    -0.013 A 
ATOM     16  C   UNL     1       1.424  -3.785  -0.025  0.00  0.00    +0.009 A 
ATOM     17  C   UNL     1       0.824  -5.000   0.100  0.00  0.00    +0.001 A 
ATOM     18  C   UNL     1       1.115  -6.038  -0.782  0.00  0.00    +0.001 A 
ATOM     19  C   UNL     1       2.008  -5.868  -1.795  0.00  0.00    +0.008 A 
ENDBRANCH   2  10
BRANCH   7  20
ATOM     20  C   UNL     1      -0.098   1.451  -0.247  0.00  0.00    +0.436 C 
ATOM     21  F   UNL     1       0.122   1.977  -1.525  0.00  0.00    -0.166 F 
ATOM     22  F   UNL     1      -1.186   0.573  -0.286  0.00  0.00    -0.166 F 
ATOM     23  F   UNL     1      -0.371   2.493   0.645  0.00  0.00    -0.166 F 
ENDBRANCH   7  20
BRANCH   1  24
ATOM     24  C   UNL     1       1.460  -0.082  -2.123  0.00  0.00    +0.317 C 
ATOM     25  O   UNL     1       2.408   0.564  -2.503  0.00  0.00    -0.250 OA
BRANCH  24  26
ATOM     26  O   UNL     1       0.481  -0.407  -2.983  0.00  0.00    -0.465 OA
BRANCH  26  28
ATOM     27  C   UNL     1      -0.575  -0.411  -5.177  0.00  0.00    +0.048 C 
ATOM     28  C   UNL     1       0.628   0.052  -4.353  0.00  0.00    +0.229 C 
ENDBRANCH  26  28
ENDBRANCH  24  26
ENDBRANCH   1  24
BRANCH   7  29
ATOM     29  O   UNL     1       0.975   0.267   1.567  0.00  0.00    -0.364 OA
ATOM     30  H   UNL     1       0.832   0.990   2.194  0.00  0.00    +0.212 HD
ENDBRANCH   7  29
TORSDOF 6
