REMARK  Name = ZINC36028101
REMARK  10 active torsions:
REMARK  status: ('A' for Active; 'I' for Inactive)
REMARK    1  A    between atoms: C_1  and  C_2
REMARK    2  A    between atoms: C_2  and  C_3
REMARK    3  A    between atoms: C_3  and  C_5
REMARK    4  A    between atoms: C_3  and  C_6
REMARK    5  A    between atoms: N_10  and  C_28
REMARK    6  A    between atoms: N_15  and  S_18
REMARK    7  A    between atoms: S_18  and  C_21
REMARK    8  A    between atoms: C_24  and  C_27
REMARK    9  A    between atoms: C_28  and  C_29
REMARK   10  A    between atoms: C_33  and  C_35
REMARK                            x       y       z     vdW  Elec       q    Type
REMARK                         _______ _______ _______ _____ _____    ______ ____
ROOT
ATOM      1  C   UNL     1      -0.789  -3.497   0.931  0.00  0.00    +0.022 C 
ATOM      2  C   UNL     1      -1.552  -4.297  -0.102  0.00  0.00    +0.201 C 
ATOM      3  O   UNL     1      -2.463  -5.064   0.126  0.00  0.00    -0.277 OA
ATOM      4  N   UNL     1      -1.048  -4.012  -1.321  0.00  0.00    -0.309 N 
ATOM      5  C   UNL     1       0.045  -3.046  -1.185  0.00  0.00    +0.006 C 
ATOM      6  N   UNL     1      -0.094  -2.440   0.157  0.00  0.00    +0.401 N 
ATOM      7  C   UNL     1      -0.069  -1.964  -2.256  0.00  0.00    +0.023 C 
ATOM      8  C   UNL     1       0.041  -2.607  -3.643  0.00  0.00    +0.109 C 
ATOM      9  N   UNL     1       1.278  -3.397  -3.700  0.00  0.00    -0.177 NA
ATOM     10  C   UNL     1       1.516  -4.415  -2.668  0.00  0.00    +0.109 C 
ATOM     11  C   UNL     1       1.394  -3.757  -1.290  0.00  0.00    +0.023 C 
ATOM     12  H   UNL     1      -0.656  -1.603   0.113  0.00  0.00    -0.082 HD
ATOM     13  H   UNL     1       0.811  -2.242   0.557  0.00  0.00    -0.082 HD
ENDROOT
BRANCH   9  14
ATOM     14  S   UNL     1       2.384  -3.146  -4.907  0.00  0.00    +0.061 S 
ATOM     15  O   UNL     1       3.127  -4.350  -5.035  0.00  0.00    -0.153 OA
ATOM     16  O   UNL     1       1.674  -2.570  -5.995  0.00  0.00    -0.153 OA
BRANCH  14  17
ATOM     17  C   UNL     1       3.510  -1.918  -4.334  0.00  0.00    +0.105 A 
ATOM     18  C   UNL     1       3.251  -0.580  -4.566  0.00  0.00    +0.029 A 
ATOM     19  C   UNL     1       4.134   0.384  -4.116  0.00  0.00    +0.005 A 
ATOM     20  C   UNL     1       5.277   0.009  -3.434  0.00  0.00    -0.050 A 
ATOM     21  C   UNL     1       5.536  -1.329  -3.202  0.00  0.00    +0.005 A 
ATOM     22  C   UNL     1       4.650  -2.292  -3.648  0.00  0.00    +0.029 A 
ATOM     23  C   UNL     1       6.240   1.059  -2.945  0.00  0.00    +0.044 C 
ENDBRANCH  14  17
ENDBRANCH   9  14
BRANCH   1  24
ATOM     24  C   UNL     1      -1.755  -2.872   1.940  0.00  0.00    -0.020 C 
ATOM     25  C   UNL     1      -2.846  -2.103   1.192  0.00  0.00    +0.006 C 
BRANCH  24  27
ATOM     26  C   UNL     1      -3.265  -3.344   3.873  0.00  0.00    +0.004 C 
ATOM     27  C   UNL     1      -2.396  -3.975   2.784  0.00  0.00    -0.001 C 
ENDBRANCH  24  27
ENDBRANCH   1  24
BRANCH   4  28
ATOM     28  C   UNL     1      -1.521  -4.581  -2.586  0.00  0.00    +0.141 C 
BRANCH  28  29
ATOM     29  C   UNL     1      -2.661  -3.750  -3.115  0.00  0.00    -0.030 A 
ATOM     30  C   UNL     1      -3.579  -3.198  -2.240  0.00  0.00    +0.005 A 
ATOM     31  C   UNL     1      -4.625  -2.436  -2.726  0.00  0.00    +0.001 A 
ATOM     32  C   UNL     1      -4.753  -2.224  -4.086  0.00  0.00    +0.012 A 
ATOM     33  C   UNL     1      -3.834  -2.775  -4.960  0.00  0.00    +0.055 A 
ATOM     34  C   UNL     1      -2.786  -3.534  -4.475  0.00  0.00    +0.017 A 
BRANCH  33  35
ATOM     35  C   UNL     1      -3.974  -2.545  -6.443  0.00  0.00    +0.417 C 
ATOM     36  F   UNL     1      -5.099  -1.750  -6.688  0.00  0.00    -0.166 F 
ATOM     37  F   UNL     1      -2.832  -1.896  -6.924  0.00  0.00    -0.166 F 
ATOM     38  F   UNL     1      -4.121  -3.774  -7.094  0.00  0.00    -0.166 F 
ENDBRANCH  33  35
ENDBRANCH  28  29
ENDBRANCH   4  28
TORSDOF 7
