REMARK  Name = ZINC15082692
REMARK  8 active torsions:
REMARK  status: ('A' for Active; 'I' for Inactive)
REMARK    1  A    between atoms: C_1  and  O_2
REMARK    2  A    between atoms: O_2  and  C_3
REMARK    3  A    between atoms: C_6  and  C_14
REMARK    4  A    between atoms: C_8  and  O_9
REMARK    5  A    between atoms: O_9  and  C_10
REMARK    6  A    between atoms: C_10  and  C_11
REMARK    7  A    between atoms: C_24  and  S_25
REMARK    8  A    between atoms: S_25  and  C_28
REMARK                            x       y       z     vdW  Elec       q    Type
REMARK                         _______ _______ _______ _____ _____    ______ ____
ROOT
ATOM      1  C   UNL     1       2.704  -0.786  -3.739  0.00  0.00    +0.066 C 
ATOM      2  C   UNL     1       2.395  -2.083  -4.499  0.00  0.00    +0.109 C 
ATOM      3  C   UNL     1       2.345  -1.830  -5.979  0.00  0.00    +0.218 C 
ATOM      4  O   UNL     1       1.514  -2.418  -6.638  0.00  0.00    -0.275 OA
ATOM      5  N   UNL     1       3.178  -0.983  -6.608  0.00  0.00    -0.283 N 
ATOM      6  C   UNL     1       4.011  -0.131  -5.825  0.00  0.00    +0.070 A 
ATOM      7  C   UNL     1       3.774  -0.054  -4.479  0.00  0.00    +0.021 A 
ATOM      8  S   UNL     1       5.001   1.078  -3.900  0.00  0.00    -0.097 S 
ATOM      9  C   UNL     1       5.775   1.423  -5.474  0.00  0.00    +0.074 A 
ATOM     10  C   UNL     1       5.050   0.653  -6.321  0.00  0.00    +0.122 A 
ATOM     11  H   UNL     1       3.212  -0.952  -7.577  0.00  0.00    +0.155 HD
ENDROOT
BRANCH   1  15
ATOM     12  C   UNL     1      -0.819   1.629  -3.530  0.00  0.00    +0.162 A 
ATOM     13  C   UNL     1      -0.292   1.272  -4.761  0.00  0.00    +0.050 A 
ATOM     14  C   UNL     1       0.846   0.490  -4.825  0.00  0.00    +0.008 A 
ATOM     15  C   UNL     1       1.464   0.067  -3.663  0.00  0.00    -0.035 A 
ATOM     16  C   UNL     1       0.947   0.424  -2.432  0.00  0.00    +0.053 A 
ATOM     17  C   UNL     1      -0.194   1.207  -2.360  0.00  0.00    +0.163 A 
BRANCH  12  19
ATOM     18  C   UNL     1      -2.530   2.789  -4.705  0.00  0.00    +0.277 C 
ATOM     19  O   UNL     1      -1.942   2.393  -3.465  0.00  0.00    -0.491 OA
ENDBRANCH  12  19
BRANCH  17  20
ATOM     20  O   UNL     1      -0.704   1.559  -1.150  0.00  0.00    -0.479 OA
BRANCH  20  21
ATOM     21  C   UNL     1      -0.013   1.086   0.008  0.00  0.00    +0.324 C 
BRANCH  21  22
ATOM     22  C   UNL     1      -0.718   1.572   1.248  0.00  0.00    +0.248 C 
ATOM     23  O   UNL     1      -1.714   2.256   1.150  0.00  0.00    -0.272 OA
ATOM     24  N   UNL     1      -0.242   1.246   2.466  0.00  0.00    -0.327 N 
ATOM     25  H   UNL     1       0.555   0.699   2.544  0.00  0.00    +0.145 HD
ATOM     26  H   UNL     1      -0.696   1.559   3.264  0.00  0.00    +0.145 HD
ENDBRANCH  21  22
ENDBRANCH  20  21
ENDBRANCH  17  20
ENDBRANCH   1  15
BRANCH  10  27
ATOM     27  S   UNL     1       5.421   0.643  -8.043  0.00  0.00    +0.027 S 
ATOM     28  O   UNL     1       4.189   0.830  -8.725  0.00  0.00    -0.164 OA
ATOM     29  O   UNL     1       6.532   1.511  -8.224  0.00  0.00    -0.164 OA
BRANCH  27  30
ATOM     30  C   UNL     1       5.979  -0.979  -8.446  0.00  0.00    +0.094 A 
ATOM     31  C   UNL     1       7.324  -1.287  -8.369  0.00  0.00    +0.029 A 
ATOM     32  C   UNL     1       7.761  -2.561  -8.680  0.00  0.00    +0.022 A 
ATOM     33  C   UNL     1       6.853  -3.525  -9.079  0.00  0.00    +0.041 A 
ATOM     34  C   UNL     1       5.508  -3.215  -9.162  0.00  0.00    +0.022 A 
ATOM     35  C   UNL     1       5.071  -1.942  -8.845  0.00  0.00    +0.029 A 
ATOM     36 CL   UNL     1       7.402  -5.123  -9.476  0.00  0.00    -0.084 Cl
ENDBRANCH  27  30
ENDBRANCH  10  27
TORSDOF 7
