REMARK  Name = ZINC61954450
REMARK  7 active torsions:
REMARK  status: ('A' for Active; 'I' for Inactive)
REMARK    1  A    between atoms: C_1  and  C_2
REMARK    2  A    between atoms: C_2  and  O_3
REMARK    3  A    between atoms: O_3  and  C_4
REMARK    4  A    between atoms: C_9  and  C_10
REMARK    5  A    between atoms: C_10  and  C_12
REMARK    6  A    between atoms: C_34  and  C_41
REMARK    7  A    between atoms: C_35  and  C_40
REMARK                            x       y       z     vdW  Elec       q    Type
REMARK                         _______ _______ _______ _____ _____    ______ ____
ROOT
ATOM      1  C   UNL     1      -5.349  -2.138   0.042  0.00  0.00    +0.099 C 
ATOM      2  C   UNL     1      -5.840  -2.378   1.492  0.00  0.00    +0.070 C 
ATOM      3  C   UNL     1      -4.637  -2.735   2.379  0.00  0.00    +0.021 C 
ATOM      4  C   UNL     1      -4.514  -1.568   3.384  0.00  0.00    +0.017 C 
ATOM      5  C   UNL     1      -5.218  -0.402   2.648  0.00  0.00    +0.086 C 
ATOM      6  N   UNL     1      -6.367  -1.063   1.943  0.00  0.00    -0.281 NA
ATOM      7  C   UNL     1      -6.739  -0.289   0.748  0.00  0.00    +0.145 C 
ATOM      8  C   UNL     1      -6.396  -1.133  -0.477  0.00  0.00    +0.116 C 
ATOM      9  C   UNL     1      -5.857  -0.309  -1.609  0.00  0.00    -0.008 A 
ATOM     10  C   UNL     1      -4.787   0.549  -1.736  0.00  0.00    +0.006 A 
ATOM     11  C   UNL     1      -4.543   1.177  -2.944  0.00  0.00    +0.000 A 
ATOM     12  C   UNL     1      -5.375   0.942  -4.023  0.00  0.00    +0.002 A 
ATOM     13  C   UNL     1      -6.448   0.084  -3.901  0.00  0.00    +0.023 A 
ATOM     14  C   UNL     1      -6.702  -0.554  -2.689  0.00  0.00    +0.038 A 
ATOM     15  N   UNL     1      -7.708  -1.450  -2.322  0.00  0.00    -0.284 N 
ATOM     16  C   UNL     1      -7.599  -1.838  -1.036  0.00  0.00    +0.231 C 
ATOM     17  O   UNL     1      -8.329  -2.607  -0.446  0.00  0.00    -0.274 OA
ATOM     18  C   UNL     1      -8.198   0.078   0.771  0.00  0.00    +0.004 A 
ATOM     19  C   UNL     1      -9.358  -0.663   0.800  0.00  0.00    +0.008 A 
ATOM     20  C   UNL     1     -10.586  -0.026   0.814  0.00  0.00    +0.004 A 
ATOM     21  C   UNL     1     -10.645   1.356   0.799  0.00  0.00    -0.046 A 
ATOM     22  C   UNL     1      -9.486   2.102   0.771  0.00  0.00    -0.026 A 
ATOM     23  C   UNL     1      -8.245   1.468   0.756  0.00  0.00    +0.042 A 
ATOM     24  N   UNL     1      -6.952   1.995   0.727  0.00  0.00    -0.283 N 
ATOM     25  C   UNL     1      -6.012   1.032   0.720  0.00  0.00    +0.244 C 
ATOM     26  O   UNL     1      -4.810   1.196   0.697  0.00  0.00    -0.273 OA
ATOM     27  C   UNL     1      -9.561   3.607   0.756  0.00  0.00    +0.046 C 
ATOM     28  C   UNL     1     -11.983   2.049   0.814  0.00  0.00    +0.044 C 
ATOM     29  H   UNL     1      -8.404  -1.758  -2.923  0.00  0.00    +0.155 HD
ATOM     30  H   UNL     1      -6.755   2.945   0.713  0.00  0.00    +0.155 HD
ENDROOT
BRANCH   1  31
ATOM     31  C   UNL     1      -3.969  -1.533   0.032  0.00  0.00    +0.173 C 
ATOM     32  O   UNL     1      -3.531  -1.005   1.033  0.00  0.00    -0.292 OA
BRANCH  31  38
ATOM     33  C   UNL     1      -1.867  -1.022  -1.202  0.00  0.00    +0.131 A 
ATOM     34  C   UNL     1      -1.105  -1.082  -2.360  0.00  0.00    +0.046 A 
ATOM     35  C   UNL     1      -1.613  -1.685  -3.493  0.00  0.00    +0.004 A 
ATOM     36  C   UNL     1      -2.885  -2.236  -3.486  0.00  0.00    +0.001 A 
ATOM     37  C   UNL     1      -3.658  -2.187  -2.347  0.00  0.00    +0.015 A 
ATOM     38  C   UNL     1      -3.154  -1.584  -1.188  0.00  0.00    +0.059 A 
BRANCH  33  39
ATOM     39  O   UNL     1      -1.370  -0.429  -0.089  0.00  0.00    -0.492 OA
BRANCH  39  41
ATOM     40  C   UNL     1       0.333   0.741   1.165  0.00  0.00    +0.048 C 
ATOM     41  C   UNL     1      -0.053   0.120  -0.179  0.00  0.00    +0.226 C 
ENDBRANCH  39  41
ENDBRANCH  33  39
ENDBRANCH  31  38
ENDBRANCH   1  31
TORSDOF 4
