REMARK  Name = ZINC14444586
REMARK  3 active torsions:
REMARK  status: ('A' for Active; 'I' for Inactive)
REMARK    1  A    between atoms: C_3  and  C_7
REMARK    2  A    between atoms: C_3  and  C_10
REMARK    3  A    between atoms: C_7  and  C_8
REMARK                            x       y       z     vdW  Elec       q    Type
REMARK                         _______ _______ _______ _____ _____    ______ ____
ROOT
ATOM      1  C   UNL     1       2.107   4.369   1.868  0.00  0.00    +0.125 C 
ATOM      2  C   UNL     1       2.565   3.570   0.627  0.00  0.00    +0.072 C 
ATOM      3  C   UNL     1       1.235   3.094   0.007  0.00  0.00    +0.224 C 
ATOM      4  O   UNL     1       0.174   3.631   0.847  0.00  0.00    -0.446 OA
ATOM      5  C   UNL     1       0.668   3.926   2.064  0.00  0.00    +0.308 C 
ATOM      6  O   UNL     1       0.077   3.853   3.115  0.00  0.00    -0.251 OA
ENDROOT
BRANCH   3   7
ATOM      7  C   UNL     1       1.177   1.588  -0.001  0.00  0.00    +0.399 C 
ATOM      8  O   UNL     1       2.199   0.944  -0.014  0.00  0.00    -0.242 OA
ATOM      9  O   UNL     1      -0.011   0.963   0.007  0.00  0.00    -0.242 OA
ENDBRANCH   3   7
BRANCH   3  10
ATOM     10  C   UNL     1       1.099   3.632  -1.419  0.00  0.00    +0.185 C 
BRANCH  10  11
ATOM     11  C   UNL     1      -0.213   3.176  -2.005  0.00  0.00    +0.360 C 
ATOM     12  O   UNL     1      -0.962   2.492  -1.349  0.00  0.00    -0.246 OA
ATOM     13  O   UNL     1      -0.549   3.531  -3.255  0.00  0.00    -0.246 OA
ENDBRANCH  10  11
ENDBRANCH   3  10
TORSDOF 3
