REMARK  Name = ZINC53897537
REMARK  6 active torsions:
REMARK  status: ('A' for Active; 'I' for Inactive)
REMARK    1  A    between atoms: C_1  and  C_2
REMARK    2  A    between atoms: C_15  and  C_17
REMARK    3  A    between atoms: C_17  and  C_19
REMARK    4  A    between atoms: C_17  and  N_20
REMARK    5  A    between atoms: C_23  and  O_26
REMARK    6  A    between atoms: O_26  and  C_27
REMARK                            x       y       z     vdW  Elec       q    Type
REMARK                         _______ _______ _______ _____ _____    ______ ____
ROOT
ATOM      1  C   UNL     1      -0.979   1.735   1.584  0.00  0.00    +0.008 C 
ATOM      2  C   UNL     1      -0.820   0.235   1.331  0.00  0.00    -0.009 C 
ATOM      3  C   UNL     1      -2.200  -0.429   1.295  0.00  0.00    +0.008 C 
ATOM      4  C   UNL     1      -2.070  -1.870   0.800  0.00  0.00    +0.037 C 
ATOM      5  C   UNL     1      -1.020  -2.589   1.642  0.00  0.00    -0.023 A 
ATOM      6  C   UNL     1      -0.119  -1.885   2.367  0.00  0.00    -0.004 A 
ATOM      7  S   UNL     1       0.886  -3.106   3.172  0.00  0.00    -0.073 S 
ATOM      8  C   UNL     1       0.100  -4.553   2.537  0.00  0.00    +0.116 A 
ATOM      9  C   UNL     1      -0.925  -4.036   1.715  0.00  0.00    +0.075 A 
ATOM     10  C   UNL     1      -1.762  -4.988   1.041  0.00  0.00    +0.260 A 
ATOM     11  O   UNL     1      -2.675  -4.645   0.309  0.00  0.00    -0.267 OA
ATOM     12  N   UNL     1      -1.473  -6.291   1.271  0.00  0.00    -0.312 N 
ATOM     13  H   UNL     1      -2.014  -6.968   0.835  0.00  0.00    +0.170 HD
ATOM     14  C   UNL     1      -0.464  -6.692   2.081  0.00  0.00    +0.097 A 
ATOM     15  N   UNL     1       0.324  -5.852   2.715  0.00  0.00    -0.228 NA
ATOM     16  C   UNL     1       0.003  -0.395   2.464  0.00  0.00    +0.046 C 
ENDROOT
BRANCH  14  17
ATOM     17  C   UNL     1      -0.234  -8.170   2.263  0.00  0.00    -0.004 C 
ATOM     18  C   UNL     1      -0.089  -8.837   0.894  0.00  0.00    -0.005 C 
BRANCH  17  19
ATOM     19  N   UNL     1       0.993  -8.382   3.043  0.00  0.00    +0.386 N 
ATOM     20  C   UNL     1       1.131  -9.809   3.358  0.00  0.00    -0.075 C 
ATOM     21  C   UNL     1       2.363 -10.024   4.239  0.00  0.00    +0.013 C 
ATOM     22  C   UNL     1       3.609  -9.543   3.490  0.00  0.00    +0.114 C 
ATOM     23  C   UNL     1       3.423  -8.073   3.102  0.00  0.00    +0.013 C 
ATOM     24  C   UNL     1       2.151  -7.930   2.263  0.00  0.00    -0.075 C 
ATOM     25  H   UNL     1       0.940  -7.854   3.902  0.00  0.00    -0.081 HD
BRANCH  22  26
ATOM     26  O   UNL     1       4.754  -9.672   4.336  0.00  0.00    -0.380 OA
ATOM     27  C   UNL     1       5.973  -9.915   3.630  0.00  0.00    +0.194 C 
ENDBRANCH  22  26
ENDBRANCH  17  19
ENDBRANCH  14  17
TORSDOF 3
