REMARK  Name = ZINC64061432
REMARK  8 active torsions:
REMARK  status: ('A' for Active; 'I' for Inactive)
REMARK    1  A    between atoms: C_1  and  C_2
REMARK    2  A    between atoms: C_4  and  C_24
REMARK    3  A    between atoms: C_6  and  C_9
REMARK    4  A    between atoms: C_14  and  N_15
REMARK    5  A    between atoms: C_16  and  C_18
REMARK    6  A    between atoms: C_24  and  N_25
REMARK    7  A    between atoms: C_26  and  C_28
REMARK    8  A    between atoms: C_28  and  C_29
REMARK                            x       y       z     vdW  Elec       q    Type
REMARK                         _______ _______ _______ _____ _____    ______ ____
ROOT
ATOM      1  C   UNL     1      -0.013   1.534   0.018  0.00  0.00    +0.044 C 
ATOM      2  C   UNL     1       0.012   0.005   0.004  0.00  0.00    +0.164 C 
ATOM      3  C   UNL     1       0.758  -0.498  -1.212  0.00  0.00    +0.062 C 
ATOM      4  N   UNL     1       1.540  -1.444  -0.848  0.00  0.00    -0.253 NA
ATOM      5  C   UNL     1       1.405  -1.670   0.595  0.00  0.00    +0.268 C 
ATOM      6  O   UNL     1       0.761  -0.496   1.130  0.00  0.00    -0.342 OA
ENDROOT
BRANCH   5   7
ATOM      7  C   UNL     1       2.765  -1.848   1.221  0.00  0.00    +0.024 A 
ATOM      8  C   UNL     1       3.901  -1.508   0.514  0.00  0.00    +0.010 A 
ATOM      9  C   UNL     1       5.149  -1.670   1.087  0.00  0.00    +0.001 A 
ATOM     10  C   UNL     1       5.263  -2.173   2.370  0.00  0.00    +0.002 A 
ATOM     11  C   UNL     1       4.131  -2.516   3.083  0.00  0.00    +0.024 A 
ATOM     12  C   UNL     1       2.876  -2.349   2.511  0.00  0.00    +0.041 A 
BRANCH  12  13
ATOM     13  N   UNL     1       1.727  -2.689   3.232  0.00  0.00    -0.280 N 
ATOM     14  C   UNL     1       1.748  -3.739   4.078  0.00  0.00    +0.267 C 
ATOM     15  O   UNL     1       2.786  -4.339   4.275  0.00  0.00    -0.268 OA
ATOM     16  H   UNL     1       0.915  -2.170   3.124  0.00  0.00    +0.155 HD
BRANCH  14  17
ATOM     17  C   UNL     1       0.506  -4.161   4.766  0.00  0.00    +0.126 A 
ATOM     18  C   UNL     1       0.535  -5.243   5.643  0.00  0.00    +0.033 A 
ATOM     19  C   UNL     1      -0.635  -5.626   6.279  0.00  0.00    +0.004 A 
ATOM     20  C   UNL     1      -1.794  -4.913   6.016  0.00  0.00    +0.020 A 
ATOM     21  C   UNL     1      -1.750  -3.846   5.132  0.00  0.00    +0.111 A 
ATOM     22  N   UNL     1      -0.625  -3.501   4.546  0.00  0.00    -0.250 NA
ENDBRANCH  14  17
ENDBRANCH  12  13
ENDBRANCH   5   7
BRANCH   3  23
ATOM     23  C   UNL     1       0.606   0.026  -2.617  0.00  0.00    +0.157 C 
BRANCH  23  24
ATOM     24  N   UNL     1       1.496  -0.715  -3.514  0.00  0.00    -0.310 N 
ATOM     25  C   UNL     1       1.530  -0.416  -4.828  0.00  0.00    +0.217 C 
ATOM     26  O   UNL     1       0.824   0.466  -5.268  0.00  0.00    -0.275 OA
ATOM     27  H   UNL     1       2.061  -1.421  -3.162  0.00  0.00    +0.149 HD
BRANCH  25  28
ATOM     28  C   UNL     1       2.446  -1.179  -5.751  0.00  0.00    +0.129 C 
BRANCH  28  29
ATOM     29  C   UNL     1       2.293  -0.654  -7.155  0.00  0.00    -0.033 C 
ATOM     30  C   UNL     1       3.061   0.280  -7.762  0.00  0.00    -0.001 A 
ATOM     31  C   UNL     1       4.221   1.058  -7.313  0.00  0.00    +0.010 A 
ATOM     32  C   UNL     1       4.790   1.940  -8.166  0.00  0.00    +0.001 A 
ATOM     33  C   UNL     1       4.300   2.128  -9.466  0.00  0.00    +0.002 A 
ATOM     34  C   UNL     1       3.238   1.450  -9.950  0.00  0.00    +0.026 A 
ATOM     35  C   UNL     1       2.563   0.497  -9.139  0.00  0.00    +0.043 A 
ATOM     36  N   UNL     1       1.528  -0.273  -9.375  0.00  0.00    -0.380 N 
ATOM     37  C   UNL     1       1.256  -1.071  -8.174  0.00  0.00    +0.145 C 
ATOM     38  H   UNL     1       1.029  -0.311 -10.205  0.00  0.00    +0.160 HD
ENDBRANCH  28  29
ENDBRANCH  25  28
ENDBRANCH  23  24
ENDBRANCH   3  23
TORSDOF 7
