REMARK  Name = ZINC09424117
REMARK  10 active torsions:
REMARK  status: ('A' for Active; 'I' for Inactive)
REMARK    1  A    between atoms: C_1  and  N_2
REMARK    2  A    between atoms: N_7  and  C_10
REMARK    3  A    between atoms: N_11  and  C_29
REMARK    4  A    between atoms: C_12  and  C_14
REMARK    5  A    between atoms: C_14  and  N_65
REMARK    6  A    between atoms: C_15  and  C_16
REMARK    7  A    between atoms: C_15  and  N_65
REMARK    8  A    between atoms: C_22  and  C_23
REMARK    9  A    between atoms: C_22  and  N_65
REMARK   10  A    between atoms: C_29  and  C_30
REMARK                            x       y       z     vdW  Elec       q    Type
REMARK                         _______ _______ _______ _____ _____    ______ ____
ROOT
ATOM      1  C   UNL     1      -1.528   7.356   0.310  0.00  0.00    +0.155 C 
ATOM      2  N   UNL     1      -0.608   6.230   0.489  0.00  0.00    -0.280 N 
ATOM      3  C   UNL     1      -1.098   4.935   0.521  0.00  0.00    +0.168 A 
ATOM      4  C   UNL     1      -0.205   3.884   0.692  0.00  0.00    +0.152 A 
ATOM      5  C   UNL     1       1.171   4.166   0.827  0.00  0.00    +0.282 A 
ATOM      6  O   UNL     1       1.974   3.263   0.978  0.00  0.00    -0.265 OA
ATOM      7  N   UNL     1       1.588   5.449   0.788  0.00  0.00    -0.262 N 
ATOM      8  C   UNL     1       0.713   6.456   0.622  0.00  0.00    +0.333 A 
ATOM      9  O   UNL     1       1.125   7.600   0.592  0.00  0.00    -0.246 OA
ATOM     10  C   UNL     1       3.015   5.749   0.927  0.00  0.00    +0.157 C 
ATOM     11  N   UNL     1      -0.961   2.729   0.684  0.00  0.00    -0.319 N 
ATOM     12  C   UNL     1      -2.245   3.100   0.509  0.00  0.00    +0.096 A 
ATOM     13  N   UNL     1      -2.319   4.404   0.419  0.00  0.00    -0.216 NA
ENDROOT
BRANCH  12  14
ATOM     14  C   UNL     1      -3.418   2.157   0.433  0.00  0.00    -0.002 C 
BRANCH  14  15
ATOM     15  N   UNL     1      -4.028   2.045   1.774  0.00  0.00    +0.390 N 
ATOM     16  H   UNL     1      -3.305   1.765   2.448  0.00  0.00    -0.080 HD
BRANCH  15  17
ATOM     17  C   UNL     1      -4.588   3.350   2.186  0.00  0.00    -0.042 C 
BRANCH  17  18
ATOM     18  C   UNL     1      -4.837   3.323   3.671  0.00  0.00    -0.064 A 
ATOM     19  C   UNL     1      -6.102   3.048   4.155  0.00  0.00    +0.002 A 
ATOM     20  C   UNL     1      -6.329   3.018   5.519  0.00  0.00    +0.000 A 
ATOM     21  C   UNL     1      -5.294   3.273   6.398  0.00  0.00    +0.000 A 
ATOM     22  C   UNL     1      -4.029   3.554   5.914  0.00  0.00    +0.000 A 
ATOM     23  C   UNL     1      -3.801   3.578   4.551  0.00  0.00    +0.002 A 
ENDBRANCH  17  18
ENDBRANCH  15  17
BRANCH  15  24
ATOM     24  C   UNL     1      -5.094   1.020   1.760  0.00  0.00    -0.042 C 
BRANCH  24  25
ATOM     25  C   UNL     1      -4.454  -0.342   1.828  0.00  0.00    -0.064 A 
ATOM     26  C   UNL     1      -4.015  -0.958   0.671  0.00  0.00    +0.002 A 
ATOM     27  C   UNL     1      -3.423  -2.206   0.734  0.00  0.00    +0.000 A 
ATOM     28  C   UNL     1      -3.280  -2.842   1.952  0.00  0.00    +0.000 A 
ATOM     29  C   UNL     1      -3.724  -2.229   3.109  0.00  0.00    +0.000 A 
ATOM     30  C   UNL     1      -4.311  -0.979   3.047  0.00  0.00    +0.002 A 
ENDBRANCH  24  25
ENDBRANCH  15  24
ENDBRANCH  14  15
ENDBRANCH  12  14
BRANCH  11  31
ATOM     31  C   UNL     1      -0.462   1.360   0.831  0.00  0.00    +0.158 C 
BRANCH  31  32
ATOM     32  C   UNL     1      -0.330   1.028   2.295  0.00  0.00    -0.028 A 
ATOM     33  C   UNL     1       0.879   1.213   2.938  0.00  0.00    +0.007 A 
ATOM     34  C   UNL     1       1.000   0.914   4.282  0.00  0.00    +0.020 A 
ATOM     35  C   UNL     1      -0.087   0.419   4.981  0.00  0.00    +0.041 A 
ATOM     36  C   UNL     1      -1.295   0.228   4.335  0.00  0.00    +0.020 A 
ATOM     37  C   UNL     1      -1.416   0.532   2.992  0.00  0.00    +0.007 A 
ATOM     38 CL   UNL     1       0.066   0.037   6.667  0.00  0.00    -0.084 Cl
ENDBRANCH  31  32
ENDBRANCH  11  31
TORSDOF 8
