REMARK  Name = ZINC39710941
REMARK  12 active torsions:
REMARK  status: ('A' for Active; 'I' for Inactive)
REMARK    1  A    between atoms: C_1  and  C_2
REMARK    2  A    between atoms: C_8  and  C_14
REMARK    3  A    between atoms: C_14  and  C_16
REMARK    4  A    between atoms: C_14  and  N_25
REMARK    5  A    between atoms: N_20  and  C_21
REMARK    6  A    between atoms: C_21  and  C_22
REMARK    7  A    between atoms: C_22  and  O_23
REMARK    8  A    between atoms: O_23  and  C_24
REMARK    9  A    between atoms: N_25  and  C_26
REMARK   10  A    between atoms: N_25  and  C_34
REMARK   11  A    between atoms: C_26  and  C_27
REMARK   12  A    between atoms: C_34  and  C_35
REMARK                            x       y       z     vdW  Elec       q    Type
REMARK                         _______ _______ _______ _____ _____    ______ ____
ROOT
ATOM      1  C   UNL     1       1.344  -2.691   4.283  0.00  0.00    +0.019 C 
ENDROOT
BRANCH   1   9
ATOM      2  C   UNL     1      -0.850  -1.549  -1.335  0.00  0.00    +0.045 C 
ATOM      3  C   UNL     1      -0.372  -2.825  -0.691  0.00  0.00    -0.029 A 
ATOM      4  C   UNL     1      -0.087  -3.905  -1.465  0.00  0.00    +0.005 A 
ATOM      5  C   UNL     1       0.360  -5.115  -0.934  0.00  0.00    +0.001 A 
ATOM      6  C   UNL     1       0.536  -5.278   0.403  0.00  0.00    +0.009 A 
ATOM      7  C   UNL     1       0.247  -4.155   1.295  0.00  0.00    -0.007 A 
ATOM      8  C   UNL     1       0.409  -4.273   2.643  0.00  0.00    -0.006 C 
ATOM      9  C   UNL     1       0.087  -3.058   3.491  0.00  0.00    +0.092 C 
ATOM     10  C   UNL     1      -0.388  -1.816   2.773  0.00  0.00    +0.223 C 
ATOM     11  O   UNL     1      -0.661  -0.812   3.404  0.00  0.00    -0.275 OA
ATOM     12  N   UNL     1      -0.506  -1.823   1.456  0.00  0.00    -0.284 N 
ATOM     13  C   UNL     1      -0.218  -2.887   0.706  0.00  0.00    +0.043 A 
ATOM     14  H   UNL     1      -0.812  -1.016   1.014  0.00  0.00    +0.155 HD
ENDBRANCH   1   9
BRANCH   1  15
ATOM     15  C   UNL     1       1.834  -3.900   5.037  0.00  0.00    +0.139 A 
ATOM     16  N   UNL     1       1.300  -4.420   6.115  0.00  0.00    -0.115 NA
ATOM     17  N   UNL     1       2.006  -5.442   6.456  0.00  0.00    -0.023 NA
ATOM     18  N   UNL     1       2.977  -5.588   5.623  0.00  0.00    -0.044 NA
ATOM     19  N   UNL     1       2.901  -4.661   4.729  0.00  0.00    -0.229 N 
BRANCH  19  20
ATOM     20  C   UNL     1       3.809  -4.468   3.596  0.00  0.00    +0.175 C 
BRANCH  20  21
ATOM     21  C   UNL     1       5.120  -3.854   4.091  0.00  0.00    +0.183 C 
BRANCH  21  22
ATOM     22  O   UNL     1       5.946  -3.527   2.971  0.00  0.00    -0.381 OA
ATOM     23  C   UNL     1       7.248  -3.057   3.327  0.00  0.00    +0.194 C 
ENDBRANCH  21  22
ENDBRANCH  20  21
ENDBRANCH  19  20
ENDBRANCH   1  15
BRANCH   1  24
ATOM     24  N   UNL     1       1.027  -1.617   5.233  0.00  0.00    +0.394 N 
ATOM     25  H   UNL     1       0.666  -0.819   4.731  0.00  0.00    -0.080 HD
BRANCH  24  26
ATOM     26  C   UNL     1       0.019  -2.091   6.191  0.00  0.00    -0.041 C 
BRANCH  26  27
ATOM     27  C   UNL     1      -0.421  -0.945   7.065  0.00  0.00    -0.064 A 
ATOM     28  C   UNL     1       0.247  -0.680   8.245  0.00  0.00    +0.003 A 
ATOM     29  C   UNL     1      -0.157   0.371   9.047  0.00  0.00    +0.020 A 
ATOM     30  C   UNL     1      -1.230   1.157   8.669  0.00  0.00    +0.041 A 
ATOM     31  C   UNL     1      -1.899   0.891   7.487  0.00  0.00    +0.020 A 
ATOM     32  C   UNL     1      -1.491  -0.157   6.683  0.00  0.00    +0.003 A 
ATOM     33 CL   UNL     1      -1.738   2.476   9.676  0.00  0.00    -0.084 Cl
ENDBRANCH  26  27
ENDBRANCH  24  26
BRANCH  24  34
ATOM     34  C   UNL     1       2.245  -1.228   5.957  0.00  0.00    -0.002 C 
BRANCH  34  35
ATOM     35  C   UNL     1       3.192  -0.535   5.011  0.00  0.00    +0.089 A 
ATOM     36  C   UNL     1       3.318   0.795   4.859  0.00  0.00    +0.042 A 
ATOM     37  C   UNL     1       4.312   1.003   3.876  0.00  0.00    +0.041 A 
ATOM     38  C   UNL     1       4.735  -0.213   3.486  0.00  0.00    +0.195 A 
ATOM     39  O   UNL     1       4.057  -1.141   4.181  0.00  0.00    -0.470 OA
ENDBRANCH  34  35
ENDBRANCH  24  34
ENDBRANCH   1  24
TORSDOF 10
