REMARK  Name = ZINC49072659
REMARK  5 active torsions:
REMARK  status: ('A' for Active; 'I' for Inactive)
REMARK    1  A    between atoms: C_6  and  C_11
REMARK    2  A    between atoms: N_13  and  C_14
REMARK    3  A    between atoms: N_13  and  C_22
REMARK    4  A    between atoms: C_14  and  C_15
REMARK    5  A    between atoms: N_28  and  C_29
REMARK                            x       y       z     vdW  Elec       q    Type
REMARK                         _______ _______ _______ _____ _____    ______ ____
ROOT
ATOM      1  C   UNL     1       4.500  -2.601   0.720  0.00  0.00    +0.251 C 
ATOM      2  O   UNL     1       5.297  -1.683   0.716  0.00  0.00    -0.270 OA
ATOM      3  N   UNL     1       4.781  -3.740   0.056  0.00  0.00    -0.263 N 
ENDROOT
BRANCH   1   9
ATOM      4  C   UNL     1      -0.434  -1.505   4.713  0.00  0.00    +0.001 A 
ATOM      5  C   UNL     1       0.733  -1.005   5.286  0.00  0.00    +0.001 A 
ATOM      6  C   UNL     1       1.928  -1.107   4.643  0.00  0.00    +0.008 A 
ATOM      7  C   UNL     1       1.989  -1.728   3.382  0.00  0.00    -0.017 A 
ATOM      8  C   UNL     1       3.204  -1.851   2.692  0.00  0.00    +0.021 A 
ATOM      9  C   UNL     1       3.224  -2.468   1.452  0.00  0.00    +0.038 A 
ATOM     10  C   UNL     1       2.038  -2.970   0.885  0.00  0.00    +0.013 A 
ATOM     11  C   UNL     1       0.854  -2.860   1.538  0.00  0.00    +0.009 A 
ATOM     12  C   UNL     1       0.800  -2.237   2.800  0.00  0.00    -0.018 A 
ATOM     13  C   UNL     1      -0.414  -2.112   3.494  0.00  0.00    +0.008 A 
ENDBRANCH   1   9
BRANCH   3  14
ATOM     14  C   UNL     1       6.036  -3.916  -0.527  0.00  0.00    +0.041 A 
ATOM     15  C   UNL     1       6.408  -5.150  -1.065  0.00  0.00    +0.041 A 
ATOM     16  C   UNL     1       7.656  -5.287  -1.632  0.00  0.00    +0.086 A 
ATOM     17  N   UNL     1       8.499  -4.272  -1.673  0.00  0.00    -0.350 N 
ATOM     18  C   UNL     1       8.187  -3.085  -1.174  0.00  0.00    +0.098 A 
ATOM     19  C   UNL     1       6.945  -2.866  -0.591  0.00  0.00    +0.065 A 
ATOM     20  N   UNL     1       9.109  -2.046  -1.240  0.00  0.00    -0.328 N 
ATOM     21  H   UNL     1       9.976  -2.193  -1.649  0.00  0.00    +0.148 HD
ATOM     22  H   UNL     1       9.371  -4.399  -2.079  0.00  0.00    +0.166 HD
BRANCH  20  23
ATOM     23  C   UNL     1       8.771  -0.731  -0.691  0.00  0.00    +0.072 C 
ATOM     24  C   UNL     1       8.006   0.078  -1.739  0.00  0.00    +0.022 C 
ATOM     25  C   UNL     1       7.653   1.452  -1.166  0.00  0.00    +0.002 C 
ATOM     26  C   UNL     1       8.938   2.192  -0.789  0.00  0.00    +0.000 C 
ATOM     27  C   UNL     1       9.704   1.383   0.260  0.00  0.00    +0.002 C 
ATOM     28  C   UNL     1      10.056   0.009  -0.313  0.00  0.00    +0.022 C 
ENDBRANCH  20  23
ENDBRANCH   3  14
BRANCH   3  29
ATOM     29  C   UNL     1       3.768  -4.793  -0.053  0.00  0.00    +0.149 C 
BRANCH  29  30
ATOM     30  C   UNL     1       3.568  -5.149  -1.504  0.00  0.00    -0.030 A 
ATOM     31  C   UNL     1       2.981  -4.239  -2.364  0.00  0.00    +0.008 A 
ATOM     32  C   UNL     1       2.798  -4.565  -3.694  0.00  0.00    +0.038 A 
ATOM     33  C   UNL     1       3.203  -5.802  -4.166  0.00  0.00    +0.123 A 
ATOM     34  C   UNL     1       3.791  -6.712  -3.304  0.00  0.00    +0.038 A 
ATOM     35  C   UNL     1       3.978  -6.382  -1.975  0.00  0.00    +0.008 A 
ATOM     36  F   UNL     1       3.024  -6.121  -5.467  0.00  0.00    -0.205 F 
ENDBRANCH  29  30
ENDBRANCH   3  29
TORSDOF 5
