REMARK  Name = ZINC40736339
REMARK  11 active torsions:
REMARK  status: ('A' for Active; 'I' for Inactive)
REMARK    1  A    between atoms: C_1  and  C_2
REMARK    2  A    between atoms: C_5  and  N_8
REMARK    3  A    between atoms: C_9  and  C_11
REMARK    4  A    between atoms: C_11  and  O_12
REMARK    5  A    between atoms: O_12  and  C_13
REMARK    6  A    between atoms: C_22  and  C_23
REMARK    7  A    between atoms: C_23  and  N_24
REMARK    8  A    between atoms: N_24  and  C_25
REMARK    9  A    between atoms: C_25  and  C_26
REMARK   10  A    between atoms: C_26  and  C_28
REMARK   11  A    between atoms: C_26  and  O_34
REMARK                            x       y       z     vdW  Elec       q    Type
REMARK                         _______ _______ _______ _____ _____    ______ ____
ROOT
ATOM      1  C   UNL     1       0.545  -8.176   2.625  0.00  0.00    +0.126 A 
ATOM      2  C   UNL     1       0.571  -9.008   1.502  0.00  0.00    +0.046 A 
ATOM      3  C   UNL     1       0.698 -10.356   1.633  0.00  0.00    +0.012 A 
ATOM      4  C   UNL     1       0.805 -10.924   2.914  0.00  0.00    -0.017 A 
ATOM      5  C   UNL     1       0.938 -12.313   3.086  0.00  0.00    +0.008 A 
ATOM      6  C   UNL     1       1.040 -12.829   4.341  0.00  0.00    +0.001 A 
ATOM      7  C   UNL     1       1.015 -12.002   5.462  0.00  0.00    +0.001 A 
ATOM      8  C   UNL     1       0.888 -10.653   5.334  0.00  0.00    +0.009 A 
ATOM      9  C   UNL     1       0.780 -10.083   4.054  0.00  0.00    -0.010 A 
ATOM     10  C   UNL     1       0.652  -8.694   3.884  0.00  0.00    +0.016 A 
ENDROOT
BRANCH   1  11
ATOM     11  O   UNL     1       0.417  -6.833   2.462  0.00  0.00    -0.482 OA
BRANCH  11  12
ATOM     12  C   UNL     1       0.309  -6.349   1.121  0.00  0.00    +0.324 C 
BRANCH  12  14
ATOM     13  N   UNL     1       0.059  -4.170  -0.021  0.00  0.00    -0.283 N 
ATOM     14  C   UNL     1       0.175  -4.848   1.138  0.00  0.00    +0.255 C 
ATOM     15  O   UNL     1       0.173  -4.251   2.193  0.00  0.00    -0.272 OA
ATOM     16  H   UNL     1      -0.017  -4.651  -0.860  0.00  0.00    +0.155 HD
BRANCH  13  21
ATOM     17  C   UNL     1       0.008   1.503   0.007  0.00  0.00    +0.044 C 
ATOM     18  C   UNL     1       0.022  -0.004  -0.001  0.00  0.00    -0.050 A 
ATOM     19  C   UNL     1       0.777  -0.692   0.931  0.00  0.00    +0.005 A 
ATOM     20  C   UNL     1       0.791  -2.073   0.927  0.00  0.00    +0.023 A 
ATOM     21  C   UNL     1       0.046  -2.771  -0.014  0.00  0.00    +0.034 A 
ATOM     22  C   UNL     1      -0.712  -2.077  -0.948  0.00  0.00    +0.023 A 
ATOM     23  C   UNL     1      -0.726  -0.696  -0.936  0.00  0.00    +0.005 A 
ENDBRANCH  13  21
ENDBRANCH  12  14
ENDBRANCH  11  12
ENDBRANCH   1  11
BRANCH  10  24
ATOM     24  C   UNL     1       0.629  -7.783   5.084  0.00  0.00    +0.120 C 
BRANCH  24  25
ATOM     25  N   UNL     1      -0.757  -7.610   5.540  0.00  0.00    -0.309 NA
ATOM     26  H   UNL     1      -1.343  -7.264   4.795  0.00  0.00    +0.122 HD
BRANCH  25  27
ATOM     27  C   UNL     1      -0.818  -6.725   6.711  0.00  0.00    +0.117 C 
BRANCH  27  28
ATOM     28  C   UNL     1      -2.274  -6.569   7.157  0.00  0.00    +0.158 C 
BRANCH  28  29
ATOM     29  C   UNL     1      -2.337  -5.661   8.358  0.00  0.00    -0.018 A 
ATOM     30  C   UNL     1      -2.387  -4.290   8.186  0.00  0.00    +0.006 A 
ATOM     31  C   UNL     1      -2.445  -3.458   9.288  0.00  0.00    +0.000 A 
ATOM     32  C   UNL     1      -2.454  -3.996  10.562  0.00  0.00    +0.000 A 
ATOM     33  C   UNL     1      -2.404  -5.367  10.733  0.00  0.00    +0.000 A 
ATOM     34  C   UNL     1      -2.351  -6.199   9.631  0.00  0.00    +0.006 A 
ENDBRANCH  28  29
BRANCH  28  35
ATOM     35  O   UNL     1      -3.040  -6.003   6.091  0.00  0.00    -0.386 OA
ATOM     36  H   UNL     1      -2.734  -5.131   5.806  0.00  0.00    +0.210 HD
ENDBRANCH  28  35
ENDBRANCH  27  28
ENDBRANCH  25  27
ENDBRANCH  24  25
ENDBRANCH  10  24
TORSDOF 10
