REMARK  Name = ZINC64720974
REMARK  9 active torsions:
REMARK  status: ('A' for Active; 'I' for Inactive)
REMARK    1  A    between atoms: C_1  and  C_2
REMARK    2  A    between atoms: C_2  and  C_4
REMARK    3  A    between atoms: C_2  and  N_17
REMARK    4  A    between atoms: N_6  and  C_7
REMARK    5  A    between atoms: C_7  and  C_8
REMARK    6  A    between atoms: N_17  and  C_18
REMARK    7  A    between atoms: C_18  and  C_19
REMARK    8  A    between atoms: C_19  and  C_21
REMARK    9  A    between atoms: C_19  and  C_27
REMARK                            x       y       z     vdW  Elec       q    Type
REMARK                         _______ _______ _______ _____ _____    ______ ____
ROOT
ATOM      1  N   UNL     1       0.587  -0.681   1.180  0.00  0.00    +0.387 N 
ATOM      2  H   UNL     1       0.952  -1.622   1.205  0.00  0.00    -0.085 HD
ATOM      3  H   UNL     1       1.352  -0.024   1.142  0.00  0.00    -0.085 HD
ENDROOT
BRANCH   1   5
ATOM      4  C   UNL     1      -0.712   0.941  -0.115  0.00  0.00    -0.004 C 
ATOM      5  C   UNL     1      -0.259  -0.516  -0.009  0.00  0.00    +0.013 C 
BRANCH   5   6
ATOM      6  C   UNL     1       0.526  -0.889  -1.240  0.00  0.00    +0.199 C 
ATOM      7  O   UNL     1       1.678  -1.256  -1.137  0.00  0.00    -0.278 OA
ATOM      8  N   UNL     1      -0.051  -0.815  -2.456  0.00  0.00    -0.313 N 
ATOM      9  H   UNL     1      -0.972  -0.521  -2.539  0.00  0.00    +0.149 HD
BRANCH   8  10
ATOM     10  C   UNL     1       0.713  -1.177  -3.653  0.00  0.00    +0.139 C 
BRANCH  10  11
ATOM     11  C   UNL     1      -0.155  -1.008  -4.873  0.00  0.00    -0.027 A 
ATOM     12  C   UNL     1      -0.928  -2.063  -5.321  0.00  0.00    +0.009 A 
ATOM     13  C   UNL     1      -1.726  -1.913  -6.440  0.00  0.00    +0.050 A 
ATOM     14  C   UNL     1      -1.753  -0.703  -7.115  0.00  0.00    +0.166 A 
ATOM     15  C   UNL     1      -0.975   0.360  -6.663  0.00  0.00    +0.167 A 
ATOM     16  C   UNL     1      -0.181   0.204  -5.538  0.00  0.00    +0.054 A 
ATOM     17  O   UNL     1      -1.174   1.429  -7.489  0.00  0.00    -0.453 OA
ATOM     18  C   UNL     1      -1.766   0.886  -8.684  0.00  0.00    +0.466 C 
ATOM     19  O   UNL     1      -2.441  -0.300  -8.223  0.00  0.00    -0.453 OA
ENDBRANCH  10  11
ENDBRANCH   8  10
ENDBRANCH   5   6
ENDBRANCH   1   5
BRANCH   1  20
ATOM     20  C   UNL     1      -0.212  -0.434   2.387  0.00  0.00    -0.073 C 
BRANCH  20  21
ATOM     21  C   UNL     1       0.633  -0.732   3.628  0.00  0.00    +0.014 C 
BRANCH  21  22
ATOM     22  C   UNL     1       0.958  -2.202   3.673  0.00  0.00    -0.039 C 
ATOM     23  C   UNL     1       2.189  -2.763   3.668  0.00  0.00    -0.001 A 
ATOM     24  C   UNL     1       3.541  -2.194   3.621  0.00  0.00    +0.010 A 
ATOM     25  C   UNL     1       4.605  -3.028   3.628  0.00  0.00    +0.001 A 
ATOM     26  C   UNL     1       4.449  -4.420   3.680  0.00  0.00    +0.002 A 
ATOM     27  C   UNL     1       3.240  -5.018   3.725  0.00  0.00    +0.026 A 
ATOM     28  C   UNL     1       2.052  -4.236   3.723  0.00  0.00    +0.043 A 
ATOM     29  N   UNL     1       0.785  -4.573   3.759  0.00  0.00    -0.380 N 
ATOM     30  C   UNL     1      -0.025  -3.350   3.738  0.00  0.00    +0.145 C 
ATOM     31  H   UNL     1       0.441  -5.479   3.798  0.00  0.00    +0.160 HD
ENDBRANCH  21  22
BRANCH  21  32
ATOM     32  C   UNL     1      -0.151  -0.344   4.884  0.00  0.00    +0.060 C 
ATOM     33  C   UNL     1      -0.321   1.194   4.996  0.00  0.00    +0.042 C 
ATOM     34  C   UNL     1      -0.185   1.639   6.417  0.00  0.00    -0.019 C 
ATOM     35  C   UNL     1       0.390   0.847   7.301  0.00  0.00    +0.036 C 
ATOM     36  S   UNL     1       0.836  -0.635   6.412  0.00  0.00    -0.129 S 
ENDBRANCH  21  32
ENDBRANCH  20  21
ENDBRANCH   1  20
TORSDOF 8
