REMARK  Name = ZINC14550869
REMARK  6 active torsions:
REMARK  status: ('A' for Active; 'I' for Inactive)
REMARK    1  A    between atoms: C_1  and  C_2
REMARK    2  A    between atoms: C_2  and  C_4
REMARK    3  A    between atoms: C_2  and  N_10
REMARK    4  A    between atoms: C_11  and  C_13
REMARK    5  A    between atoms: C_20  and  C_29
REMARK    6  A    between atoms: C_32  and  N_35
REMARK                            x       y       z     vdW  Elec       q    Type
REMARK                         _______ _______ _______ _____ _____    ______ ____
ROOT
ATOM      1  C   UNL     1       1.252   1.966   0.001  0.00  0.00    +0.058 A 
ATOM      2  C   UNL     1       1.228   3.360   0.003  0.00  0.00    +0.015 A 
ATOM      3  C   UNL     1       2.408   4.071   0.002  0.00  0.00    +0.001 A 
ATOM      4  C   UNL     1       3.618   3.398  -0.021  0.00  0.00    +0.006 A 
ATOM      5  C   UNL     1       3.661   2.021  -0.038  0.00  0.00    -0.019 A 
ATOM      6  C   UNL     1       2.480   1.273  -0.015  0.00  0.00    +0.044 A 
ATOM      7  N   UNL     1       2.436  -0.110   0.016  0.00  0.00    -0.336 N 
ATOM      8  C   UNL     1       3.719  -0.821  -0.106  0.00  0.00    +0.105 C 
ATOM      9  C   UNL     1       4.739  -0.041   0.697  0.00  0.00    +0.029 C 
ATOM     10  C   UNL     1       4.941   1.283  -0.103  0.00  0.00    +0.049 C 
ATOM     11  C   UNL     1       6.204   1.811   0.469  0.00  0.00    -0.023 C 
ATOM     12  C   UNL     1       6.940   0.786   0.883  0.00  0.00    -0.030 C 
ATOM     13  C   UNL     1       6.189  -0.526   0.645  0.00  0.00    +0.033 C 
ATOM     14  H   UNL     1       1.916  -0.438   0.817  0.00  0.00    +0.147 HD
ENDROOT
BRANCH   8  15
ATOM     15  C   UNL     1       3.589  -2.217   0.445  0.00  0.00    -0.027 A 
ATOM     16  C   UNL     1       2.825  -2.446   1.573  0.00  0.00    +0.008 A 
ATOM     17  C   UNL     1       2.701  -3.728   2.076  0.00  0.00    +0.033 A 
ATOM     18  C   UNL     1       3.352  -4.779   1.457  0.00  0.00    +0.126 A 
ATOM     19  C   UNL     1       4.122  -4.549   0.332  0.00  0.00    +0.033 A 
ATOM     20  C   UNL     1       4.240  -3.268  -0.174  0.00  0.00    +0.008 A 
BRANCH  18  21
ATOM     21  N   UNL     1       3.225  -6.151   1.999  0.00  0.00    +0.056 N 
ATOM     22  O   UNL     1       3.798  -7.076   1.453  0.00  0.00    -0.126 OA
ATOM     23  O   UNL     1       2.547  -6.353   2.990  0.00  0.00    -0.126 OA
ENDBRANCH  18  21
ENDBRANCH   8  15
BRANCH   1  25
ATOM     24  N   UNL     1      -1.191   1.870   0.018  0.00  0.00    -0.305 N 
ATOM     25  C   UNL     1      -0.014   1.212   0.009  0.00  0.00    +0.246 C 
ATOM     26  O   UNL     1       0.002  -0.004   0.002  0.00  0.00    -0.270 OA
ATOM     27  H   UNL     1      -1.204   2.840   0.023  0.00  0.00    +0.150 HD
BRANCH  24  29
ATOM     28  C   UNL     1      -2.816   0.743   1.456  0.00  0.00    +0.033 C 
ATOM     29  C   UNL     1      -2.449   1.120   0.020  0.00  0.00    +0.100 C 
BRANCH  29  30
ATOM     30  C   UNL     1      -3.543   1.973  -0.571  0.00  0.00    -0.027 A 
ATOM     31  C   UNL     1      -3.610   3.319  -0.266  0.00  0.00    +0.005 A 
ATOM     32  C   UNL     1      -4.610   4.102  -0.811  0.00  0.00    +0.000 A 
ATOM     33  C   UNL     1      -5.549   3.537  -1.654  0.00  0.00    +0.000 A 
ATOM     34  C   UNL     1      -5.484   2.189  -1.955  0.00  0.00    +0.000 A 
ATOM     35  C   UNL     1      -4.481   1.407  -1.413  0.00  0.00    +0.005 A 
ENDBRANCH  29  30
ENDBRANCH  24  29
ENDBRANCH   1  25
TORSDOF 5
