REMARK  Name = ZINC64392088
REMARK  6 active torsions:
REMARK  status: ('A' for Active; 'I' for Inactive)
REMARK    1  A    between atoms: C_1  and  C_2
REMARK    2  A    between atoms: C_2  and  C_3
REMARK    3  A    between atoms: C_6  and  C_9
REMARK    4  A    between atoms: C_11  and  C_15
REMARK    5  A    between atoms: N_25  and  C_28
REMARK    6  A    between atoms: C_28  and  C_29
REMARK                            x       y       z     vdW  Elec       q    Type
REMARK                         _______ _______ _______ _____ _____    ______ ____
ROOT
ATOM      1  C   UNL     1      -7.479  -4.546  -0.356  0.00  0.00    +0.006 A 
ATOM      2  C   UNL     1      -6.419  -5.320   0.090  0.00  0.00    +0.009 A 
ATOM      3  C   UNL     1      -6.569  -6.682   0.253  0.00  0.00    +0.016 A 
ATOM      4  C   UNL     1      -7.795  -7.276  -0.034  0.00  0.00    +0.063 A 
ATOM      5  C   UNL     1      -8.869  -6.490  -0.486  0.00  0.00    +0.056 A 
ATOM      6  C   UNL     1      -8.701  -5.122  -0.639  0.00  0.00    +0.034 A 
ATOM      7  N   UNL     1     -10.079  -7.109  -0.764  0.00  0.00    -0.307 N 
ATOM      8  H   UNL     1     -10.829  -6.579  -1.077  0.00  0.00    +0.170 HD
ATOM      9  C   UNL     1     -10.223  -8.435  -0.604  0.00  0.00    +0.330 A 
ATOM     10  O   UNL     1     -11.300  -8.939  -0.859  0.00  0.00    -0.246 OA
ATOM     11  N   UNL     1      -9.228  -9.228  -0.175  0.00  0.00    -0.256 N 
ATOM     12  C   UNL     1      -8.010  -8.726   0.123  0.00  0.00    +0.265 A 
ATOM     13  O   UNL     1      -7.114  -9.450   0.511  0.00  0.00    -0.267 OA
ENDROOT
BRANCH   1  16
ATOM     14  C   UNL     1      -5.399  -1.997   0.043  0.00  0.00    +0.134 C 
ATOM     15  N   UNL     1      -5.904  -2.756  -0.879  0.00  0.00    -0.339 N 
ATOM     16  C   UNL     1      -7.296  -3.060  -0.528  0.00  0.00    +0.274 C 
ATOM     17  O   UNL     1      -7.534  -2.381   0.714  0.00  0.00    -0.243 OA
ATOM     18  N   UNL     1      -6.312  -1.734   1.033  0.00  0.00    -0.247 N 
ATOM     19  H   UNL     1      -6.150  -1.193   1.821  0.00  0.00    +0.196 HD
ATOM     20  H   UNL     1      -5.439  -3.070  -1.671  0.00  0.00    +0.164 HD
BRANCH  14  24
ATOM     21  C   UNL     1      -1.412  -0.526   0.013  0.00  0.00    -0.048 A 
ATOM     22  C   UNL     1      -2.049  -0.765   1.217  0.00  0.00    +0.004 A 
ATOM     23  C   UNL     1      -3.343  -1.243   1.234  0.00  0.00    +0.012 A 
ATOM     24  C   UNL     1      -4.009  -1.484   0.032  0.00  0.00    +0.017 A 
ATOM     25  C   UNL     1      -3.362  -1.241  -1.179  0.00  0.00    +0.012 A 
ATOM     26  C   UNL     1      -2.070  -0.758  -1.182  0.00  0.00    +0.004 A 
BRANCH  21  28
ATOM     27  C   UNL     1      -0.019   1.526   0.010  0.00  0.00    +0.009 C 
ATOM     28  C   UNL     1       0.002  -0.004   0.002  0.00  0.00    +0.032 C 
ENDBRANCH  21  28
ENDBRANCH  14  24
ENDBRANCH   1  16
BRANCH  11  29
ATOM     29  C   UNL     1      -9.468 -10.666  -0.028  0.00  0.00    +0.165 C 
BRANCH  29  30
ATOM     30  C   UNL     1      -9.136 -11.366  -1.321  0.00  0.00    -0.027 A 
ATOM     31  C   UNL     1     -10.111 -11.531  -2.287  0.00  0.00    +0.008 A 
ATOM     32  C   UNL     1      -9.807 -12.172  -3.473  0.00  0.00    +0.038 A 
ATOM     33  C   UNL     1      -8.526 -12.649  -3.693  0.00  0.00    +0.123 A 
ATOM     34  C   UNL     1      -7.551 -12.483  -2.725  0.00  0.00    +0.038 A 
ATOM     35  C   UNL     1      -7.855 -11.836  -1.542  0.00  0.00    +0.008 A 
ATOM     36  F   UNL     1      -8.229 -13.276  -4.852  0.00  0.00    -0.205 F 
ENDBRANCH  29  30
ENDBRANCH  11  29
TORSDOF 5
