REMARK  Name = ZINC29909848
REMARK  12 active torsions:
REMARK  status: ('A' for Active; 'I' for Inactive)
REMARK    1  A    between atoms: C_1  and  C_2
REMARK    2  A    between atoms: C_2  and  C_3
REMARK    3  A    between atoms: C_4  and  C_28
REMARK    4  A    between atoms: C_5  and  C_27
REMARK    5  A    between atoms: C_6  and  C_9
REMARK    6  A    between atoms: N_11  and  C_12
REMARK    7  A    between atoms: C_12  and  C_13
REMARK    8  A    between atoms: C_13  and  C_15
REMARK    9  A    between atoms: C_13  and  N_17
REMARK   10  A    between atoms: C_15  and  C_16
REMARK   11  A    between atoms: C_28  and  O_30
REMARK   12  A    between atoms: O_30  and  C_31
REMARK                            x       y       z     vdW  Elec       q    Type
REMARK                         _______ _______ _______ _____ _____    ______ ____
ROOT
ATOM      1  C   UNL     1      -0.525   0.784  -4.848  0.00  0.00    +0.261 C 
ATOM      2  O   UNL     1       0.306  -0.102  -4.909  0.00  0.00    -0.269 OA
ATOM      3  N   UNL     1      -0.825   1.346  -3.660  0.00  0.00    -0.312 N 
ATOM      4  H   UNL     1      -1.577   2.147  -3.605  0.00  0.00    +0.149 HD
ENDROOT
BRANCH   1   8
ATOM      5  C   UNL     1      -2.550   2.377  -7.413  0.00  0.00    +0.031 A 
ATOM      6  C   UNL     1      -1.848   1.476  -8.192  0.00  0.00    +0.083 A 
ATOM      7  C   UNL     1      -0.988   0.762  -7.326  0.00  0.00    -0.006 A 
ATOM      8  C   UNL     1      -1.202   1.241  -6.068  0.00  0.00    +0.106 A 
ATOM      9  N   UNL     1      -2.158   2.231  -6.138  0.00  0.00    -0.353 N 
ATOM     10  H   UNL     1      -2.600   2.859  -5.351  0.00  0.00    +0.166 HD
ATOM     11  C   UNL     1      -0.021  -0.325  -7.719  0.00  0.00    +0.047 C 
BRANCH   5  13
ATOM     12  C   UNL     1      -4.944   2.666  -7.993  0.00  0.00    +0.010 C 
ATOM     13  C   UNL     1      -3.581   3.357  -7.911  0.00  0.00    +0.050 C 
ENDBRANCH   5  13
BRANCH   6  14
ATOM     14  C   UNL     1      -1.968   1.298  -9.648  0.00  0.00    +0.341 C 
ATOM     15  O   UNL     1      -1.263   1.943 -10.400  0.00  0.00    -0.245 OA
BRANCH  14  16
ATOM     16  O   UNL     1      -2.860   0.420 -10.148  0.00  0.00    -0.464 OA
ATOM     17  C   UNL     1      -2.924   0.296 -11.594  0.00  0.00    +0.280 C 
ENDBRANCH  14  16
ENDBRANCH   6  14
ENDBRANCH   1   8
BRANCH   3  18
ATOM     18  C   UNL     1      -0.150   0.890  -2.442  0.00  0.00    +0.089 C 
BRANCH  18  19
ATOM     19  C   UNL     1      -0.761   1.591  -1.227  0.00  0.00    -0.051 C 
BRANCH  19  20
ATOM     20  N   UNL     1       0.012   1.250  -0.025  0.00  0.00    +0.385 N 
ATOM     21  C   UNL     1       1.347   1.867  -0.064  0.00  0.00    -0.073 C 
ATOM     22  C   UNL     1       1.956   1.793   1.337  0.00  0.00    +0.017 C 
ATOM     23  C   UNL     1       1.858   0.386   1.867  0.00  0.00    -0.048 A 
ATOM     24  C   UNL     1       2.652   0.029   2.946  0.00  0.00    +0.004 A 
ATOM     25  C   UNL     1       2.590  -1.249   3.465  0.00  0.00    +0.000 A 
ATOM     26  C   UNL     1       1.731  -2.177   2.906  0.00  0.00    +0.000 A 
ATOM     27  C   UNL     1       0.941  -1.823   1.832  0.00  0.00    +0.002 A 
ATOM     28  C   UNL     1       1.004  -0.540   1.308  0.00  0.00    -0.061 A 
ATOM     29  C   UNL     1       0.128  -0.204   0.129  0.00  0.00    -0.042 C 
ATOM     30  H   UNL     1      -0.533   1.647   0.845  0.00  0.00    -0.081 HD
ENDBRANCH  19  20
BRANCH  19  31
ATOM     31  C   UNL     1      -2.210   1.134  -1.049  0.00  0.00    -0.017 C 
ATOM     32  C   UNL     1      -2.859   1.926   0.087  0.00  0.00    +0.002 C 
ENDBRANCH  19  31
ENDBRANCH  18  19
ENDBRANCH   3  18
TORSDOF 8
