REMARK  Name = ZINC39634738
REMARK  12 active torsions:
REMARK  status: ('A' for Active; 'I' for Inactive)
REMARK    1  A    between atoms: C_1  and  C_2
REMARK    2  A    between atoms: C_2  and  C_3
REMARK    3  A    between atoms: C_2  and  N_4
REMARK    4  A    between atoms: N_4  and  C_5
REMARK    5  A    between atoms: N_4  and  C_34
REMARK    6  A    between atoms: C_5  and  C_6
REMARK    7  A    between atoms: C_6  and  N_7
REMARK    8  A    between atoms: C_8  and  C_10
REMARK    9  A    between atoms: C_21  and  C_23
REMARK   10  A    between atoms: C_26  and  C_30
REMARK   11  A    between atoms: C_34  and  C_35
REMARK   12  A    between atoms: C_34  and  C_36
REMARK                            x       y       z     vdW  Elec       q    Type
REMARK                         _______ _______ _______ _____ _____    ______ ____
ROOT
ATOM      1  C   UNL     1      -1.868   2.918   6.124  0.00  0.00    +0.100 C 
ATOM      2  C   UNL     1      -0.775   2.523   7.142  0.00  0.00    +0.121 C 
ATOM      3  N   UNL     1      -0.065   3.789   7.441  0.00  0.00    -0.296 N 
ATOM      4  C   UNL     1      -1.140   4.809   7.500  0.00  0.00    +0.115 C 
ATOM      5  C   UNL     1      -2.107   4.418   6.364  0.00  0.00    -0.004 C 
ATOM      6  C   UNL     1      -1.786   5.213   5.102  0.00  0.00    -0.010 C 
ATOM      7  C   UNL     1      -2.086   6.695   5.348  0.00  0.00    -0.082 C 
ATOM      8  N   UNL     1      -3.500   6.857   5.706  0.00  0.00    +0.379 N 
ATOM      9  C   UNL     1      -3.779   6.165   6.970  0.00  0.00    -0.082 C 
ATOM     10  C   UNL     1      -3.551   4.662   6.793  0.00  0.00    -0.010 C 
ATOM     11  C   UNL     1       1.258   3.973   7.618  0.00  0.00    +0.247 C 
ATOM     12  O   UNL     1       2.029   3.051   7.434  0.00  0.00    -0.270 OA
ATOM     13  H   UNL     1      -3.709   7.839   5.807  0.00  0.00    -0.086 HD
ATOM     14  H   UNL     1      -4.077   6.466   4.976  0.00  0.00    -0.086 HD
ENDROOT
BRANCH  11  15
ATOM     15  C   UNL     1       1.772   5.295   8.037  0.00  0.00    +0.040 A 
ATOM     16  C   UNL     1       0.924   6.209   8.663  0.00  0.00    +0.014 A 
ATOM     17  C   UNL     1       1.408   7.441   9.052  0.00  0.00    +0.016 A 
ATOM     18  C   UNL     1       2.731   7.772   8.823  0.00  0.00    +0.090 A 
ATOM     19  C   UNL     1       3.579   6.870   8.201  0.00  0.00    +0.136 A 
ATOM     20  C   UNL     1       3.107   5.630   7.812  0.00  0.00    +0.052 A 
ATOM     21  F   UNL     1       4.870   7.200   7.979  0.00  0.00    -0.205 F 
BRANCH  18  22
ATOM     22  C   UNL     1       3.253   9.120   9.251  0.00  0.00    +0.420 C 
ATOM     23  F   UNL     1       2.221   9.850   9.850  0.00  0.00    -0.166 F 
ATOM     24  F   UNL     1       4.296   8.947  10.167  0.00  0.00    -0.166 F 
ATOM     25  F   UNL     1       3.726   9.813   8.132  0.00  0.00    -0.166 F 
ENDBRANCH  18  22
ENDBRANCH  11  15
BRANCH   1  27
ATOM     26  N   UNL     1      -2.273   2.523   3.716  0.00  0.00    -0.317 N 
ATOM     27  C   UNL     1      -1.384   2.683   4.717  0.00  0.00    +0.218 C 
ATOM     28  O   UNL     1      -0.195   2.636   4.484  0.00  0.00    -0.275 OA
ATOM     29  H   UNL     1      -3.224   2.560   3.902  0.00  0.00    +0.149 HD
BRANCH  26  30
ATOM     30  C   UNL     1      -1.802   2.294   2.348  0.00  0.00    +0.085 C 
BRANCH  30  31
ATOM     31  C   UNL     1      -3.005   2.148   1.413  0.00  0.00    -0.059 C 
BRANCH  31  32
ATOM     32  N   UNL     1      -2.540   1.752   0.077  0.00  0.00    +0.384 N 
ATOM     33  H   UNL     1      -1.968   0.925   0.151  0.00  0.00    -0.081 HD
BRANCH  32  35
ATOM     34  C   UNL     1      -2.246   4.183   0.037  0.00  0.00    -0.014 C 
ATOM     35  C   UNL     1      -1.751   2.843  -0.511  0.00  0.00    -0.074 C 
ATOM     36  C   UNL     1      -0.276   2.657  -0.148  0.00  0.00    -0.014 C 
ENDBRANCH  32  35
BRANCH  32  37
ATOM     37  C   UNL     1      -3.699   1.470  -0.781  0.00  0.00    -0.074 C 
ATOM     38  C   UNL     1      -3.219   0.906  -2.119  0.00  0.00    -0.014 C 
ATOM     39  C   UNL     1      -4.605   0.446  -0.093  0.00  0.00    -0.014 C 
ENDBRANCH  32  37
ENDBRANCH  31  32
ENDBRANCH  30  31
ENDBRANCH  26  30
ENDBRANCH   1  27
TORSDOF 8
