REMARK  Name = ZINC39665621
REMARK  9 active torsions:
REMARK  status: ('A' for Active; 'I' for Inactive)
REMARK    1  A    between atoms: C_1  and  C_2
REMARK    2  A    between atoms: C_2  and  C_4
REMARK    3  A    between atoms: C_2  and  O_29
REMARK    4  A    between atoms: C_4  and  N_5
REMARK    5  A    between atoms: C_6  and  C_8
REMARK    6  A    between atoms: C_19  and  C_21
REMARK    7  A    between atoms: O_29  and  C_30
REMARK    8  A    between atoms: C_33  and  O_36
REMARK    9  A    between atoms: O_36  and  C_37
REMARK                            x       y       z     vdW  Elec       q    Type
REMARK                         _______ _______ _______ _____ _____    ______ ____
ROOT
ATOM      1  C   UNL     1       1.733  -4.862   0.142  0.00  0.00    +0.100 C 
ATOM      2  C   UNL     1       2.578  -5.010  -1.144  0.00  0.00    +0.121 C 
ATOM      3  N   UNL     1       3.861  -5.590  -0.684  0.00  0.00    -0.296 N 
ATOM      4  C   UNL     1       3.471  -6.575   0.353  0.00  0.00    +0.115 C 
ATOM      5  C   UNL     1       2.320  -5.894   1.120  0.00  0.00    -0.004 C 
ATOM      6  C   UNL     1       2.859  -5.194   2.365  0.00  0.00    -0.010 C 
ATOM      7  C   UNL     1       3.385  -6.245   3.347  0.00  0.00    -0.082 C 
ATOM      8  N   UNL     1       2.301  -7.165   3.709  0.00  0.00    +0.379 N 
ATOM      9  C   UNL     1       1.851  -7.902   2.521  0.00  0.00    -0.082 C 
ATOM     10  C   UNL     1       1.260  -6.921   1.504  0.00  0.00    -0.010 C 
ATOM     11  C   UNL     1       5.104  -5.290  -1.112  0.00  0.00    +0.247 C 
ATOM     12  O   UNL     1       5.272  -4.377  -1.896  0.00  0.00    -0.270 OA
ATOM     13  H   UNL     1       2.634  -7.819   4.402  0.00  0.00    -0.086 HD
ATOM     14  H   UNL     1       1.529  -6.640   4.090  0.00  0.00    -0.086 HD
ENDROOT
BRANCH  11  15
ATOM     15  C   UNL     1       6.262  -6.071  -0.627  0.00  0.00    +0.042 A 
ATOM     16  C   UNL     1       6.074  -7.355  -0.112  0.00  0.00    +0.051 A 
ATOM     17  C   UNL     1       7.160  -8.081   0.340  0.00  0.00    +0.127 A 
ATOM     18  C   UNL     1       8.432  -7.537   0.282  0.00  0.00    +0.076 A 
ATOM     19  C   UNL     1       8.624  -6.263  -0.228  0.00  0.00    +0.127 A 
ATOM     20  C   UNL     1       7.547  -5.531  -0.688  0.00  0.00    +0.051 A 
ATOM     21  F   UNL     1       9.868  -5.739  -0.282  0.00  0.00    -0.205 F 
ATOM     22  F   UNL     1       6.979  -9.323   0.840  0.00  0.00    -0.205 F 
ENDBRANCH  11  15
BRANCH   1  24
ATOM     23  N   UNL     1       0.865  -2.932   1.422  0.00  0.00    -0.312 N 
ATOM     24  C   UNL     1       1.870  -3.470   0.703  0.00  0.00    +0.218 C 
ATOM     25  O   UNL     1       2.883  -2.834   0.506  0.00  0.00    -0.275 OA
ATOM     26  H   UNL     1       0.054  -3.441   1.579  0.00  0.00    +0.149 HD
BRANCH  23  27
ATOM     27  C   UNL     1       0.998  -1.579   1.967  0.00  0.00    +0.148 C 
BRANCH  27  29
ATOM     28  C   UNL     1      -0.135   0.201   3.306  0.00  0.00    +0.053 C 
ATOM     29  C   UNL     1      -0.273  -1.212   2.736  0.00  0.00    +0.187 C 
BRANCH  29  30
ATOM     30  O   UNL     1      -1.395  -1.262   1.853  0.00  0.00    -0.488 OA
BRANCH  30  31
ATOM     31  C   UNL     1      -2.613  -1.487   2.415  0.00  0.00    +0.121 A 
ATOM     32  C   UNL     1      -2.742  -1.535   3.795  0.00  0.00    +0.049 A 
ATOM     33  C   UNL     1      -3.979  -1.764   4.365  0.00  0.00    +0.049 A 
ATOM     34  C   UNL     1      -5.093  -1.945   3.558  0.00  0.00    +0.120 A 
ATOM     35  C   UNL     1      -4.964  -1.895   2.178  0.00  0.00    +0.049 A 
ATOM     36  C   UNL     1      -3.728  -1.663   1.608  0.00  0.00    +0.049 A 
BRANCH  34  37
ATOM     37  O   UNL     1      -6.310  -2.171   4.120  0.00  0.00    -0.495 OA
ATOM     38  C   UNL     1      -7.413  -2.348   3.228  0.00  0.00    +0.277 C 
ENDBRANCH  34  37
ENDBRANCH  30  31
ENDBRANCH  29  30
ENDBRANCH  27  29
ENDBRANCH  23  27
ENDBRANCH   1  24
TORSDOF 7
