REMARK  Name = ZINC43619928
REMARK  10 active torsions:
REMARK  status: ('A' for Active; 'I' for Inactive)
REMARK    1  A    between atoms: C_1  and  O_2
REMARK    2  A    between atoms: O_2  and  C_3
REMARK    3  A    between atoms: C_3  and  C_5
REMARK    4  A    between atoms: C_8  and  C_11
REMARK    5  A    between atoms: C_11  and  N_12
REMARK    6  A    between atoms: N_12  and  C_13
REMARK    7  A    between atoms: C_13  and  C_14
REMARK    8  A    between atoms: C_14  and  C_15
REMARK    9  A    between atoms: N_21  and  C_22
REMARK   10  A    between atoms: C_22  and  C_23
REMARK                            x       y       z     vdW  Elec       q    Type
REMARK                         _______ _______ _______ _____ _____    ______ ____
ROOT
ATOM      1  C   UNL     1      -1.523 -10.380   2.676  0.00  0.00    +0.075 C 
ATOM      2  C   UNL     1      -1.551 -11.039   4.073  0.00  0.00    +0.031 C 
ATOM      3  C   UNL     1      -2.436 -12.281   3.817  0.00  0.00    +0.098 C 
ATOM      4  C   UNL     1      -3.283 -11.894   2.625  0.00  0.00    +0.216 C 
ATOM      5  O   UNL     1      -4.294 -12.466   2.276  0.00  0.00    -0.276 OA
ATOM      6  N   UNL     1      -2.751 -10.825   2.006  0.00  0.00    -0.298 N 
ENDROOT
BRANCH   1   7
ATOM      7  C   UNL     1      -1.515  -8.856   2.809  0.00  0.00    +0.003 C 
BRANCH   7   8
ATOM      8  C   UNL     1      -0.182  -8.403   3.410  0.00  0.00    -0.080 C 
BRANCH   8   9
ATOM      9  N   UNL     1      -0.126  -6.936   3.428  0.00  0.00    +0.382 N 
ATOM     10  H   UNL     1      -0.886  -6.576   3.986  0.00  0.00    -0.085 HD
ATOM     11  H   UNL     1      -0.206  -6.585   2.485  0.00  0.00    -0.085 HD
BRANCH   9  12
ATOM     12  C   UNL     1       1.153  -6.501   4.005  0.00  0.00    -0.047 C 
BRANCH  12  16
ATOM     13  C   UNL     1       1.317  -2.228   4.055  0.00  0.00    +0.059 A 
ATOM     14  C   UNL     1       0.792  -2.923   5.146  0.00  0.00    +0.015 A 
ATOM     15  C   UNL     1       0.742  -4.301   5.123  0.00  0.00    +0.002 A 
ATOM     16  C   UNL     1       1.211  -4.996   4.022  0.00  0.00    -0.064 A 
ATOM     17  C   UNL     1       1.733  -4.314   2.937  0.00  0.00    +0.002 A 
ATOM     18  C   UNL     1       1.783  -2.935   2.944  0.00  0.00    +0.015 A 
BRANCH  13  19
ATOM     19  C   UNL     1       1.374  -0.752   4.072  0.00  0.00    +0.339 C 
ATOM     20  O   UNL     1       1.827  -0.151   3.119  0.00  0.00    -0.245 OA
BRANCH  19  22
ATOM     21  C   UNL     1       1.009   1.352   5.093  0.00  0.00    +0.280 C 
ATOM     22  O   UNL     1       0.923  -0.074   5.145  0.00  0.00    -0.464 OA
ENDBRANCH  19  22
ENDBRANCH  13  19
ENDBRANCH  12  16
ENDBRANCH   9  12
ENDBRANCH   8   9
ENDBRANCH   7   8
ENDBRANCH   1   7
BRANCH   6  23
ATOM     23  C   UNL     1      -3.322 -10.185   0.818  0.00  0.00    +0.110 C 
BRANCH  23  24
ATOM     24  C   UNL     1      -2.852 -10.925  -0.436  0.00  0.00    -0.007 C 
ATOM     25  C   UNL     1      -1.337 -10.771  -0.579  0.00  0.00    +0.002 C 
ATOM     26  C   UNL     1      -0.894 -11.464  -1.872  0.00  0.00    -0.018 C 
ATOM     27  C   UNL     1      -1.645 -10.840  -3.048  0.00  0.00    -0.078 C 
ATOM     28  N   UNL     1      -3.094 -11.022  -2.879  0.00  0.00    +0.382 N 
ATOM     29  C   UNL     1      -3.551 -10.336  -1.666  0.00  0.00    -0.064 C 
ATOM     30  C   UNL     1      -5.061 -10.527  -1.494  0.00  0.00    -0.015 C 
ATOM     31  C   UNL     1      -5.796  -9.971  -2.715  0.00  0.00    -0.003 C 
ATOM     32  C   UNL     1      -5.271 -10.679  -3.968  0.00  0.00    -0.019 C 
ATOM     33  C   UNL     1      -3.764 -10.461  -4.062  0.00  0.00    -0.078 C 
ATOM     34  H   UNL     1      -3.303 -12.007  -2.809  0.00  0.00    -0.081 HD
ENDBRANCH  23  24
ENDBRANCH   6  23
TORSDOF 9
