REMARK  Name = ZINC11388276
REMARK  9 active torsions:
REMARK  status: ('A' for Active; 'I' for Inactive)
REMARK    1  A    between atoms: C_1  and  C_2
REMARK    2  A    between atoms: C_2  and  C_3
REMARK    3  A    between atoms: C_3  and  C_4
REMARK    4  A    between atoms: C_7  and  N_10
REMARK    5  A    between atoms: C_11  and  C_13
REMARK    6  A    between atoms: C_13  and  S_14
REMARK    7  A    between atoms: S_14  and  C_15
REMARK    8  A    between atoms: C_18  and  C_21
REMARK    9  A    between atoms: N_19  and  N_20
REMARK                            x       y       z     vdW  Elec       q    Type
REMARK                         _______ _______ _______ _____ _____    ______ ____
ROOT
ATOM      1  C   UNL     1       0.357   1.272  -2.689  0.00  0.00    +0.209 A 
ATOM      2  N   UNL     1       1.297   0.368  -2.530  0.00  0.00    -0.121 NA
ATOM      3  N   UNL     1       1.800   0.049  -3.669  0.00  0.00    -0.127 NA
ATOM      4  C   UNL     1       1.218   0.737  -4.624  0.00  0.00    +0.183 A 
ATOM      5  N   UNL     1       0.276   1.542  -4.026  0.00  0.00    -0.224 N 
ENDROOT
BRANCH   4   6
ATOM      6  C   UNL     1       1.518   0.661  -6.070  0.00  0.00    +0.040 A 
ATOM      7  C   UNL     1       1.697   1.830  -6.811  0.00  0.00    +0.033 A 
ATOM      8  C   UNL     1       1.977   1.752  -8.160  0.00  0.00    +0.042 A 
ATOM      9  C   UNL     1       2.081   0.517  -8.779  0.00  0.00    +0.021 A 
ATOM     10  C   UNL     1       1.905  -0.645  -8.050  0.00  0.00    +0.022 A 
ATOM     11  C   UNL     1       1.630  -0.581  -6.698  0.00  0.00    +0.052 A 
ATOM     12 CL   UNL     1       1.417  -2.041  -5.784  0.00  0.00    -0.083 Cl
ATOM     13 CL   UNL     1       2.200   3.205  -9.084  0.00  0.00    -0.084 Cl
ENDBRANCH   4   6
BRANCH   5  14
ATOM     14  N   UNL     1      -0.564   2.426  -4.640  0.00  0.00    -0.295 N 
ATOM     15  H   UNL     1      -0.169   3.355  -4.649  0.00  0.00    +0.163 HD
ATOM     16  H   UNL     1      -0.789   2.121  -5.575  0.00  0.00    +0.163 HD
ENDBRANCH   5  14
BRANCH   1  17
ATOM     17  S   UNL     1      -0.613   2.006  -1.415  0.00  0.00    -0.075 S 
BRANCH  17  18
ATOM     18  C   UNL     1       0.067   1.153   0.029  0.00  0.00    +0.173 C 
BRANCH  18  20
ATOM     19  N   UNL     1      -0.288   1.136   2.477  0.00  0.00    -0.285 N 
ATOM     20  C   UNL     1      -0.632   1.636   1.274  0.00  0.00    +0.227 C 
ATOM     21  O   UNL     1      -1.506   2.474   1.192  0.00  0.00    -0.275 OA
ATOM     22  H   UNL     1       0.459   0.522   2.551  0.00  0.00    +0.155 HD
BRANCH  19  26
ATOM     23  C   UNL     1      -2.434   2.227   5.877  0.00  0.00    -0.047 A 
ATOM     24  C   UNL     1      -3.079   2.120   4.659  0.00  0.00    +0.005 A 
ATOM     25  C   UNL     1      -2.371   1.758   3.530  0.00  0.00    +0.023 A 
ATOM     26  C   UNL     1      -1.009   1.502   3.619  0.00  0.00    +0.033 A 
ATOM     27  C   UNL     1      -0.365   1.605   4.845  0.00  0.00    +0.023 A 
ATOM     28  C   UNL     1      -1.078   1.973   5.969  0.00  0.00    +0.005 A 
BRANCH  23  29
ATOM     29  C   UNL     1      -3.210   2.622   7.107  0.00  0.00    +0.035 C 
BRANCH  29  31
ATOM     30  C   UNL     1      -4.540   1.766   9.042  0.00  0.00    +0.004 C 
ATOM     31  C   UNL     1      -3.752   1.366   7.793  0.00  0.00    +0.001 C 
ENDBRANCH  29  31
ENDBRANCH  23  29
ENDBRANCH  19  26
ENDBRANCH  18  20
ENDBRANCH  17  18
ENDBRANCH   1  17
TORSDOF 8
