REMARK  Name = ZINC10215857
REMARK  6 active torsions:
REMARK  status: ('A' for Active; 'I' for Inactive)
REMARK    1  A    between atoms: C_1  and  C_2
REMARK    2  A    between atoms: C_5  and  C_7
REMARK    3  A    between atoms: C_13  and  C_15
REMARK    4  A    between atoms: C_20  and  O_21
REMARK    5  A    between atoms: C_26  and  O_29
REMARK    6  A    between atoms: O_29  and  C_30
REMARK                            x       y       z     vdW  Elec       q    Type
REMARK                         _______ _______ _______ _____ _____    ______ ____
ROOT
ATOM      1  C   UNL     1       1.684  -3.245  -0.023  0.00  0.00    +0.346 C 
ATOM      2  N   UNL     1       2.949  -2.885   0.630  0.00  0.00    -0.203 N 
ATOM      3  C   UNL     1       3.814  -1.823   0.069  0.00  0.00    +0.136 C 
ATOM      4  C   UNL     1       5.152  -2.066   0.780  0.00  0.00    +0.086 C 
ATOM      5  C   UNL     1       4.800  -3.050   1.877  0.00  0.00    +0.072 C 
ATOM      6  N   UNL     1       3.574  -3.433   1.735  0.00  0.00    -0.184 NA
ATOM      7  C   UNL     1       3.888  -2.075  -1.415  0.00  0.00    +0.020 A 
ATOM      8  C   UNL     1       4.888  -1.467  -2.154  0.00  0.00    +0.009 A 
ATOM      9  C   UNL     1       4.969  -1.666  -3.518  0.00  0.00    +0.004 A 
ATOM     10  C   UNL     1       4.044  -2.477  -4.149  0.00  0.00    +0.049 A 
ATOM     11  C   UNL     1       3.047  -3.093  -3.415  0.00  0.00    +0.162 A 
ATOM     12  C   UNL     1       2.965  -2.903  -2.031  0.00  0.00    +0.170 A 
ATOM     13  O   UNL     1       2.014  -3.600  -1.371  0.00  0.00    -0.458 OA
ENDROOT
BRANCH   1  18
ATOM     14  C   UNL     1      -0.018   1.503   0.010  0.00  0.00    +0.086 C 
ATOM     15  C   UNL     1       0.002  -0.004   0.002  0.00  0.00    +0.102 A 
ATOM     16  C   UNL     1      -1.078  -0.805   0.003  0.00  0.00    +0.045 A 
ATOM     17  C   UNL     1      -0.601  -2.136  -0.007  0.00  0.00    +0.050 A 
ATOM     18  C   UNL     1       0.742  -2.069  -0.013  0.00  0.00    +0.166 A 
ATOM     19  O   UNL     1       1.102  -0.775  -0.013  0.00  0.00    -0.459 OA
ENDBRANCH   1  18
BRANCH   5  20
ATOM     20  C   UNL     1       5.715  -3.500   2.943  0.00  0.00    +0.039 A 
ATOM     21  C   UNL     1       7.021  -3.011   3.000  0.00  0.00    +0.013 A 
ATOM     22  C   UNL     1       7.872  -3.436   3.999  0.00  0.00    +0.001 A 
ATOM     23  C   UNL     1       7.435  -4.347   4.946  0.00  0.00    +0.004 A 
ATOM     24  C   UNL     1       6.144  -4.838   4.900  0.00  0.00    +0.046 A 
ATOM     25  C   UNL     1       5.275  -4.417   3.907  0.00  0.00    +0.126 A 
BRANCH  25  26
ATOM     26  O   UNL     1       4.005  -4.895   3.865  0.00  0.00    -0.506 OA
ATOM     27  H   UNL     1       3.905  -5.701   3.340  0.00  0.00    +0.292 HD
ENDBRANCH  25  26
ENDBRANCH   5  20
BRANCH  11  28
ATOM     28  O   UNL     1       2.141  -3.888  -4.042  0.00  0.00    -0.491 OA
ATOM     29  C   UNL     1       2.280  -4.041  -5.456  0.00  0.00    +0.277 C 
ENDBRANCH  11  28
TORSDOF 4
