REMARK  Name = ZINC39361089
REMARK  7 active torsions:
REMARK  status: ('A' for Active; 'I' for Inactive)
REMARK    1  A    between atoms: C_1  and  C_2
REMARK    2  A    between atoms: C_7  and  C_14
REMARK    3  A    between atoms: C_14  and  C_15
REMARK    4  A    between atoms: C_15  and  N_16
REMARK    5  A    between atoms: C_17  and  C_19
REMARK    6  A    between atoms: C_22  and  S_25
REMARK    7  A    between atoms: S_25  and  N_28
REMARK                            x       y       z     vdW  Elec       q    Type
REMARK                         _______ _______ _______ _____ _____    ______ ____
ROOT
ATOM      1  N   UNL     1       2.632  -7.256   2.726  0.00  0.00    -0.311 N 
ATOM      2  C   UNL     1       2.899  -7.992   3.823  0.00  0.00    +0.244 C 
ATOM      3  O   UNL     1       2.100  -8.030   4.738  0.00  0.00    -0.270 OA
ATOM      4  H   UNL     1       3.270  -7.225   1.996  0.00  0.00    +0.149 HD
ENDROOT
BRANCH   2   5
ATOM      5  C   UNL     1       4.164  -8.751   3.913  0.00  0.00    +0.037 A 
ATOM      6  C   UNL     1       5.087  -8.704   2.867  0.00  0.00    +0.015 A 
ATOM      7  C   UNL     1       6.265  -9.415   2.958  0.00  0.00    +0.029 A 
ATOM      8  C   UNL     1       6.534 -10.174   4.083  0.00  0.00    +0.106 A 
ATOM      9  C   UNL     1       5.623 -10.226   5.124  0.00  0.00    +0.029 A 
ATOM     10  C   UNL     1       4.444  -9.514   5.048  0.00  0.00    +0.015 A 
BRANCH   8  11
ATOM     11  S   UNL     1       8.041 -11.080   4.191  0.00  0.00    +0.061 S 
ATOM     12  O   UNL     1       7.812 -12.143   5.105  0.00  0.00    -0.153 OA
ATOM     13  O   UNL     1       8.478 -11.303   2.857  0.00  0.00    -0.153 OA
BRANCH  11  14
ATOM     14  N   UNL     1       9.162 -10.084   4.895  0.00  0.00    -0.177 NA
ATOM     15  C   UNL     1      10.002  -9.203   4.073  0.00  0.00    +0.109 C 
ATOM     16  C   UNL     1       9.866  -7.767   4.591  0.00  0.00    +0.017 C 
ATOM     17  C   UNL     1      10.196  -7.736   6.085  0.00  0.00    +0.003 C 
ATOM     18  C   UNL     1       9.206  -8.620   6.847  0.00  0.00    +0.017 C 
ATOM     19  C   UNL     1       9.330 -10.060   6.354  0.00  0.00    +0.109 C 
ENDBRANCH  11  14
ENDBRANCH   8  11
ENDBRANCH   2   5
BRANCH   1  20
ATOM     20  C   UNL     1       1.379  -6.503   2.636  0.00  0.00    +0.105 C 
BRANCH  20  21
ATOM     21  C   UNL     1       1.325  -5.759   1.300  0.00  0.00    +0.035 C 
BRANCH  21  28
ATOM     22  C   UNL     1      -4.760  -5.317  -3.058  0.00  0.00    +0.044 C 
ATOM     23  C   UNL     1      -3.787  -5.429  -1.912  0.00  0.00    -0.049 A 
ATOM     24  C   UNL     1      -4.047  -6.354  -0.901  0.00  0.00    +0.004 A 
ATOM     25  C   UNL     1      -3.208  -6.501   0.157  0.00  0.00    +0.010 A 
ATOM     26  C   UNL     1      -2.009  -5.665   0.227  0.00  0.00    -0.007 A 
ATOM     27  C   UNL     1      -1.137  -5.777   1.269  0.00  0.00    -0.005 C 
ATOM     28  C   UNL     1       0.079  -4.872   1.260  0.00  0.00    +0.100 C 
ATOM     29  C   UNL     1       0.226  -3.919   0.096  0.00  0.00    +0.224 C 
ATOM     30  O   UNL     1       1.183  -3.170   0.037  0.00  0.00    -0.275 OA
ATOM     31  N   UNL     1      -0.689  -3.902  -0.859  0.00  0.00    -0.284 N 
ATOM     32  C   UNL     1      -1.759  -4.696  -0.855  0.00  0.00    +0.041 A 
ATOM     33  C   UNL     1      -2.690  -4.628  -1.908  0.00  0.00    +0.027 A 
ATOM     34  H   UNL     1      -0.575  -3.283  -1.597  0.00  0.00    +0.155 HD
ENDBRANCH  21  28
ENDBRANCH  20  21
ENDBRANCH   1  20
TORSDOF 6
