REMARK  Name = ZINC40986613
REMARK  14 active torsions:
REMARK  status: ('A' for Active; 'I' for Inactive)
REMARK    1  A    between atoms: C_1  and  C_2
REMARK    2  A    between atoms: C_2  and  C_3
REMARK    3  A    between atoms: C_3  and  C_4
REMARK    4  A    between atoms: C_4  and  S_5
REMARK    5  A    between atoms: S_5  and  C_6
REMARK    6  A    between atoms: C_11  and  C_27
REMARK    7  A    between atoms: C_13  and  C_17
REMARK    8  A    between atoms: C_14  and  C_16
REMARK    9  A    between atoms: N_19  and  C_20
REMARK   10  A    between atoms: C_23  and  C_26
REMARK   11  A    between atoms: C_30  and  C_33
REMARK   12  A    between atoms: C_33  and  C_34
REMARK   13  A    between atoms: C_33  and  C_35
REMARK   14  A    between atoms: C_33  and  C_36
REMARK                            x       y       z     vdW  Elec       q    Type
REMARK                         _______ _______ _______ _____ _____    ______ ____
ROOT
ATOM      1  C   UNL     1      -3.032  -4.458  -0.009  0.00  0.00    +0.210 A 
ATOM      2  N   UNL     1      -1.844  -5.079  -0.040  0.00  0.00    -0.187 NA
ATOM      3  C   UNL     1      -2.026  -6.371  -0.033  0.00  0.00    +0.219 A 
ATOM      4  N   UNL     1      -3.361  -6.608  -0.003  0.00  0.00    -0.220 N 
ATOM      5  N   UNL     1      -3.987  -5.363   0.021  0.00  0.00    -0.141 NA
ATOM      6  C   UNL     1      -3.944  -7.947   0.003  0.00  0.00    +0.177 C 
ATOM      7  C   UNL     1      -2.865  -8.963   0.270  0.00  0.00    +0.060 C 
ATOM      8  C   UNL     1      -1.557  -8.669   0.230  0.00  0.00    +0.018 C 
ATOM      9  N   UNL     1      -1.099  -7.404  -0.050  0.00  0.00    -0.287 N 
ATOM     10  C   UNL     1      -0.556  -9.762   0.502  0.00  0.00    +0.061 C 
ATOM     11  H   UNL     1      -0.165  -7.240  -0.251  0.00  0.00    +0.155 HD
ENDROOT
BRANCH   6  12
ATOM     12  C   UNL     1      -4.576  -8.226  -1.336  0.00  0.00    -0.018 A 
ATOM     13  C   UNL     1      -3.803  -8.209  -2.482  0.00  0.00    +0.006 A 
ATOM     14  C   UNL     1      -4.382  -8.464  -3.711  0.00  0.00    +0.004 A 
ATOM     15  C   UNL     1      -5.735  -8.738  -3.793  0.00  0.00    -0.042 A 
ATOM     16  C   UNL     1      -6.508  -8.756  -2.647  0.00  0.00    +0.004 A 
ATOM     17  C   UNL     1      -5.927  -8.505  -1.418  0.00  0.00    +0.006 A 
BRANCH  15  18
ATOM     18  C   UNL     1      -6.367  -9.016  -5.133  0.00  0.00    -0.013 C 
ATOM     19  C   UNL     1      -5.703 -10.240  -5.766  0.00  0.00    +0.015 C 
ATOM     20  C   UNL     1      -7.861  -9.286  -4.946  0.00  0.00    +0.015 C 
ATOM     21  C   UNL     1      -6.178  -7.803  -6.047  0.00  0.00    +0.015 C 
ENDBRANCH  15  18
ENDBRANCH   6  12
BRANCH   7  22
ATOM     22  C   UNL     1      -3.249 -10.289   0.579  0.00  0.00    +0.248 C 
ATOM     23  O   UNL     1      -3.614 -10.571   1.706  0.00  0.00    -0.270 OA
ATOM     24  N   UNL     1      -3.210 -11.241  -0.375  0.00  0.00    -0.282 N 
ATOM     25  H   UNL     1      -2.840 -11.037  -1.248  0.00  0.00    +0.155 HD
BRANCH  24  26
ATOM     26  C   UNL     1      -3.703 -12.521  -0.105  0.00  0.00    +0.034 A 
ATOM     27  C   UNL     1      -4.684 -12.700   0.861  0.00  0.00    +0.023 A 
ATOM     28  C   UNL     1      -5.169 -13.966   1.125  0.00  0.00    +0.005 A 
ATOM     29  C   UNL     1      -4.678 -15.055   0.428  0.00  0.00    -0.050 A 
ATOM     30  C   UNL     1      -3.700 -14.881  -0.534  0.00  0.00    +0.005 A 
ATOM     31  C   UNL     1      -3.215 -13.617  -0.807  0.00  0.00    +0.023 A 
ATOM     32  C   UNL     1      -5.209 -16.435   0.720  0.00  0.00    +0.044 C 
ENDBRANCH  24  26
ENDBRANCH   7  22
BRANCH   1  33
ATOM     33  S   UNL     1      -3.276  -2.713  -0.003  0.00  0.00    -0.084 S 
BRANCH  33  34
ATOM     34  C   UNL     1      -1.594  -2.035  -0.055  0.00  0.00    +0.077 C 
BRANCH  34  35
ATOM     35  C   UNL     1      -1.660  -0.507  -0.054  0.00  0.00    +0.011 C 
BRANCH  35  37
ATOM     36  C   UNL     1      -0.308   1.594  -0.097  0.00  0.00    +0.004 C 
ATOM     37  C   UNL     1      -0.242   0.065  -0.098  0.00  0.00    -0.003 C 
ENDBRANCH  35  37
ENDBRANCH  34  35
ENDBRANCH  33  34
ENDBRANCH   1  33
TORSDOF 8
