REMARK  Name = ZINC05494772
REMARK  5 active torsions:
REMARK  status: ('A' for Active; 'I' for Inactive)
REMARK    1  A    between atoms: C_1  and  C_2
REMARK    2  A    between atoms: C_3  and  C_4
REMARK    3  A    between atoms: C_7  and  C_16
REMARK    4  A    between atoms: C_9  and  C_15
REMARK    5  A    between atoms: N_11  and  C_14
REMARK                            x       y       z     vdW  Elec       q    Type
REMARK                         _______ _______ _______ _____ _____    ______ ____
ROOT
ATOM      1  C   UNL     1      -0.014   1.212   0.009  0.00  0.00    +0.247 C 
ATOM      2  O   UNL     1       1.039   1.818   0.010  0.00  0.00    -0.270 OA
ATOM      3  N   UNL     1      -1.181   1.887   0.018  0.00  0.00    -0.213 N 
ATOM      4  C   UNL     1      -2.516   1.280   0.119  0.00  0.00    +0.136 C 
ATOM      5  C   UNL     1      -3.474   2.487   0.087  0.00  0.00    +0.099 C 
ATOM      6  N   UNL     1      -2.577   3.645  -0.039  0.00  0.00    -0.283 N 
ATOM      7  C   UNL     1      -1.308   3.217  -0.070  0.00  0.00    +0.312 C 
ATOM      8  O   UNL     1      -0.357   3.969  -0.170  0.00  0.00    -0.252 OA
ATOM      9  C   UNL     1      -3.003   5.045  -0.117  0.00  0.00    +0.134 C 
ATOM     10  C   UNL     1      -4.405   2.395  -1.124  0.00  0.00    +0.030 C 
ENDROOT
BRANCH   4  11
ATOM     11  C   UNL     1      -2.659   0.530   1.418  0.00  0.00    -0.025 A 
ATOM     12  C   UNL     1      -2.100   1.039   2.576  0.00  0.00    +0.005 A 
ATOM     13  C   UNL     1      -2.236   0.354   3.768  0.00  0.00    +0.000 A 
ATOM     14  C   UNL     1      -2.920  -0.847   3.802  0.00  0.00    +0.000 A 
ATOM     15  C   UNL     1      -3.473  -1.359   2.643  0.00  0.00    +0.000 A 
ATOM     16  C   UNL     1      -3.343  -0.671   1.452  0.00  0.00    +0.005 A 
ENDBRANCH   4  11
BRANCH   1  19
ATOM     17  C   UNL     1       1.129  -2.432  -0.106  0.00  0.00    +0.035 C 
ATOM     18  C   UNL     1       1.131  -0.925  -0.100  0.00  0.00    -0.025 C 
ATOM     19  C   UNL     1      -0.016  -0.259   0.003  0.00  0.00    +0.063 C 
ENDBRANCH   1  19
TORSDOF 2
