REMARK  Name = ZINC20738651
REMARK  9 active torsions:
REMARK  status: ('A' for Active; 'I' for Inactive)
REMARK    1  A    between atoms: C_1  and  C_2
REMARK    2  A    between atoms: C_2  and  C_3
REMARK    3  A    between atoms: C_2  and  C_4
REMARK    4  A    between atoms: C_4  and  C_5
REMARK    5  A    between atoms: C_5  and  C_7
REMARK    6  A    between atoms: C_5  and  N_11
REMARK    7  A    between atoms: C_7  and  O_9
REMARK    8  A    between atoms: O_9  and  C_10
REMARK    9  A    between atoms: C_23  and  C_25
REMARK                            x       y       z     vdW  Elec       q    Type
REMARK                         _______ _______ _______ _____ _____    ______ ____
ROOT
ATOM      1  N   UNL     1       1.073  -2.327  -0.681  0.00  0.00    -0.286 N 
ATOM      2  C   UNL     1       0.333  -2.533  -1.789  0.00  0.00    +0.304 C 
ATOM      3  O   UNL     1      -0.880  -2.524  -1.720  0.00  0.00    -0.253 OA
ATOM      4  N   UNL     1       0.939  -2.751  -2.973  0.00  0.00    -0.273 N 
ATOM      5  C   UNL     1       0.156  -2.862  -4.212  0.00  0.00    +0.116 C 
ATOM      6  C   UNL     1       0.522  -1.702  -5.146  0.00  0.00    +0.076 C 
ATOM      7  C   UNL     1       2.022  -1.555  -5.175  0.00  0.00    +0.066 A 
ATOM      8  C   UNL     1       2.857  -2.073  -4.249  0.00  0.00    +0.064 A 
ATOM      9  N   UNL     1       4.123  -1.730  -4.610  0.00  0.00    -0.346 N 
ATOM     10  H   UNL     1       4.940  -1.957  -4.138  0.00  0.00    +0.167 HD
ATOM     11  C   UNL     1       4.027  -1.010  -5.752  0.00  0.00    +0.197 A 
ATOM     12  N   UNL     1       2.765  -0.912  -6.082  0.00  0.00    -0.240 NA
ATOM     13  C   UNL     1       2.406  -2.877  -3.060  0.00  0.00    +0.159 C 
ATOM     14  H   UNL     1       2.039  -2.395  -0.724  0.00  0.00    +0.151 HD
ENDROOT
BRANCH  13  15
ATOM     15  C   UNL     1       2.786  -4.322  -3.248  0.00  0.00    +0.014 A 
ATOM     16  C   UNL     1       3.193  -4.774  -4.490  0.00  0.00    +0.010 A 
ATOM     17  C   UNL     1       3.542  -6.100  -4.663  0.00  0.00    +0.020 A 
ATOM     18  C   UNL     1       3.485  -6.977  -3.594  0.00  0.00    +0.044 A 
ATOM     19  C   UNL     1       3.080  -6.527  -2.351  0.00  0.00    +0.058 A 
ATOM     20  C   UNL     1       2.735  -5.197  -2.176  0.00  0.00    +0.130 A 
ATOM     21  F   UNL     1       2.342  -4.755  -0.962  0.00  0.00    -0.205 F 
ATOM     22 CL   UNL     1       3.924  -8.642  -3.814  0.00  0.00    -0.083 Cl
ENDBRANCH  13  15
BRANCH   1  23
ATOM     23  C   UNL     1       0.417  -1.999   0.587  0.00  0.00    +0.183 C 
BRANCH  23  24
ATOM     24  C   UNL     1       1.376  -1.241   1.468  0.00  0.00    +0.327 C 
ATOM     25  O   UNL     1       2.493  -0.999   1.076  0.00  0.00    -0.249 OA
BRANCH  24  26
ATOM     26  O   UNL     1       0.989  -0.834   2.687  0.00  0.00    -0.467 OA
ATOM     27  C   UNL     1       1.950  -0.121   3.468  0.00  0.00    +0.280 C 
ENDBRANCH  24  26
ENDBRANCH  23  24
BRANCH  23  28
ATOM     28  C   UNL     1      -0.009  -3.290   1.290  0.00  0.00    +0.036 C 
BRANCH  28  30
ATOM     29  C   UNL     1      -1.412  -5.348   1.090  0.00  0.00    +0.007 C 
ATOM     30  C   UNL     1      -1.076  -3.998   0.453  0.00  0.00    -0.015 C 
ATOM     31  C   UNL     1      -2.337  -3.134   0.397  0.00  0.00    +0.007 C 
ENDBRANCH  28  30
ENDBRANCH  23  28
ENDBRANCH   1  23
TORSDOF 6
