REMARK  Name = ZINC40919967
REMARK  13 active torsions:
REMARK  status: ('A' for Active; 'I' for Inactive)
REMARK    1  A    between atoms: C_1  and  C_2
REMARK    2  A    between atoms: C_2  and  O_3
REMARK    3  A    between atoms: O_3  and  C_4
REMARK    4  A    between atoms: C_6  and  C_19
REMARK    5  A    between atoms: C_9  and  O_10
REMARK    6  A    between atoms: O_10  and  C_11
REMARK    7  A    between atoms: C_11  and  C_12
REMARK    8  A    between atoms: C_15  and  C_18
REMARK    9  A    between atoms: C_21  and  C_30
REMARK   10  A    between atoms: C_22  and  C_29
REMARK   11  A    between atoms: N_32  and  C_33
REMARK   12  A    between atoms: C_36  and  C_40
REMARK   13  A    between atoms: C_38  and  C_39
REMARK                            x       y       z     vdW  Elec       q    Type
REMARK                         _______ _______ _______ _____ _____    ______ ____
ROOT
ATOM      1  C   UNL     1       1.353  -5.976   0.572  0.00  0.00    +0.179 C 
ATOM      2  C   UNL     1       0.602  -6.702   1.656  0.00  0.00    +0.060 C 
ATOM      3  C   UNL     1       0.119  -7.944   1.508  0.00  0.00    +0.018 C 
ATOM      4  N   UNL     1       0.283  -8.662   0.347  0.00  0.00    -0.286 N 
ATOM      5  C   UNL     1       1.187  -8.170  -0.583  0.00  0.00    +0.240 A 
ATOM      6  N   UNL     1       1.701  -6.915  -0.489  0.00  0.00    -0.201 N 
ATOM      7  N   UNL     1       2.563  -6.781  -1.575  0.00  0.00    -0.042 NA
ATOM      8  N   UNL     1       2.514  -7.899  -2.224  0.00  0.00    -0.021 NA
ATOM      9  N   UNL     1       1.704  -8.720  -1.645  0.00  0.00    -0.092 NA
ATOM     10  C   UNL     1      -0.630  -8.575   2.653  0.00  0.00    +0.061 C 
ATOM     11  H   UNL     1      -0.212  -9.480   0.186  0.00  0.00    +0.155 HD
ENDROOT
BRANCH   1  14
ATOM     12  C   UNL     1       0.088  -2.550  -0.392  0.00  0.00    +0.162 A 
ATOM     13  C   UNL     1       0.883  -3.560   0.126  0.00  0.00    +0.055 A 
ATOM     14  C   UNL     1       0.488  -4.879   0.008  0.00  0.00    -0.015 A 
ATOM     15  C   UNL     1      -0.700  -5.195  -0.626  0.00  0.00    +0.010 A 
ATOM     16  C   UNL     1      -1.497  -4.192  -1.145  0.00  0.00    +0.050 A 
ATOM     17  C   UNL     1      -1.110  -2.867  -1.025  0.00  0.00    +0.162 A 
BRANCH  12  18
ATOM     18  O   UNL     1       0.475  -1.251  -0.277  0.00  0.00    -0.489 OA
BRANCH  18  20
ATOM     19  C   UNL     1       2.061   0.494   0.251  0.00  0.00    +0.048 C 
ATOM     20  C   UNL     1       1.765  -1.006   0.288  0.00  0.00    +0.226 C 
ENDBRANCH  18  20
ENDBRANCH  12  18
BRANCH  17  21
ATOM     21  O   UNL     1      -1.896  -1.879  -1.530  0.00  0.00    -0.484 OA
BRANCH  21  22
ATOM     22  C   UNL     1      -3.112  -2.278  -2.167  0.00  0.00    +0.264 C 
BRANCH  22  23
ATOM     23  C   UNL     1      -3.845  -1.057  -2.660  0.00  0.00    -0.010 A 
ATOM     24  C   UNL     1      -4.752  -0.416  -1.836  0.00  0.00    +0.007 A 
ATOM     25  C   UNL     1      -5.424   0.704  -2.289  0.00  0.00    +0.004 A 
ATOM     26  C   UNL     1      -5.190   1.182  -3.564  0.00  0.00    -0.050 A 
ATOM     27  C   UNL     1      -4.283   0.541  -4.387  0.00  0.00    +0.004 A 
ATOM     28  C   UNL     1      -3.607  -0.576  -3.933  0.00  0.00    +0.007 A 
ATOM     29  C   UNL     1      -5.924   2.402  -4.058  0.00  0.00    +0.044 C 
ENDBRANCH  22  23
ENDBRANCH  21  22
ENDBRANCH  17  21
ENDBRANCH   1  14
BRANCH   2  30
ATOM     30  C   UNL     1       0.396  -6.043   2.891  0.00  0.00    +0.248 C 
ATOM     31  O   UNL     1       1.311  -5.943   3.688  0.00  0.00    -0.270 OA
ATOM     32  N   UNL     1      -0.813  -5.525   3.185  0.00  0.00    -0.281 N 
ATOM     33  H   UNL     1      -1.560  -5.665   2.583  0.00  0.00    +0.155 HD
BRANCH  32  34
ATOM     34  C   UNL     1      -0.990  -4.784   4.358  0.00  0.00    +0.037 A 
ATOM     35  C   UNL     1       0.109  -4.239   5.010  0.00  0.00    +0.024 A 
ATOM     36  C   UNL     1      -0.070  -3.509   6.168  0.00  0.00    +0.005 A 
ATOM     37  C   UNL     1      -1.341  -3.319   6.678  0.00  0.00    -0.050 A 
ATOM     38  C   UNL     1      -2.437  -3.860   6.032  0.00  0.00    +0.008 A 
ATOM     39  C   UNL     1      -2.266  -4.587   4.870  0.00  0.00    -0.029 A 
ATOM     40  C   UNL     1      -3.461  -5.172   4.164  0.00  0.00    +0.045 C 
ATOM     41  C   UNL     1      -1.532  -2.520   7.942  0.00  0.00    +0.044 C 
ENDBRANCH  32  34
ENDBRANCH   2  30
TORSDOF 8
