REMARK  Name = ZINC36063114
REMARK  13 active torsions:
REMARK  status: ('A' for Active; 'I' for Inactive)
REMARK    1  A    between atoms: C_1  and  C_2
REMARK    2  A    between atoms: C_2  and  O_3
REMARK    3  A    between atoms: O_3  and  C_4
REMARK    4  A    between atoms: C_4  and  C_6
REMARK    5  A    between atoms: C_7  and  C_32
REMARK    6  A    between atoms: C_11  and  C_13
REMARK    7  A    between atoms: C_20  and  C_23
REMARK    8  A    between atoms: C_24  and  N_26
REMARK    9  A    between atoms: N_26  and  C_27
REMARK   10  A    between atoms: C_27  and  C_28
REMARK   11  A    between atoms: C_28  and  N_29
REMARK   12  A    between atoms: N_29  and  C_30
REMARK   13  A    between atoms: N_29  and  C_31
REMARK                            x       y       z     vdW  Elec       q    Type
REMARK                         _______ _______ _______ _____ _____    ______ ____
ROOT
ATOM      1  C   UNL     1      -2.941  -2.491  -0.510  0.00  0.00    +0.087 C 
ATOM      2  C   UNL     1      -3.187  -3.821  -0.169  0.00  0.00    +0.086 C 
ATOM      3  N   UNL     1      -4.359  -4.171   0.359  0.00  0.00    -0.224 NA
ATOM      4  C   UNL     1      -5.349  -3.340   0.600  0.00  0.00    +0.166 C 
ATOM      5  N   UNL     1      -5.306  -1.999   0.337  0.00  0.00    -0.267 N 
ATOM      6  C   UNL     1      -4.040  -1.486  -0.252  0.00  0.00    +0.150 C 
ATOM      7  C   UNL     1      -6.433  -1.263   0.649  0.00  0.00    +0.048 C 
ATOM      8  C   UNL     1      -7.483  -1.922   1.187  0.00  0.00    +0.072 C 
ATOM      9  S   UNL     1      -6.875  -3.595   1.251  0.00  0.00    -0.060 S 
ENDROOT
BRANCH   6  10
ATOM     10  C   UNL     1      -4.380  -0.823  -1.562  0.00  0.00    -0.022 A 
ATOM     11  C   UNL     1      -5.135  -1.499  -2.502  0.00  0.00    +0.007 A 
ATOM     12  C   UNL     1      -5.446  -0.891  -3.704  0.00  0.00    +0.020 A 
ATOM     13  C   UNL     1      -5.003   0.393  -3.966  0.00  0.00    +0.041 A 
ATOM     14  C   UNL     1      -4.247   1.068  -3.024  0.00  0.00    +0.020 A 
ATOM     15  C   UNL     1      -3.941   0.462  -1.820  0.00  0.00    +0.007 A 
ATOM     16 CL   UNL     1      -5.393   1.155  -5.476  0.00  0.00    -0.084 Cl
ENDBRANCH   6  10
BRANCH   2  17
ATOM     17  C   UNL     1      -2.143  -4.847  -0.395  0.00  0.00    +0.001 A 
ATOM     18  C   UNL     1      -0.939  -4.787   0.306  0.00  0.00    +0.010 A 
ATOM     19  C   UNL     1       0.029  -5.746   0.091  0.00  0.00    +0.001 A 
ATOM     20  C   UNL     1      -0.192  -6.765  -0.818  0.00  0.00    +0.000 A 
ATOM     21  C   UNL     1      -1.384  -6.830  -1.517  0.00  0.00    +0.001 A 
ATOM     22  C   UNL     1      -2.363  -5.881  -1.306  0.00  0.00    +0.010 A 
ENDBRANCH   2  17
BRANCH   7  23
ATOM     23  C   UNL     1      -6.486   0.186   0.407  0.00  0.00    +0.091 C 
ATOM     24  C   UNL     1      -7.630   0.863   0.625  0.00  0.00    +0.239 C 
ATOM     25  O   UNL     1      -8.699   0.231   1.167  0.00  0.00    -0.271 OA
BRANCH  24  26
ATOM     26  N   UNL     1      -7.713   2.205   0.295  0.00  0.00    -0.314 N 
ATOM     27  H   UNL     1      -6.976   2.639  -0.161  0.00  0.00    +0.149 HD
BRANCH  26  28
ATOM     28  C   UNL     1      -8.916   2.970   0.634  0.00  0.00    +0.086 C 
BRANCH  28  29
ATOM     29  C   UNL     1      -8.804   4.381   0.055  0.00  0.00    -0.061 C 
BRANCH  29  30
ATOM     30  N   UNL     1     -10.010   5.148   0.395  0.00  0.00    +0.377 N 
ATOM     31  C   UNL     1      -9.851   6.537  -0.056  0.00  0.00    -0.097 C 
ATOM     32  C   UNL     1     -11.175   4.548  -0.269  0.00  0.00    -0.097 C 
ATOM     33  H   UNL     1     -10.147   5.133   1.395  0.00  0.00    -0.083 HD
ENDBRANCH  29  30
ENDBRANCH  28  29
ENDBRANCH  26  28
ENDBRANCH  24  26
ENDBRANCH   7  23
BRANCH   1  34
ATOM     34  C   UNL     1      -1.721  -2.102  -1.065  0.00  0.00    +0.339 C 
ATOM     35  O   UNL     1      -0.893  -2.943  -1.369  0.00  0.00    -0.245 OA
BRANCH  34  36
ATOM     36  O   UNL     1      -1.458  -0.791  -1.266  0.00  0.00    -0.462 OA
BRANCH  36  38
ATOM     37  C   UNL     1      -0.074   1.054  -1.988  0.00  0.00    +0.048 C 
ATOM     38  C   UNL     1      -0.190  -0.464  -1.838  0.00  0.00    +0.229 C 
ENDBRANCH  36  38
ENDBRANCH  34  36
ENDBRANCH   1  34
TORSDOF 10
