REMARK  Name = ZINC39987207
REMARK  4 active torsions:
REMARK  status: ('A' for Active; 'I' for Inactive)
REMARK    1  A    between atoms: C_4  and  C_7
REMARK    2  A    between atoms: C_17  and  C_19
REMARK    3  A    between atoms: C_22  and  C_25
REMARK    4  A    between atoms: C_30  and  C_32
REMARK                            x       y       z     vdW  Elec       q    Type
REMARK                         _______ _______ _______ _____ _____    ______ ____
ROOT
ATOM      1  C   UNL     1       3.391  -0.614   0.105  0.00  0.00    -0.014 C 
ATOM      2  C   UNL     1       4.588   0.107   0.066  0.00  0.00    +0.002 A 
ATOM      3  C   UNL     1       4.579   1.515  -0.016  0.00  0.00    +0.030 A 
ATOM      4  C   UNL     1       5.759   2.192  -0.052  0.00  0.00    +0.042 A 
ATOM      5  C   UNL     1       6.980   1.522  -0.010  0.00  0.00    +0.022 A 
ATOM      6  C   UNL     1       7.052   0.165   0.069  0.00  0.00    +0.025 A 
ATOM      7  C   UNL     1       5.872  -0.600   0.111  0.00  0.00    +0.041 A 
ATOM      8  N   UNL     1       5.946  -1.933   0.189  0.00  0.00    -0.284 N 
ATOM      9  C   UNL     1       4.888  -2.719   0.232  0.00  0.00    +0.230 C 
ATOM     10  O   UNL     1       5.030  -3.926   0.302  0.00  0.00    -0.274 OA
ATOM     11  C   UNL     1       3.499  -2.124   0.200  0.00  0.00    +0.152 C 
ATOM     12 CL   UNL     1       5.742   3.925  -0.154  0.00  0.00    -0.084 Cl
ATOM     13  H   UNL     1       6.824  -2.344   0.216  0.00  0.00    +0.155 HD
ENDROOT
BRANCH  11  14
ATOM     14  C   UNL     1       2.775  -2.715  -0.982  0.00  0.00    +0.056 C 
ATOM     15  N   UNL     1       2.267  -2.048  -1.936  0.00  0.00    -0.184 NA
ATOM     16  N   UNL     1       1.648  -2.821  -2.916  0.00  0.00    -0.178 N 
ATOM     17  C   UNL     1       1.768  -4.240  -2.543  0.00  0.00    +0.173 C 
ATOM     18  C   UNL     1       2.549  -4.192  -1.214  0.00  0.00    +0.086 C 
ATOM     19  C   UNL     1       1.039  -2.348  -4.021  0.00  0.00    +0.266 C 
ATOM     20  O   UNL     1       0.430  -3.106  -4.752  0.00  0.00    -0.268 OA
BRANCH  19  21
ATOM     21  C   UNL     1       1.111  -0.909  -4.346  0.00  0.00    +0.039 A 
ATOM     22  C   UNL     1       1.941  -0.064  -3.604  0.00  0.00    +0.016 A 
ATOM     23  C   UNL     1       2.005   1.278  -3.912  0.00  0.00    +0.039 A 
ATOM     24  C   UNL     1       1.248   1.790  -4.955  0.00  0.00    +0.123 A 
ATOM     25  C   UNL     1       0.422   0.956  -5.693  0.00  0.00    +0.039 A 
ATOM     26  C   UNL     1       0.355  -0.389  -5.399  0.00  0.00    +0.016 A 
ATOM     27  F   UNL     1       1.314   3.106  -5.251  0.00  0.00    -0.205 F 
ENDBRANCH  19  21
BRANCH  17  28
ATOM     28  C   UNL     1       2.545  -5.000  -3.587  0.00  0.00    +0.128 A 
ATOM     29  C   UNL     1       2.279  -6.247  -4.013  0.00  0.00    +0.046 A 
ATOM     30  C   UNL     1       3.251  -6.564  -4.989  0.00  0.00    +0.041 A 
ATOM     31  C   UNL     1       4.054  -5.490  -5.101  0.00  0.00    +0.195 A 
ATOM     32  O   UNL     1       3.619  -4.544  -4.253  0.00  0.00    -0.466 OA
ENDBRANCH  17  28
ENDBRANCH  11  14
BRANCH   1  36
ATOM     33  C   UNL     1      -0.328   1.312  -0.018  0.00  0.00    +0.000 A 
ATOM     34  C   UNL     1      -0.104   0.307   0.909  0.00  0.00    +0.001 A 
ATOM     35  C   UNL     1       1.115  -0.332   0.958  0.00  0.00    +0.008 A 
ATOM     36  C   UNL     1       2.132   0.038   0.063  0.00  0.00    -0.020 A 
ATOM     37  C   UNL     1       1.895   1.058  -0.873  0.00  0.00    +0.008 A 
ATOM     38  C   UNL     1       0.669   1.685  -0.905  0.00  0.00    +0.001 A 
ENDBRANCH   1  36
TORSDOF 4
