REMARK  Name = ZINC63486529
REMARK  8 active torsions:
REMARK  status: ('A' for Active; 'I' for Inactive)
REMARK    1  A    between atoms: C_1  and  C_2
REMARK    2  A    between atoms: C_6  and  C_11
REMARK    3  A    between atoms: C_12  and  O_14
REMARK    4  A    between atoms: O_14  and  C_15
REMARK    5  A    between atoms: C_15  and  C_16
REMARK    6  A    between atoms: N_18  and  C_19
REMARK    7  A    between atoms: C_19  and  C_20
REMARK    8  A    between atoms: C_20  and  C_21
REMARK                            x       y       z     vdW  Elec       q    Type
REMARK                         _______ _______ _______ _____ _____    ______ ____
ROOT
ATOM      1  C   UNL     1       0.388  -2.899   4.771  0.00  0.00    +0.251 C 
ATOM      2  O   UNL     1       0.307  -4.099   4.617  0.00  0.00    -0.272 OA
ATOM      3  N   UNL     1       0.483  -2.384   6.013  0.00  0.00    -0.312 N 
ATOM      4  H   UNL     1       0.548  -1.424   6.137  0.00  0.00    +0.149 HD
ENDROOT
BRANCH   1   5
ATOM      5  C   UNL     1       0.383  -1.983   3.575  0.00  0.00    +0.324 C 
BRANCH   5   6
ATOM      6  O   UNL     1       0.274  -2.760   2.381  0.00  0.00    -0.482 OA
BRANCH   6  18
ATOM      7  C   UNL     1       0.411   1.493  -0.002  0.00  0.00    +0.044 C 
ATOM      8  C   UNL     1       0.319  -0.012  -0.007  0.00  0.00    -0.043 A 
ATOM      9  C   UNL     1       0.216  -0.685  -1.208  0.00  0.00    +0.050 A 
ATOM     10  C   UNL     1       0.131  -2.070  -1.225  0.00  0.00    +0.143 A 
ATOM     11  C   UNL     1       0.150  -2.779  -0.010  0.00  0.00    +0.062 A 
ATOM     12  C   UNL     1       0.059  -4.239  -0.039  0.00  0.00    -0.030 A 
ATOM     13  C   UNL     1      -0.041  -4.852  -1.247  0.00  0.00    +0.096 A 
ATOM     14  C   UNL     1      -0.054  -4.079  -2.426  0.00  0.00    +0.337 A 
ATOM     15  O   UNL     1      -0.145  -4.641  -3.503  0.00  0.00    -0.245 OA
ATOM     16  O   UNL     1       0.029  -2.740  -2.393  0.00  0.00    -0.422 OA
ATOM     17  C   UNL     1       0.077  -5.041   1.237  0.00  0.00    +0.045 C 
ATOM     18  C   UNL     1       0.255  -2.084   1.204  0.00  0.00    +0.132 A 
ATOM     19  C   UNL     1       0.345  -0.703   1.193  0.00  0.00    +0.050 A 
ENDBRANCH   6  18
ENDBRANCH   5   6
ENDBRANCH   1   5
BRANCH   3  20
ATOM     20  C   UNL     1       0.488  -3.275   7.177  0.00  0.00    +0.108 C 
BRANCH  20  21
ATOM     21  C   UNL     1       0.605  -2.442   8.455  0.00  0.00    +0.052 C 
BRANCH  21  22
ATOM     22  C   UNL     1       0.610  -3.358   9.652  0.00  0.00    -0.040 C 
ATOM     23  C   UNL     1       1.694  -3.839  10.303  0.00  0.00    +0.002 A 
ATOM     24  C   UNL     1       3.136  -3.660  10.099  0.00  0.00    +0.048 A 
ATOM     25  C   UNL     1       4.000  -4.285  10.934  0.00  0.00    +0.124 A 
ATOM     26  C   UNL     1       3.550  -5.098  11.986  0.00  0.00    +0.040 A 
ATOM     27  C   UNL     1       2.241  -5.310  12.235  0.00  0.00    +0.029 A 
ATOM     28  C   UNL     1       1.246  -4.701  11.420  0.00  0.00    +0.043 A 
ATOM     29  N   UNL     1      -0.063  -4.751  11.458  0.00  0.00    -0.380 N 
ATOM     30  C   UNL     1      -0.595  -3.920  10.372  0.00  0.00    +0.144 C 
ATOM     31  F   UNL     1       5.328  -4.123  10.748  0.00  0.00    -0.205 F 
ATOM     32  H   UNL     1      -0.592  -5.251  12.100  0.00  0.00    +0.160 HD
ENDBRANCH  21  22
ENDBRANCH  20  21
ENDBRANCH   3  20
TORSDOF 6
