REMARK  Name = ZINC11204441
REMARK  5 active torsions:
REMARK  status: ('A' for Active; 'I' for Inactive)
REMARK    1  A    between atoms: C_1  and  C_2
REMARK    2  A    between atoms: C_8  and  C_10
REMARK    3  A    between atoms: C_11  and  C_24
REMARK    4  A    between atoms: N_12  and  C_23
REMARK    5  A    between atoms: C_16  and  C_18
REMARK                            x       y       z     vdW  Elec       q    Type
REMARK                         _______ _______ _______ _____ _____    ______ ____
ROOT
ATOM      1  C   UNL     1       1.915   1.488  -0.193  0.00  0.00    +0.057 C 
ATOM      2  C   UNL     1       0.608   1.695   0.075  0.00  0.00    +0.019 C 
ATOM      3  N   UNL     1      -0.246   0.648   0.269  0.00  0.00    -0.289 N 
ATOM      4  C   UNL     1       0.128  -0.636   0.211  0.00  0.00    +0.137 C 
ATOM      5  S   UNL     1      -1.047  -1.853   0.474  0.00  0.00    -0.018 S 
ATOM      6  N   UNL     1       1.399  -1.002  -0.047  0.00  0.00    -0.315 N 
ATOM      7  C   UNL     1       2.400   0.054  -0.271  0.00  0.00    +0.146 C 
ATOM      8  C   UNL     1      -1.653   0.947   0.550  0.00  0.00    +0.137 C 
ATOM      9  C   UNL     1       0.085   3.106   0.162  0.00  0.00    +0.061 C 
ATOM     10  H   UNL     1       1.648  -1.939  -0.084  0.00  0.00    +0.149 HD
ENDROOT
BRANCH   1  18
ATOM     11  C   UNL     1       6.119   6.910  -0.724  0.00  0.00    +0.089 C 
ATOM     12  C   UNL     1       5.877   5.423  -0.702  0.00  0.00    +0.136 A 
ATOM     13  C   UNL     1       4.682   4.801  -0.581  0.00  0.00    +0.091 A 
ATOM     14  C   UNL     1       5.010   3.419  -0.618  0.00  0.00    +0.168 A 
ATOM     15  N   UNL     1       6.309   3.356  -0.746  0.00  0.00    -0.063 NA
ATOM     16  O   UNL     1       6.803   4.458  -0.799  0.00  0.00    -0.358 OA
ATOM     17  N   UNL     1       4.124   2.346  -0.530  0.00  0.00    -0.264 N 
ATOM     18  C   UNL     1       2.803   2.573  -0.394  0.00  0.00    +0.249 C 
ATOM     19  O   UNL     1       2.372   3.710  -0.444  0.00  0.00    -0.270 OA
ATOM     20  H   UNL     1       4.459   1.437  -0.566  0.00  0.00    +0.157 HD
ENDBRANCH   1  18
BRANCH   7  21
ATOM     21  C   UNL     1       3.002  -0.158  -1.636  0.00  0.00    +0.015 A 
ATOM     22  C   UNL     1       4.306  -0.274  -1.986  0.00  0.00    +0.013 A 
ATOM     23  C   UNL     1       4.630  -0.468  -3.315  0.00  0.00    +0.008 A 
ATOM     24  C   UNL     1       3.633  -0.537  -4.231  0.00  0.00    +0.045 A 
ATOM     25  S   UNL     1       2.181  -0.332  -3.212  0.00  0.00    -0.099 S 
ENDBRANCH   7  21
TORSDOF 2
