REMARK  Name = ZINC20106541
REMARK  8 active torsions:
REMARK  status: ('A' for Active; 'I' for Inactive)
REMARK    1  A    between atoms: C_1  and  C_2
REMARK    2  A    between atoms: C_2  and  O_3
REMARK    3  A    between atoms: O_3  and  C_4
REMARK    4  A    between atoms: C_7  and  N_10
REMARK    5  A    between atoms: C_11  and  C_13
REMARK    6  A    between atoms: N_24  and  C_36
REMARK    7  A    between atoms: C_25  and  C_27
REMARK    8  A    between atoms: N_29  and  C_30
REMARK                            x       y       z     vdW  Elec       q    Type
REMARK                         _______ _______ _______ _____ _____    ______ ____
ROOT
ATOM      1  C   UNL     1       0.067   1.226   0.001  0.00  0.00    +0.123 C 
ATOM      2  C   UNL     1       1.572   1.632  -0.109  0.00  0.00    +0.155 C 
ATOM      3  C   UNL     1       1.611   3.153  -0.297  0.00  0.00    +0.004 C 
ATOM      4  C   UNL     1       1.292   3.708   0.879  0.00  0.00    +0.009 C 
ATOM      5  C   UNL     1       1.022   2.540   1.758  0.00  0.00    +0.127 C 
ATOM      6  C   UNL     1      -0.353   1.924   1.308  0.00  0.00    +0.128 C 
ATOM      7  C   UNL     1      -0.641   0.998   2.455  0.00  0.00    +0.224 C 
ATOM      8  O   UNL     1      -1.331   0.003   2.398  0.00  0.00    -0.275 OA
ATOM      9  N   UNL     1      -0.006   1.451   3.566  0.00  0.00    -0.283 N 
ATOM     10  C   UNL     1       0.856   2.614   3.244  0.00  0.00    +0.199 C 
ATOM     11  O   UNL     1       1.966   1.531   1.308  0.00  0.00    -0.358 OA
ENDROOT
BRANCH   9  12
ATOM     12  C   UNL     1      -0.152   0.870   4.903  0.00  0.00    +0.077 C 
ATOM     13  C   UNL     1       0.292  -0.594   4.874  0.00  0.00    +0.022 C 
ATOM     14  C   UNL     1       0.139  -1.202   6.269  0.00  0.00    +0.002 C 
ATOM     15  C   UNL     1      -1.326  -1.122   6.703  0.00  0.00    +0.000 C 
ATOM     16  C   UNL     1      -1.770   0.342   6.732  0.00  0.00    +0.002 C 
ATOM     17  C   UNL     1      -1.617   0.949   5.336  0.00  0.00    +0.022 C 
ENDBRANCH   9  12
BRANCH   1  19
ATOM     18  N   UNL     1      -0.455   1.312  -2.415  0.00  0.00    -0.285 N 
ATOM     19  C   UNL     1      -0.721   1.755  -1.170  0.00  0.00    +0.224 C 
ATOM     20  O   UNL     1      -1.594   2.578  -0.992  0.00  0.00    -0.275 OA
ATOM     21  H   UNL     1       0.392   0.632  -2.588  0.00  0.00    +0.155 HD
BRANCH  18  25
ATOM     22  C   UNL     1      -2.844   2.521  -5.612  0.00  0.00    +0.121 A 
ATOM     23  C   UNL     1      -1.491   2.288  -5.807  0.00  0.00    +0.047 A 
ATOM     24  C   UNL     1      -0.699   1.887  -4.749  0.00  0.00    +0.027 A 
ATOM     25  C   UNL     1      -1.258   1.719  -3.489  0.00  0.00    +0.034 A 
ATOM     26  C   UNL     1      -2.614   1.947  -3.295  0.00  0.00    +0.027 A 
ATOM     27  C   UNL     1      -3.403   2.353  -4.353  0.00  0.00    +0.047 A 
BRANCH  22  28
ATOM     28  O   UNL     1      -3.624   2.915  -6.654  0.00  0.00    -0.492 OA
BRANCH  28  30
ATOM     29  C   UNL     1      -5.718   3.572  -7.665  0.00  0.00    +0.048 C 
ATOM     30  C   UNL     1      -5.008   3.138  -6.381  0.00  0.00    +0.225 C 
ENDBRANCH  28  30
ENDBRANCH  22  28
ENDBRANCH  18  25
ENDBRANCH   1  19
BRANCH  10  31
ATOM     31  C   UNL     1       0.179   3.902   3.636  0.00  0.00    +0.237 C 
ATOM     32  O   UNL     1      -1.007   3.911   3.889  0.00  0.00    -0.274 OA
ATOM     33  N   UNL     1       0.892   5.043   3.707  0.00  0.00    -0.311 N 
ATOM     34  H   UNL     1       1.968   5.035   3.478  0.00  0.00    +0.149 HD
BRANCH  33  35
ATOM     35  C   UNL     1       0.234   6.295   4.088  0.00  0.00    +0.073 C 
ATOM     36  C   UNL     1      -0.397   6.938   2.851  0.00  0.00    +0.022 C 
ATOM     37  C   UNL     1      -1.084   8.245   3.249  0.00  0.00    +0.002 C 
ATOM     38  C   UNL     1      -0.052   9.202   3.850  0.00  0.00    +0.000 C 
ATOM     39  C   UNL     1       0.579   8.559   5.087  0.00  0.00    +0.002 C 
ATOM     40  C   UNL     1       1.266   7.252   4.689  0.00  0.00    +0.022 C 
ENDBRANCH  33  35
ENDBRANCH  10  31
TORSDOF 7
