REMARK  Name = ZINC33914913
REMARK  9 active torsions:
REMARK  status: ('A' for Active; 'I' for Inactive)
REMARK    1  A    between atoms: C_1  and  C_2
REMARK    2  A    between atoms: C_2  and  C_3
REMARK    3  A    between atoms: C_7  and  C_41
REMARK    4  A    between atoms: C_8  and  N_9
REMARK    5  A    between atoms: C_14  and  C_32
REMARK    6  A    between atoms: C_17  and  C_22
REMARK    7  A    between atoms: C_17  and  C_29
REMARK    8  A    between atoms: C_22  and  C_23
REMARK    9  A    between atoms: C_41  and  C_42
REMARK                            x       y       z     vdW  Elec       q    Type
REMARK                         _______ _______ _______ _____ _____    ______ ____
ROOT
ATOM      1  N   UNL     1      -1.312  -0.338   2.505  0.00  0.00    -0.209 N 
ATOM      2  C   UNL     1      -1.788   0.909   2.825  0.00  0.00    +0.232 C 
ATOM      3  O   UNL     1      -1.167   1.950   2.866  0.00  0.00    -0.274 OA
ATOM      4  C   UNL     1      -3.189   0.709   3.101  0.00  0.00    +0.114 C 
ATOM      5  C   UNL     1      -4.454   1.461   3.166  0.00  0.00    +0.134 C 
ATOM      6  N   UNL     1      -5.469   0.359   3.287  0.00  0.00    -0.291 NA
ATOM      7  C   UNL     1      -4.861  -0.886   2.732  0.00  0.00    +0.138 C 
ATOM      8  C   UNL     1      -3.558  -0.424   2.062  0.00  0.00    +0.121 C 
ATOM      9  C   UNL     1      -2.311  -1.239   2.267  0.00  0.00    +0.232 C 
ATOM     10  O   UNL     1      -2.213  -2.447   2.231  0.00  0.00    -0.274 OA
ATOM     11  H   UNL     1      -5.748   0.228   4.248  0.00  0.00    +0.124 HD
ENDROOT
BRANCH   5  12
ATOM     12  C   UNL     1      -4.484   2.358   4.377  0.00  0.00    +0.124 A 
ATOM     13  C   UNL     1      -4.234   3.674   4.364  0.00  0.00    +0.055 A 
ATOM     14  C   UNL     1      -4.377   4.132   5.751  0.00  0.00    +0.020 A 
ATOM     15  C   UNL     1      -4.250   5.365   6.389  0.00  0.00    +0.011 A 
ATOM     16  C   UNL     1      -4.455   5.455   7.738  0.00  0.00    +0.001 A 
ATOM     17  C   UNL     1      -4.788   4.327   8.474  0.00  0.00    +0.004 A 
ATOM     18  C   UNL     1      -4.918   3.099   7.861  0.00  0.00    +0.047 A 
ATOM     19  C   UNL     1      -4.715   2.986   6.491  0.00  0.00    +0.135 A 
ATOM     20  O   UNL     1      -4.772   1.953   5.627  0.00  0.00    -0.458 OA
ENDBRANCH   5  12
BRANCH   1  26
ATOM     21  C   UNL     1       0.731  -0.503   1.223  0.00  0.00    -0.026 A 
ATOM     22  C   UNL     1       2.076  -0.808   1.149  0.00  0.00    +0.005 A 
ATOM     23  C   UNL     1       2.746  -1.266   2.268  0.00  0.00    +0.001 A 
ATOM     24  C   UNL     1       2.071  -1.420   3.466  0.00  0.00    +0.005 A 
ATOM     25  C   UNL     1       0.726  -1.117   3.546  0.00  0.00    -0.026 A 
ATOM     26  C   UNL     1       0.052  -0.652   2.425  0.00  0.00    +0.050 A 
BRANCH  21  28
ATOM     27  C   UNL     1      -0.019   1.526   0.010  0.00  0.00    +0.009 C 
ATOM     28  C   UNL     1       0.002  -0.004   0.002  0.00  0.00    +0.033 C 
ENDBRANCH  21  28
BRANCH  25  29
ATOM     29  C   UNL     1      -0.008  -1.285   4.851  0.00  0.00    +0.033 C 
ATOM     30  C   UNL     1      -0.689  -2.655   4.881  0.00  0.00    +0.009 C 
ENDBRANCH  25  29
ENDBRANCH   1  26
BRANCH   7  31
ATOM     31  C   UNL     1      -5.774  -1.499   1.702  0.00  0.00    +0.377 C 
ATOM     32  O   UNL     1      -6.850  -0.981   1.456  0.00  0.00    -0.244 OA
ATOM     33  O   UNL     1      -5.436  -2.513   1.114  0.00  0.00    -0.244 OA
ENDBRANCH   7  31
BRANCH   7  34
ATOM     34  C   UNL     1      -4.582  -1.886   3.856  0.00  0.00    +0.069 C 
BRANCH  34  35
ATOM     35  C   UNL     1      -5.878  -2.263   4.526  0.00  0.00    -0.045 A 
ATOM     36  C   UNL     1      -6.340  -1.528   5.601  0.00  0.00    +0.004 A 
ATOM     37  C   UNL     1      -7.529  -1.873   6.215  0.00  0.00    +0.000 A 
ATOM     38  C   UNL     1      -8.256  -2.955   5.754  0.00  0.00    +0.000 A 
ATOM     39  C   UNL     1      -7.795  -3.690   4.678  0.00  0.00    +0.000 A 
ATOM     40  C   UNL     1      -6.608  -3.341   4.061  0.00  0.00    +0.004 A 
ENDBRANCH  34  35
ENDBRANCH   7  34
TORSDOF 7
