REMARK  Name = ZINC39980439
REMARK  4 active torsions:
REMARK  status: ('A' for Active; 'I' for Inactive)
REMARK    1  A    between atoms: C_6  and  C_7
REMARK    2  A    between atoms: C_7  and  C_9
REMARK    3  A    between atoms: C_9  and  S_10
REMARK    4  A    between atoms: S_10  and  C_11
REMARK                            x       y       z     vdW  Elec       q    Type
REMARK                         _______ _______ _______ _____ _____    ______ ____
ROOT
ATOM      1  S   UNL     1      -3.931  -1.236   0.035  0.00  0.00    -0.080 S 
ENDROOT
BRANCH   1   2
ATOM      2  C   UNL     1      -5.384  -0.240   0.054  0.00  0.00    +0.170 A 
ATOM      3  N   UNL     1      -6.610  -0.839   0.069  0.00  0.00    -0.301 N 
ATOM      4  C   UNL     1      -7.743  -0.112   0.084  0.00  0.00    +0.261 A 
ATOM      5  C   UNL     1      -7.652   1.316   0.084  0.00  0.00    +0.075 A 
ATOM      6  C   UNL     1      -8.742   2.294   0.097  0.00  0.00    -0.023 A 
ATOM      7  C   UNL     1      -8.394   3.597   0.095  0.00  0.00    -0.004 A 
ATOM      8  S   UNL     1      -6.622   3.601   0.075  0.00  0.00    -0.073 S 
ATOM      9  C   UNL     1      -6.351   1.847   0.069  0.00  0.00    +0.117 A 
ATOM     10  N   UNL     1      -5.272   1.073   0.060  0.00  0.00    -0.216 NA
ATOM     11  C   UNL     1      -9.312   4.782   0.105  0.00  0.00    +0.043 C 
ATOM     12  C   UNL     1     -10.725   4.303  -0.257  0.00  0.00    +0.005 C 
ATOM     13  C   UNL     1     -11.053   3.065   0.583  0.00  0.00    +0.005 C 
ATOM     14  C   UNL     1     -10.210   1.879   0.113  0.00  0.00    +0.037 C 
ATOM     15  O   UNL     1      -8.830  -0.662   0.096  0.00  0.00    -0.267 OA
ATOM     16  H   UNL     1      -6.667  -1.807   0.068  0.00  0.00    +0.171 HD
ENDBRANCH   1   2
BRANCH   1  17
ATOM     17  C   UNL     1      -2.574  -0.032   0.027  0.00  0.00    +0.157 C 
BRANCH  17  18
ATOM     18  C   UNL     1      -1.255  -0.761   0.010  0.00  0.00    +0.175 C 
ATOM     19  O   UNL     1      -1.233  -1.974   0.004  0.00  0.00    -0.291 OA
BRANCH  18  25
ATOM     20  C   UNL     1      -0.017   1.397   0.010  0.00  0.00    +0.018 A 
ATOM     21  C   UNL     1       1.153   2.093   0.002  0.00  0.00    -0.017 A 
ATOM     22  C   UNL     1       2.382   1.435  -0.013  0.00  0.00    +0.038 A 
ATOM     23  C   UNL     1       2.408   0.038  -0.021  0.00  0.00    +0.044 A 
ATOM     24  C   UNL     1       1.232  -0.677  -0.014  0.00  0.00    +0.053 A 
ATOM     25  C   UNL     1       0.002  -0.004   0.002  0.00  0.00    +0.037 A 
ATOM     26 CL   UNL     1       1.272  -2.412  -0.024  0.00  0.00    -0.083 Cl
ATOM     27  N   UNL     1       3.421   2.358  -0.018  0.00  0.00    -0.285 N 
ATOM     28  C   UNL     1       2.979   3.627  -0.007  0.00  0.00    +0.222 C 
ATOM     29  O   UNL     1       3.663   4.628  -0.008  0.00  0.00    -0.275 OA
ATOM     30  C   UNL     1       1.466   3.572   0.007  0.00  0.00    +0.133 C 
ATOM     31  H   UNL     1       4.359   2.114  -0.028  0.00  0.00    +0.155 HD
ENDBRANCH  18  25
ENDBRANCH  17  18
ENDBRANCH   1  17
TORSDOF 4
