REMARK  Name = ZINC21944510
REMARK  5 active torsions:
REMARK  status: ('A' for Active; 'I' for Inactive)
REMARK    1  A    between atoms: C_1  and  C_2
REMARK    2  A    between atoms: C_2  and  O_3
REMARK    3  A    between atoms: O_3  and  C_4
REMARK    4  A    between atoms: C_4  and  C_6
REMARK    5  A    between atoms: C_6  and  N_7
REMARK                            x       y       z     vdW  Elec       q    Type
REMARK                         _______ _______ _______ _____ _____    ______ ____
ROOT
ATOM      1  N   UNL     1      -1.097   9.252   3.591  0.00  0.00    -0.289 N 
ATOM      2  C   UNL     1      -0.760   9.277   2.286  0.00  0.00    +0.303 C 
ATOM      3  O   UNL     1      -0.682  10.339   1.699  0.00  0.00    -0.253 OA
ATOM      4  N   UNL     1      -0.511   8.126   1.632  0.00  0.00    -0.285 N 
ATOM      5  C   UNL     1      -0.490   6.846   2.353  0.00  0.00    +0.112 C 
ATOM      6  C   UNL     1       0.839   6.139   2.064  0.00  0.00    +0.051 C 
ATOM      7  C   UNL     1       1.030   6.018   0.553  0.00  0.00    +0.075 C 
ATOM      8  C   UNL     1       1.073   7.409  -0.080  0.00  0.00    +0.051 C 
ATOM      9  C   UNL     1      -0.254   8.128   0.185  0.00  0.00    +0.112 C 
ATOM     10  C   UNL     1       2.312   5.283   0.256  0.00  0.00    +0.047 A 
ATOM     11  C   UNL     1       3.565   5.746   0.189  0.00  0.00    +0.025 A 
ATOM     12  C   UNL     1       4.408   4.646  -0.087  0.00  0.00    +0.020 A 
ATOM     13  C   UNL     1       3.625   3.548  -0.183  0.00  0.00    +0.092 A 
ATOM     14  N   UNL     1       2.340   3.927   0.012  0.00  0.00    -0.316 N 
ATOM     15  C   UNL     1       1.161   3.166   0.006  0.00  0.00    +0.067 A 
ATOM     16  C   UNL     1       1.186   1.785  -0.000  0.00  0.00    +0.028 A 
ATOM     17  C   UNL     1      -0.002   1.076   0.012  0.00  0.00    +0.002 A 
ATOM     18  C   UNL     1      -1.211   1.747   0.025  0.00  0.00    +0.002 A 
ATOM     19  C   UNL     1      -1.244   3.129   0.029  0.00  0.00    +0.025 A 
ATOM     20  C   UNL     1      -0.060   3.849   0.007  0.00  0.00    +0.052 A 
ATOM     21  N   UNL     1      -0.081   5.249  -0.025  0.00  0.00    -0.331 N 
ATOM     22  H   UNL     1      -1.089   8.300   4.143  0.00  0.00    +0.151 HD
ATOM     23  H   UNL     1      -0.932   5.773  -0.485  0.00  0.00    +0.147 HD
ENDROOT
BRANCH   1  24
ATOM     24  C   UNL     1      -1.475  10.492   4.274  0.00  0.00    +0.226 C 
BRANCH  24  25
ATOM     25  C   UNL     1      -1.803  10.191   5.714  0.00  0.00    +0.324 C 
ATOM     26  O   UNL     1      -1.729   9.058   6.127  0.00  0.00    -0.249 OA
BRANCH  25  27
ATOM     27  O   UNL     1      -2.177  11.183   6.538  0.00  0.00    -0.464 OA
BRANCH  27  29
ATOM     28  C   UNL     1      -2.883  12.073   8.692  0.00  0.00    +0.048 C 
ATOM     29  C   UNL     1      -2.478  10.821   7.912  0.00  0.00    +0.229 C 
ENDBRANCH  27  29
ENDBRANCH  25  27
ENDBRANCH  24  25
ENDBRANCH   1  24
TORSDOF 4
