REMARK  Name = ZINC09376373
REMARK  8 active torsions:
REMARK  status: ('A' for Active; 'I' for Inactive)
REMARK    1  A    between atoms: C_1  and  C_2
REMARK    2  A    between atoms: C_7  and  S_15
REMARK    3  A    between atoms: S_15  and  C_16
REMARK    4  A    between atoms: C_16  and  C_18
REMARK    5  A    between atoms: C_16  and  C_19
REMARK    6  A    between atoms: N_21  and  C_22
REMARK    7  A    between atoms: C_25  and  N_32
REMARK    8  A    between atoms: C_27  and  C_28
REMARK                            x       y       z     vdW  Elec       q    Type
REMARK                         _______ _______ _______ _____ _____    ______ ____
ROOT
ATOM      1  C   UNL     1      -2.169   5.799   0.036  0.00  0.00    +0.137 C 
ATOM      2  C   UNL     1      -1.797   6.493  -1.276  0.00  0.00    +0.029 C 
ENDROOT
BRANCH   1   3
ATOM      3  C   UNL     1      -3.669   5.777   0.185  0.00  0.00    +0.230 C 
ATOM      4  O   UNL     1      -4.291   4.772  -0.087  0.00  0.00    -0.274 OA
ATOM      5  N   UNL     1      -4.319   6.875   0.620  0.00  0.00    -0.284 N 
ATOM      6  H   UNL     1      -3.817   7.651   0.913  0.00  0.00    +0.155 HD
BRANCH   5   7
ATOM      7  C   UNL     1      -5.718   6.894   0.649  0.00  0.00    +0.045 A 
ATOM      8  C   UNL     1      -6.442   6.069  -0.202  0.00  0.00    +0.026 A 
ATOM      9  C   UNL     1      -7.823   6.091  -0.171  0.00  0.00    +0.034 A 
ATOM     10  C   UNL     1      -8.483   6.932   0.706  0.00  0.00    +0.127 A 
ATOM     11  C   UNL     1      -7.765   7.755   1.554  0.00  0.00    +0.047 A 
ATOM     12  C   UNL     1      -6.384   7.734   1.531  0.00  0.00    +0.078 A 
BRANCH  12  13
ATOM     13  C   UNL     1      -5.601   8.627   2.460  0.00  0.00    +0.419 C 
ATOM     14  F   UNL     1      -6.486   9.373   3.245  0.00  0.00    -0.166 F 
ATOM     15  F   UNL     1      -4.790   7.842   3.287  0.00  0.00    -0.166 F 
ATOM     16  F   UNL     1      -4.800   9.493   1.708  0.00  0.00    -0.166 F 
ENDBRANCH  12  13
BRANCH  10  17
ATOM     17  N   UNL     1      -9.963   6.952   0.737  0.00  0.00    +0.056 N 
ATOM     18  O   UNL     1     -10.598   6.228  -0.009  0.00  0.00    -0.126 OA
ATOM     19  O   UNL     1     -10.546   7.692   1.508  0.00  0.00    -0.126 OA
ENDBRANCH  10  17
ENDBRANCH   5   7
ENDBRANCH   1   3
BRANCH   1  20
ATOM     20  S   UNL     1      -1.540   4.102   0.020  0.00  0.00    -0.073 S 
BRANCH  20  27
ATOM     21  C   UNL     1       4.989   1.450  -0.100  0.00  0.00    +0.044 C 
ATOM     22  C   UNL     1       3.663   2.166  -0.074  0.00  0.00    -0.038 A 
ATOM     23  C   UNL     1       3.614   3.518  -0.068  0.00  0.00    +0.052 A 
ATOM     24  C   UNL     1       2.369   4.189  -0.045  0.00  0.00    +0.162 A 
ATOM     25  N   UNL     1       2.049   5.470  -0.036  0.00  0.00    -0.129 NA
ATOM     26  N   UNL     1       0.770   5.600  -0.014  0.00  0.00    -0.122 NA
ATOM     27  C   UNL     1       0.193   4.419  -0.008  0.00  0.00    +0.197 A 
ATOM     28  N   UNL     1       1.187   3.484  -0.027  0.00  0.00    -0.270 N 
ATOM     29  C   UNL     1       1.186   2.100  -0.032  0.00  0.00    +0.058 A 
ATOM     30  C   UNL     1       2.409   1.406  -0.055  0.00  0.00    +0.002 A 
ATOM     31  C   UNL     1       2.415   0.009  -0.060  0.00  0.00    +0.010 A 
ATOM     32  C   UNL     1       1.222  -0.679  -0.043  0.00  0.00    +0.001 A 
ATOM     33  C   UNL     1       0.017   0.007  -0.020  0.00  0.00    +0.002 A 
ATOM     34  C   UNL     1      -0.005   1.387  -0.014  0.00  0.00    +0.027 A 
ENDBRANCH  20  27
ENDBRANCH   1  20
TORSDOF 6
