REMARK  Name = ZINC21254505
REMARK  12 active torsions:
REMARK  status: ('A' for Active; 'I' for Inactive)
REMARK    1  A    between atoms: C_1  and  C_2
REMARK    2  A    between atoms: C_2  and  O_3
REMARK    3  A    between atoms: O_3  and  C_4
REMARK    4  A    between atoms: C_6  and  C_11
REMARK    5  A    between atoms: C_9  and  O_10
REMARK    6  A    between atoms: C_16  and  C_21
REMARK    7  A    between atoms: C_24  and  O_29
REMARK    8  A    between atoms: C_25  and  O_27
REMARK    9  A    between atoms: O_27  and  C_28
REMARK   10  A    between atoms: O_29  and  C_30
REMARK   11  A    between atoms: C_30  and  C_31
REMARK   12  A    between atoms: C_30  and  C_32
REMARK                            x       y       z     vdW  Elec       q    Type
REMARK                         _______ _______ _______ _____ _____    ______ ____
ROOT
ATOM      1  C   UNL     1       0.395  -2.281   1.936  0.00  0.00    +0.136 C 
ATOM      2  C   UNL     1       1.874  -1.998   2.065  0.00  0.00    +0.036 C 
ATOM      3  C   UNL     1       2.491  -0.860   1.713  0.00  0.00    +0.017 C 
ATOM      4  C   UNL     1       3.988  -0.698   1.931  0.00  0.00    +0.059 C 
ATOM      5  C   UNL     1       4.686  -2.046   1.764  0.00  0.00    +0.032 C 
ATOM      6  C   UNL     1       4.100  -3.008   2.804  0.00  0.00    +0.088 C 
ATOM      7  C   UNL     1       2.614  -3.073   2.610  0.00  0.00    +0.163 C 
ATOM      8  O   UNL     1       2.025  -4.086   2.933  0.00  0.00    -0.292 OA
ATOM      9  N   UNL     1       1.885   0.220   1.154  0.00  0.00    -0.316 N 
ATOM     10  C   UNL     1       0.705   0.792   1.615  0.00  0.00    +0.052 A 
ATOM     11  C   UNL     1       0.649   2.092   2.086  0.00  0.00    +0.025 A 
ATOM     12  C   UNL     1      -0.574   2.626   2.458  0.00  0.00    +0.002 A 
ATOM     13  C   UNL     1      -1.725   1.866   2.358  0.00  0.00    +0.002 A 
ATOM     14  C   UNL     1      -1.665   0.558   1.909  0.00  0.00    +0.025 A 
ATOM     15  C   UNL     1      -0.441   0.014   1.553  0.00  0.00    +0.049 A 
ATOM     16  N   UNL     1      -0.330  -1.312   1.142  0.00  0.00    -0.331 N 
ATOM     17  H   UNL     1       2.329   0.704   0.272  0.00  0.00    +0.152 HD
ATOM     18  H   UNL     1      -0.803  -1.618   0.198  0.00  0.00    +0.147 HD
ENDROOT
BRANCH   1  21
ATOM     19  C   UNL     1      -1.270  -3.527   5.090  0.00  0.00    +0.162 A 
ATOM     20  C   UNL     1      -0.717  -3.496   3.820  0.00  0.00    +0.055 A 
ATOM     21  C   UNL     1      -0.206  -2.314   3.318  0.00  0.00    -0.019 A 
ATOM     22  C   UNL     1      -0.238  -1.163   4.083  0.00  0.00    +0.009 A 
ATOM     23  C   UNL     1      -0.793  -1.186   5.349  0.00  0.00    +0.049 A 
ATOM     24  C   UNL     1      -1.308  -2.367   5.858  0.00  0.00    +0.158 A 
BRANCH  24  25
ATOM     25  O   UNL     1      -1.850  -2.393   7.105  0.00  0.00    -0.503 OA
ATOM     26  H   UNL     1      -1.879  -1.475   7.711  0.00  0.00    +0.292 HD
ENDBRANCH  24  25
BRANCH  19  27
ATOM     27  O   UNL     1      -1.774  -4.689   5.585  0.00  0.00    -0.489 OA
BRANCH  27  29
ATOM     28  C   UNL     1      -2.313  -7.042   5.464  0.00  0.00    +0.048 C 
ATOM     29  C   UNL     1      -1.701  -5.840   4.741  0.00  0.00    +0.226 C 
ENDBRANCH  27  29
ENDBRANCH  19  27
ENDBRANCH   1  21
BRANCH   5  30
ATOM     30  C   UNL     1       6.167  -1.888   1.992  0.00  0.00    -0.040 A 
ATOM     31  C   UNL     1       6.630  -1.392   3.197  0.00  0.00    +0.008 A 
ATOM     32  C   UNL     1       7.987  -1.244   3.412  0.00  0.00    +0.050 A 
ATOM     33  C   UNL     1       8.888  -1.594   2.419  0.00  0.00    +0.162 A 
ATOM     34  C   UNL     1       8.422  -2.094   1.206  0.00  0.00    +0.162 A 
ATOM     35  C   UNL     1       7.060  -2.244   0.999  0.00  0.00    +0.053 A 
BRANCH  34  36
ATOM     36  O   UNL     1       9.302  -2.438   0.228  0.00  0.00    -0.491 OA
ATOM     37  C   UNL     1       8.753  -2.944  -0.990  0.00  0.00    +0.277 C 
ENDBRANCH  34  36
BRANCH  33  38
ATOM     38  O   UNL     1      10.224  -1.450   2.628  0.00  0.00    -0.486 OA
BRANCH  38  39
ATOM     39  C   UNL     1      10.625  -0.819   3.846  0.00  0.00    +0.167 C 
ATOM     40  C   UNL     1      10.693  -1.863   4.963  0.00  0.00    +0.051 C 
ATOM     41  C   UNL     1      12.003  -0.180   3.660  0.00  0.00    +0.051 C 
ENDBRANCH  38  39
ENDBRANCH  33  38
ENDBRANCH   5  30
TORSDOF 8
