REMARK  Name = ZINC12131782
REMARK  10 active torsions:
REMARK  status: ('A' for Active; 'I' for Inactive)
REMARK    1  A    between atoms: C_1  and  C_2
REMARK    2  A    between atoms: C_2  and  C_3
REMARK    3  A    between atoms: C_6  and  C_9
REMARK    4  A    between atoms: C_9  and  N_64
REMARK    5  A    between atoms: C_11  and  N_20
REMARK    6  A    between atoms: C_14  and  C_16
REMARK    7  A    between atoms: C_16  and  O_18
REMARK    8  A    between atoms: O_18  and  C_19
REMARK    9  A    between atoms: C_21  and  C_23
REMARK   10  A    between atoms: C_33  and  N_66
REMARK                            x       y       z     vdW  Elec       q    Type
REMARK                         _______ _______ _______ _____ _____    ______ ____
ROOT
ATOM      1  C   UNL     1       1.146   1.944  -1.489  0.00  0.00    -0.055 C 
ATOM      2  C   UNL     1       1.071   1.651   0.030  0.00  0.00    +0.055 C 
ATOM      3  C   UNL     1       2.219   0.623   0.208  0.00  0.00    +0.016 C 
ATOM      4  C   UNL     1       3.285   1.116  -0.793  0.00  0.00    +0.045 C 
ATOM      5  N   UNL     1       2.591   1.945  -1.792  0.00  0.00    +0.392 N 
ATOM      6  H   UNL     1       2.947   2.907  -1.742  0.00  0.00    -0.080 HD
ENDROOT
BRANCH   2   7
ATOM      7  N   UNL     1      -0.221   1.061   0.388  0.00  0.00    -0.316 N 
ATOM      8  C   UNL     1      -1.237   1.853   0.785  0.00  0.00    +0.200 C 
ATOM      9  O   UNL     1      -1.079   3.054   0.851  0.00  0.00    -0.278 OA
ATOM     10  H   UNL     1      -0.347   0.101   0.336  0.00  0.00    +0.149 HD
BRANCH   8  11
ATOM     11  C   UNL     1      -2.568   1.247   1.147  0.00  0.00    +0.024 C 
ATOM     12  C   UNL     1      -2.615   0.972   2.651  0.00  0.00    +0.029 C 
ATOM     13  C   UNL     1      -4.016   0.596   3.061  0.00  0.00    -0.047 A 
ATOM     14  C   UNL     1      -4.202  -0.027   4.286  0.00  0.00    +0.004 A 
ATOM     15  C   UNL     1      -5.468  -0.385   4.702  0.00  0.00    +0.000 A 
ATOM     16  C   UNL     1      -6.558  -0.120   3.893  0.00  0.00    +0.000 A 
ATOM     17  C   UNL     1      -6.374   0.499   2.673  0.00  0.00    +0.002 A 
ATOM     18  C   UNL     1      -5.102   0.858   2.253  0.00  0.00    -0.061 A 
ATOM     19  C   UNL     1      -4.951   1.523   0.910  0.00  0.00    -0.042 C 
ATOM     20  C   UNL     1      -3.449   2.754  -0.534  0.00  0.00    -0.095 C 
ATOM     21  N   UNL     1      -3.648   2.203   0.825  0.00  0.00    +0.388 N 
ATOM     22  H   UNL     1      -3.627   2.974   1.503  0.00  0.00    -0.081 HD
ENDBRANCH   8  11
ENDBRANCH   2   7
BRANCH   4  23
ATOM     23  C   UNL     1       3.952  -0.062  -1.454  0.00  0.00    +0.293 C 
ATOM     24  O   UNL     1       3.292  -0.857  -2.081  0.00  0.00    -0.253 OA
BRANCH  23  25
ATOM     25  O   UNL     1       5.280  -0.230  -1.346  0.00  0.00    -0.469 OA
ATOM     26  C   UNL     1       5.854  -1.387  -2.009  0.00  0.00    +0.280 C 
ENDBRANCH  23  25
ENDBRANCH   4  23
BRANCH   5  27
ATOM     27  C   UNL     1       2.828   1.409  -3.157  0.00  0.00    -0.042 C 
BRANCH  27  31
ATOM     28  C   UNL     1       0.644   3.741  -5.992  0.00  0.00    -0.048 A 
ATOM     29  C   UNL     1       1.935   4.098  -5.652  0.00  0.00    +0.004 A 
ATOM     30  C   UNL     1       2.642   3.343  -4.735  0.00  0.00    +0.002 A 
ATOM     31  C   UNL     1       2.058   2.232  -4.157  0.00  0.00    -0.064 A 
ATOM     32  C   UNL     1       0.768   1.872  -4.502  0.00  0.00    +0.002 A 
ATOM     33  C   UNL     1       0.060   2.629  -5.416  0.00  0.00    +0.004 A 
BRANCH  28  35
ATOM     34  C   UNL     1       0.122   4.021  -8.400  0.00  0.00    +0.009 C 
ATOM     35  C   UNL     1      -0.127   4.565  -6.992  0.00  0.00    +0.032 C 
ENDBRANCH  28  35
ENDBRANCH  27  31
ENDBRANCH   5  27
TORSDOF 7
