REMARK  Name = ZINC09242703
REMARK  3 active torsions:
REMARK  status: ('A' for Active; 'I' for Inactive)
REMARK    1  A    between atoms: C_1  and  C_2
REMARK    2  A    between atoms: C_22  and  C_30
REMARK    3  A    between atoms: C_30  and  C_32
REMARK                            x       y       z     vdW  Elec       q    Type
REMARK                         _______ _______ _______ _____ _____    ______ ____
ROOT
ATOM      1  C   UNL     1       0.048   1.582   0.175  0.00  0.00    +0.045 C 
ATOM      2  C   UNL     1       0.034   0.076   0.125  0.00  0.00    -0.029 A 
ATOM      3  C   UNL     1      -0.007  -0.572  -1.093  0.00  0.00    +0.005 A 
ATOM      4  C   UNL     1      -0.020  -1.954  -1.149  0.00  0.00    +0.001 A 
ATOM      5  C   UNL     1       0.007  -2.691   0.022  0.00  0.00    +0.004 A 
ATOM      6  C   UNL     1       0.047  -2.048   1.239  0.00  0.00    -0.026 A 
ATOM      7  C   UNL     1       0.067  -0.659   1.308  0.00  0.00    +0.039 A 
ATOM      8  N   UNL     1       0.115  -0.243   2.640  0.00  0.00    -0.286 N 
ATOM      9  C   UNL     1       0.138  -1.281   3.496  0.00  0.00    +0.212 C 
ATOM     10  O   UNL     1       0.180  -1.218   4.707  0.00  0.00    -0.277 OA
ATOM     11  C   UNL     1       0.086  -2.537   2.663  0.00  0.00    +0.060 C 
ATOM     12  C   UNL     1      -1.137  -3.384   2.991  0.00  0.00    +0.085 C 
ATOM     13  C   UNL     1      -1.757  -2.994   4.303  0.00  0.00    -0.011 A 
ATOM     14  C   UNL     1      -1.283  -2.935   5.595  0.00  0.00    +0.006 A 
ATOM     15  C   UNL     1      -2.116  -2.525   6.620  0.00  0.00    +0.000 A 
ATOM     16  C   UNL     1      -3.426  -2.176   6.344  0.00  0.00    +0.002 A 
ATOM     17  C   UNL     1      -3.905  -2.233   5.052  0.00  0.00    +0.023 A 
ATOM     18  C   UNL     1      -3.072  -2.644   4.014  0.00  0.00    +0.038 A 
ATOM     19  N   UNL     1      -3.319  -2.782   2.646  0.00  0.00    -0.285 N 
ATOM     20  C   UNL     1      -2.233  -3.211   1.975  0.00  0.00    +0.228 C 
ATOM     21  O   UNL     1      -2.154  -3.417   0.782  0.00  0.00    -0.275 OA
ATOM     22  C   UNL     1      -0.631  -4.834   3.022  0.00  0.00    +0.066 C 
ATOM     23  C   UNL     1       0.858  -4.688   3.378  0.00  0.00    -0.055 C 
ATOM     24  N   UNL     1       1.287  -3.354   2.899  0.00  0.00    +0.395 N 
ATOM     25  C   UNL     1       1.958  -3.579   1.592  0.00  0.00    -0.076 C 
ATOM     26  C   UNL     1       2.680  -4.936   1.768  0.00  0.00    -0.020 C 
ATOM     27  C   UNL     1       1.686  -5.755   2.651  0.00  0.00    -0.016 C 
ATOM     28  H   UNL     1       0.132   0.687   2.916  0.00  0.00    +0.155 HD
ATOM     29  H   UNL     1      -4.173  -2.591   2.228  0.00  0.00    +0.155 HD
ATOM     30  H   UNL     1       1.901  -2.911   3.565  0.00  0.00    -0.079 HD
ENDROOT
BRANCH  22  31
ATOM     31  C   UNL     1      -1.358  -5.626   4.079  0.00  0.00    +0.166 C 
ATOM     32  O   UNL     1      -0.891  -5.719   5.194  0.00  0.00    -0.292 OA
BRANCH  31  33
ATOM     33  C   UNL     1      -2.632  -6.286   3.757  0.00  0.00    +0.018 A 
ATOM     34  C   UNL     1      -3.107  -6.282   2.430  0.00  0.00    +0.012 A 
ATOM     35  C   UNL     1      -4.279  -6.884   2.110  0.00  0.00    +0.009 A 
ATOM     36  C   UNL     1      -5.039  -7.524   3.107  0.00  0.00    -0.018 A 
ATOM     37  C   UNL     1      -6.255  -8.154   2.798  0.00  0.00    +0.008 A 
ATOM     38  C   UNL     1      -6.969  -8.766   3.783  0.00  0.00    +0.001 A 
ATOM     39  C   UNL     1      -6.511  -8.778   5.099  0.00  0.00    +0.001 A 
ATOM     40  C   UNL     1      -5.338  -8.178   5.438  0.00  0.00    +0.008 A 
ATOM     41  C   UNL     1      -4.573  -7.536   4.447  0.00  0.00    -0.017 A 
ATOM     42  C   UNL     1      -3.356  -6.914   4.761  0.00  0.00    +0.020 A 
ENDBRANCH  31  33
ENDBRANCH  22  31
TORSDOF 2
