REMARK  Name = ZINC05720922
REMARK  14 active torsions:
REMARK  status: ('A' for Active; 'I' for Inactive)
REMARK    1  A    between atoms: C_1  and  C_2
REMARK    2  A    between atoms: C_6  and  C_27
REMARK    3  A    between atoms: C_6  and  C_28
REMARK    4  A    between atoms: C_13  and  C_15
REMARK    5  A    between atoms: C_15  and  C_16
REMARK    6  A    between atoms: C_16  and  C_17
REMARK    7  A    between atoms: C_21  and  C_22
REMARK    8  A    between atoms: C_22  and  N_70
REMARK    9  A    between atoms: C_23  and  C_24
REMARK   10  A    between atoms: C_23  and  C_25
REMARK   11  A    between atoms: C_23  and  C_26
REMARK   12  A    between atoms: C_23  and  N_70
REMARK   13  A    between atoms: C_28  and  O_30
REMARK   14  A    between atoms: O_30  and  C_31
REMARK                            x       y       z     vdW  Elec       q    Type
REMARK                         _______ _______ _______ _____ _____    ______ ____
ROOT
ATOM      1  C   UNL     1       4.933   1.843  -1.419  0.00  0.00    +0.012 C 
ATOM      2  C   UNL     1       3.988   1.259  -0.357  0.00  0.00    -0.022 C 
ATOM      3  C   UNL     1       4.344   1.848   1.004  0.00  0.00    +0.007 C 
ATOM      4  C   UNL     1       4.078   3.355   1.007  0.00  0.00    +0.002 C 
ATOM      5  C   UNL     1       2.611   3.634   0.712  0.00  0.00    +0.018 C 
ATOM      6  C   UNL     1       2.168   3.021  -0.614  0.00  0.00    +0.068 C 
ATOM      7  C   UNL     1       2.522   1.535  -0.681  0.00  0.00    +0.012 C 
ATOM      8  C   UNL     1       1.603   0.792   0.297  0.00  0.00    +0.009 C 
ATOM      9  C   UNL     1       1.850  -0.718   0.300  0.00  0.00    +0.031 C 
ATOM     10  C   UNL     1       3.321  -0.950   0.563  0.00  0.00    -0.073 C 
ATOM     11  C   UNL     1       3.737  -1.708   1.540  0.00  0.00    +0.008 C 
ATOM     12  C   UNL     1       4.270  -0.252  -0.378  0.00  0.00    +0.021 C 
ATOM     13  C   UNL     1       2.731   3.826  -1.786  0.00  0.00    +0.023 C 
ENDROOT
BRANCH   6  14
ATOM     14  C   UNL     1       0.656   3.189  -0.701  0.00  0.00    +0.313 C 
ATOM     15  O   UNL     1       0.045   3.653   0.233  0.00  0.00    -0.250 OA
BRANCH  14  16
ATOM     16  O   UNL     1       0.002   2.816  -1.812  0.00  0.00    -0.468 OA
ATOM     17  C   UNL     1      -1.438   2.999  -1.822  0.00  0.00    +0.280 C 
ENDBRANCH  14  16
ENDBRANCH   6  14
BRANCH  12  18
ATOM     18  C   UNL     1       5.717  -0.539   0.009  0.00  0.00    +0.013 C 
BRANCH  18  19
ATOM     19  C   UNL     1       6.011  -2.028  -0.186  0.00  0.00    +0.039 C 
BRANCH  19  20
ATOM     20  C   UNL     1       7.473  -2.290   0.074  0.00  0.00    -0.008 A 
ATOM     21  C   UNL     1       8.504  -2.343  -0.892  0.00  0.00    +0.045 A 
ATOM     22  C   UNL     1       9.646  -2.599  -0.229  0.00  0.00    +0.195 A 
ATOM     23  O   UNL     1       9.363  -2.703   1.080  0.00  0.00    -0.469 OA
ATOM     24  C   UNL     1       8.047  -2.511   1.270  0.00  0.00    +0.091 A 
BRANCH  24  25
ATOM     25  C   UNL     1       7.335  -2.542   2.598  0.00  0.00    -0.006 C 
BRANCH  25  26
ATOM     26  N   UNL     1       6.888  -3.920   2.875  0.00  0.00    +0.387 N 
ATOM     27  H   UNL     1       7.705  -4.541   2.903  0.00  0.00    -0.085 HD
ATOM     28  H   UNL     1       6.251  -4.226   2.130  0.00  0.00    -0.085 HD
BRANCH  26  29
ATOM     29  C   UNL     1       6.187  -3.980   4.171  0.00  0.00    -0.076 C 
ATOM     30  C   UNL     1       4.964  -3.061   4.137  0.00  0.00    -0.011 C 
ATOM     31  C   UNL     1       5.736  -5.419   4.431  0.00  0.00    -0.011 C 
ATOM     32  C   UNL     1       7.130  -3.531   5.288  0.00  0.00    -0.011 C 
ENDBRANCH  26  29
ENDBRANCH  25  26
ENDBRANCH  24  25
ENDBRANCH  19  20
ENDBRANCH  18  19
ENDBRANCH  12  18
TORSDOF 8
