REMARK  Name = ZINC39945906
REMARK  15 active torsions:
REMARK  status: ('A' for Active; 'I' for Inactive)
REMARK    1  A    between atoms: C_1  and  C_2
REMARK    2  A    between atoms: C_6  and  C_13
REMARK    3  A    between atoms: C_6  and  O_14
REMARK    4  A    between atoms: C_7  and  C_12
REMARK    5  A    between atoms: C_9  and  C_11
REMARK    6  A    between atoms: O_14  and  C_15
REMARK    7  A    between atoms: C_15  and  C_39
REMARK    8  A    between atoms: C_16  and  C_37
REMARK    9  A    between atoms: C_16  and  O_38
REMARK   10  A    between atoms: C_17  and  C_36
REMARK   11  A    between atoms: C_18  and  C_35
REMARK   12  A    between atoms: C_21  and  C_24
REMARK   13  A    between atoms: C_31  and  C_32
REMARK   14  A    between atoms: C_31  and  O_33
REMARK   15  A    between atoms: O_33  and  C_34
REMARK                            x       y       z     vdW  Elec       q    Type
REMARK                         _______ _______ _______ _____ _____    ______ ____
ROOT
ATOM      1  C   UNL     1       3.498  -2.188  -1.904  0.00  0.00    +0.154 C 
ATOM      2  C   UNL     1       5.004  -1.966  -2.086  0.00  0.00    +0.128 C 
ATOM      3  C   UNL     1       5.729  -2.552  -0.874  0.00  0.00    +0.132 C 
ATOM      4  C   UNL     1       5.382  -4.042  -0.769  0.00  0.00    +0.125 C 
ATOM      5  C   UNL     1       6.142  -4.633   0.419  0.00  0.00    +0.201 C 
ATOM      6  O   UNL     1       7.539  -4.372   0.235  0.00  0.00    -0.344 OA
ATOM      7  C   UNL     1       7.866  -2.989   0.092  0.00  0.00    +0.283 C 
ATOM      8  O   UNL     1       7.145  -2.424  -1.009  0.00  0.00    -0.335 OA
ATOM      9  O   UNL     1       3.973  -4.177  -0.598  0.00  0.00    -0.335 OA
ATOM     10  C   UNL     1       3.217  -3.678  -1.707  0.00  0.00    +0.199 C 
ATOM     11  C   UNL     1       1.725  -3.882  -1.437  0.00  0.00    +0.077 C 
ATOM     12  C   UNL     1       5.808  -4.757  -2.053  0.00  0.00    +0.047 C 
ATOM     13  C   UNL     1       5.270  -1.829   0.394  0.00  0.00    +0.048 C 
ATOM     14  C   UNL     1       5.295  -0.467  -2.184  0.00  0.00    +0.047 C 
ATOM     15  C   UNL     1       2.757  -1.690  -3.146  0.00  0.00    +0.050 C 
ENDROOT
BRANCH   7  16
ATOM     16  C   UNL     1       7.499  -2.255   1.356  0.00  0.00    +0.008 A 
ATOM     17  C   UNL     1       7.085  -2.961   2.470  0.00  0.00    +0.008 A 
ATOM     18  C   UNL     1       6.749  -2.288   3.629  0.00  0.00    +0.000 A 
ATOM     19  C   UNL     1       6.826  -0.909   3.675  0.00  0.00    +0.000 A 
ATOM     20  C   UNL     1       7.241  -0.202   2.562  0.00  0.00    +0.000 A 
ATOM     21  C   UNL     1       7.582  -0.876   1.403  0.00  0.00    +0.008 A 
ENDBRANCH   7  16
BRANCH  10  22
ATOM     22  O   UNL     1       3.584  -4.391  -2.890  0.00  0.00    -0.350 OA
ATOM     23  C   UNL     1       3.262  -5.782  -2.854  0.00  0.00    +0.197 C 
ENDBRANCH  10  22
BRANCH   2  24
ATOM     24  O   UNL     1       5.447  -2.624  -3.275  0.00  0.00    -0.383 OA
ATOM     25  H   UNL     1       5.014  -2.311  -4.081  0.00  0.00    +0.210 HD
ENDBRANCH   2  24
BRANCH   1  26
ATOM     26  O   UNL     1       3.045  -1.463  -0.758  0.00  0.00    -0.334 OA
BRANCH  26  31
ATOM     27  C   UNL     1      -0.451   0.973  -2.238  0.00  0.00    +0.010 C 
ATOM     28  C   UNL     1      -0.120  -0.195  -1.307  0.00  0.00    +0.015 C 
ATOM     29  C   UNL     1       0.583  -1.299  -2.100  0.00  0.00    +0.166 C 
ATOM     30  O   UNL     1       0.942  -2.364  -1.218  0.00  0.00    -0.348 OA
ATOM     31  C   UNL     1       1.846  -1.981  -0.179  0.00  0.00    +0.171 C 
ATOM     32  C   UNL     1       1.193  -0.904   0.692  0.00  0.00    +0.048 C 
ATOM     33  C   UNL     1       0.806   0.289  -0.187  0.00  0.00    -0.001 C 
ATOM     34  C   UNL     1       0.081   1.337   0.660  0.00  0.00    +0.008 C 
ATOM     35  C   UNL     1       2.181  -0.449   1.768  0.00  0.00    +0.013 C 
ATOM     36  C   UNL     1       2.180  -3.200   0.682  0.00  0.00    +0.074 C 
ENDBRANCH  26  31
ENDBRANCH   1  26
TORSDOF 5
