REMARK  Name = ZINC36533574
REMARK  15 active torsions:
REMARK  status: ('A' for Active; 'I' for Inactive)
REMARK    1  A    between atoms: C_2  and  C_3
REMARK    2  A    between atoms: C_3  and  O_4
REMARK    3  A    between atoms: O_4  and  C_5
REMARK    4  A    between atoms: N_7  and  C_8
REMARK    5  A    between atoms: C_10  and  O_39
REMARK    6  A    between atoms: C_12  and  O_22
REMARK    7  A    between atoms: C_14  and  C_20
REMARK    8  A    between atoms: C_17  and  O_19
REMARK    9  A    between atoms: C_20  and  O_21
REMARK   10  A    between atoms: O_22  and  C_23
REMARK   11  A    between atoms: C_25  and  O_38
REMARK   12  A    between atoms: C_27  and  O_37
REMARK   13  A    between atoms: C_29  and  O_36
REMARK   14  A    between atoms: C_31  and  C_34
REMARK   15  A    between atoms: C_34  and  O_35
REMARK                            x       y       z     vdW  Elec       q    Type
REMARK                         _______ _______ _______ _____ _____    ______ ____
ROOT
ATOM      1  C   UNL     1      -3.262  -4.942  -1.617  0.00  0.00    +0.163 C 
ATOM      2  C   UNL     1      -3.469  -5.079  -3.128  0.00  0.00    +0.171 C 
ATOM      3  C   UNL     1      -2.278  -5.832  -3.729  0.00  0.00    +0.183 C 
ATOM      4  C   UNL     1      -2.141  -7.190  -3.037  0.00  0.00    +0.178 C 
ATOM      5  O   UNL     1      -1.983  -6.992  -1.630  0.00  0.00    -0.341 OA
ATOM      6  C   UNL     1      -3.088  -6.335  -1.004  0.00  0.00    +0.271 C 
ENDROOT
BRANCH   1   9
ATOM      7  C   UNL     1      -2.166  -2.802  -1.226  0.00  0.00    +0.401 C 
ATOM      8  O   UNL     1      -3.250  -2.262  -1.324  0.00  0.00    -0.226 OA
ATOM      9  N   UNL     1      -2.065  -4.140  -1.356  0.00  0.00    -0.271 N 
ATOM     10  H   UNL     1      -1.200  -4.571  -1.278  0.00  0.00    +0.153 HD
BRANCH   7  11
ATOM     11  O   UNL     1      -1.065  -2.064  -0.987  0.00  0.00    -0.446 OA
BRANCH  11  12
ATOM     12  C   UNL     1      -1.246  -0.652  -0.860  0.00  0.00    +0.261 C 
BRANCH  12  14
ATOM     13  C   UNL     1       0.421   1.090  -1.245  0.00  0.00    +0.007 C 
ATOM     14  C   UNL     1       0.086   0.003  -0.596  0.00  0.00    +0.006 C 
ENDBRANCH  12  14
ENDBRANCH  11  12
ENDBRANCH   7  11
ENDBRANCH   1   9
BRANCH   6  15
ATOM     15  O   UNL     1      -4.277  -7.099  -1.212  0.00  0.00    -0.365 OA
ATOM     16  H   UNL     1      -4.238  -7.995  -0.850  0.00  0.00    +0.213 HD
ENDBRANCH   6  15
BRANCH   2  17
ATOM     17  O   UNL     1      -3.562  -3.780  -3.717  0.00  0.00    -0.387 OA
ATOM     18  H   UNL     1      -4.293  -3.245  -3.377  0.00  0.00    +0.210 HD
ENDBRANCH   2  17
BRANCH   4  19
ATOM     19  C   UNL     1      -0.917  -7.923  -3.590  0.00  0.00    +0.190 C 
BRANCH  19  20
ATOM     20  O   UNL     1      -0.852  -9.234  -3.024  0.00  0.00    -0.392 OA
ATOM     21  H   UNL     1      -0.099  -9.758  -3.331  0.00  0.00    +0.210 HD
ENDBRANCH  19  20
ENDBRANCH   4  19
BRANCH   3  22
ATOM     22  O   UNL     1      -1.084  -5.071  -3.533  0.00  0.00    -0.340 OA
BRANCH  22  23
ATOM     23  C   UNL     1      -0.697  -4.293  -4.667  0.00  0.00    +0.282 C 
ATOM     24  C   UNL     1       0.441  -3.347  -4.273  0.00  0.00    +0.201 C 
ATOM     25  C   UNL     1       0.890  -2.560  -5.508  0.00  0.00    +0.179 C 
ATOM     26  C   UNL     1       1.306  -3.545  -6.604  0.00  0.00    +0.177 C 
ATOM     27  C   UNL     1       0.135  -4.483  -6.908  0.00  0.00    +0.178 C 
ATOM     28  O   UNL     1      -0.253  -5.161  -5.712  0.00  0.00    -0.341 OA
BRANCH  26  29
ATOM     29  O   UNL     1       1.660  -2.823  -7.786  0.00  0.00    -0.386 OA
ATOM     30  H   UNL     1       2.394  -2.205  -7.664  0.00  0.00    +0.210 HD
ENDBRANCH  26  29
BRANCH  25  31
ATOM     31  O   UNL     1       1.999  -1.726  -5.165  0.00  0.00    -0.386 OA
ATOM     32  H   UNL     1       1.807  -1.081  -4.471  0.00  0.00    +0.210 HD
ENDBRANCH  25  31
BRANCH  24  33
ATOM     33  O   UNL     1       1.539  -4.107  -3.764  0.00  0.00    -0.384 OA
ATOM     34  H   UNL     1       1.323  -4.635  -2.983  0.00  0.00    +0.210 HD
ENDBRANCH  24  33
BRANCH  27  35
ATOM     35  C   UNL     1       0.562  -5.508  -7.960  0.00  0.00    +0.190 C 
BRANCH  35  36
ATOM     36  O   UNL     1      -0.562  -6.309  -8.329  0.00  0.00    -0.392 OA
ATOM     37  H   UNL     1      -0.365  -6.982  -8.994  0.00  0.00    +0.210 HD
ENDBRANCH  35  36
ENDBRANCH  27  35
ENDBRANCH  22  23
ENDBRANCH   3  22
TORSDOF 15
