REMARK  Name = ZINC12075686
REMARK  8 active torsions:
REMARK  status: ('A' for Active; 'I' for Inactive)
REMARK    1  A    between atoms: C_4  and  C_7
REMARK    2  A    between atoms: C_8  and  C_9
REMARK    3  A    between atoms: C_9  and  N_63
REMARK    4  A    between atoms: C_15  and  C_17
REMARK    5  A    between atoms: C_17  and  C_18
REMARK    6  A    between atoms: N_20  and  C_21
REMARK    7  A    between atoms: C_21  and  C_22
REMARK    8  A    between atoms: C_25  and  N_28
REMARK                            x       y       z     vdW  Elec       q    Type
REMARK                         _______ _______ _______ _____ _____    ______ ____
ROOT
ATOM      1  C   UNL     1      -1.868   3.701   2.048  0.00  0.00    -0.058 C 
ATOM      2  C   UNL     1      -3.316   3.261   1.826  0.00  0.00    +0.085 C 
ATOM      3  N   UNL     1      -3.365   1.832   1.530  0.00  0.00    -0.318 N 
ATOM      4  C   UNL     1      -2.297   1.136   1.127  0.00  0.00    +0.200 C 
ATOM      5  O   UNL     1      -2.433  -0.042   0.873  0.00  0.00    -0.278 OA
ATOM      6  C   UNL     1      -0.935   1.752   0.977  0.00  0.00    +0.028 C 
ATOM      7  H   UNL     1      -4.211   1.367   1.630  0.00  0.00    +0.149 HD
ATOM      8  N   UNL     1      -1.063   3.220   0.907  0.00  0.00    +0.391 N 
ATOM      9  H   UNL     1      -1.537   3.474   0.032  0.00  0.00    -0.080 HD
ENDROOT
BRANCH   8  10
ATOM     10  C   UNL     1       0.277   3.848   0.930  0.00  0.00    -0.050 C 
BRANCH  10  12
ATOM     11  C   UNL     1       0.717   6.043   1.938  0.00  0.00    +0.002 C 
ATOM     12  C   UNL     1       0.120   5.346   0.981  0.00  0.00    -0.045 C 
BRANCH  11  16
ATOM     13  C   UNL     1       0.274  10.264   2.082  0.00  0.00    +0.000 A 
ATOM     14  C   UNL     1       1.042   9.619   3.035  0.00  0.00    +0.001 A 
ATOM     15  C   UNL     1       1.190   8.248   2.994  0.00  0.00    +0.008 A 
ATOM     16  C   UNL     1       0.563   7.512   1.988  0.00  0.00    -0.025 A 
ATOM     17  C   UNL     1      -0.206   8.169   1.027  0.00  0.00    +0.008 A 
ATOM     18  C   UNL     1      -0.351   9.540   1.083  0.00  0.00    +0.001 A 
ENDBRANCH  11  16
ENDBRANCH  10  12
ENDBRANCH   8  10
BRANCH   6  19
ATOM     19  C   UNL     1      -0.289   1.248  -0.315  0.00  0.00    +0.089 C 
BRANCH  19  20
ATOM     20  C   UNL     1      -1.096   1.718  -1.497  0.00  0.00    +0.212 C 
ATOM     21  O   UNL     1      -2.139   2.313  -1.322  0.00  0.00    -0.276 OA
ATOM     22  N   UNL     1      -0.660   1.479  -2.750  0.00  0.00    -0.311 N 
ATOM     23  H   UNL     1       0.174   1.004  -2.890  0.00  0.00    +0.149 HD
BRANCH  22  24
ATOM     24  C   UNL     1      -1.445   1.937  -3.899  0.00  0.00    +0.139 C 
BRANCH  24  25
ATOM     25  C   UNL     1      -0.743   1.546  -5.174  0.00  0.00    -0.030 A 
ATOM     26  C   UNL     1       0.169   2.410  -5.753  0.00  0.00    +0.007 A 
ATOM     27  C   UNL     1       0.817   2.053  -6.919  0.00  0.00    +0.024 A 
ATOM     28  C   UNL     1       0.545   0.829  -7.516  0.00  0.00    +0.036 A 
ATOM     29  C   UNL     1      -0.374  -0.035  -6.935  0.00  0.00    +0.024 A 
ATOM     30  C   UNL     1      -1.016   0.326  -5.766  0.00  0.00    +0.007 A 
BRANCH  28  31
ATOM     31  N   UNL     1       1.197   0.466  -8.699  0.00  0.00    -0.271 N 
ATOM     32  C   UNL     1       2.267   1.248  -9.329  0.00  0.00    +0.114 C 
ATOM     33  C   UNL     1       2.960   0.278 -10.314  0.00  0.00    +0.029 C 
ATOM     34  C   UNL     1       1.821  -0.722 -10.621  0.00  0.00    +0.098 C 
ATOM     35  C   UNL     1       0.920  -0.641  -9.409  0.00  0.00    +0.220 C 
ATOM     36  O   UNL     1       0.071  -1.458  -9.120  0.00  0.00    -0.275 OA
ENDBRANCH  28  31
ENDBRANCH  24  25
ENDBRANCH  22  24
ENDBRANCH  19  20
ENDBRANCH   6  19
TORSDOF 8
