REMARK  Name = ZINC59392961
REMARK  4 active torsions:
REMARK  status: ('A' for Active; 'I' for Inactive)
REMARK    1  A    between atoms: C_1  and  C_2
REMARK    2  A    between atoms: C_2  and  C_4
REMARK    3  A    between atoms: C_7  and  N_13
REMARK    4  A    between atoms: C_8  and  N_10
REMARK                            x       y       z     vdW  Elec       q    Type
REMARK                         _______ _______ _______ _____ _____    ______ ____
ROOT
ATOM      1  N   UNL     1      -4.825  -2.880   0.034  0.00  0.00    -0.323 N 
ATOM      2  C   UNL     1      -5.468  -3.262   1.300  0.00  0.00    +0.111 C 
ATOM      3  C   UNL     1      -6.819  -2.547   1.411  0.00  0.00    +0.072 C 
ATOM      4  C   UNL     1      -7.551  -2.669   0.096  0.00  0.00    +0.023 A 
ATOM      5  C   UNL     1      -6.957  -2.986  -1.075  0.00  0.00    -0.002 A 
ATOM      6  C   UNL     1      -7.987  -2.997  -2.091  0.00  0.00    +0.006 A 
ATOM      7  C   UNL     1      -7.964  -3.252  -3.466  0.00  0.00    +0.030 A 
ATOM      8  C   UNL     1      -9.162  -3.171  -4.133  0.00  0.00    +0.042 A 
ATOM      9  C   UNL     1     -10.345  -2.854  -3.485  0.00  0.00    +0.022 A 
ATOM     10  C   UNL     1     -10.397  -2.597  -2.126  0.00  0.00    +0.027 A 
ATOM     11  C   UNL     1      -9.196  -2.671  -1.424  0.00  0.00    +0.047 A 
ATOM     12  N   UNL     1      -8.894  -2.481  -0.106  0.00  0.00    -0.358 N 
ATOM     13  H   UNL     1      -9.534  -2.248   0.585  0.00  0.00    +0.166 HD
ATOM     14 CL   UNL     1      -9.194  -3.477  -5.842  0.00  0.00    -0.084 Cl
ATOM     15  C   UNL     1      -5.485  -3.266  -1.226  0.00  0.00    +0.142 C 
ENDROOT
BRANCH   1  19
ATOM     16  C   UNL     1      -1.259  -0.755   0.010  0.00  0.00    +0.019 A 
ATOM     17  C   UNL     1      -2.483  -0.073   0.020  0.00  0.00    +0.013 A 
ATOM     18  C   UNL     1      -3.653  -0.776   0.027  0.00  0.00    +0.026 A 
ATOM     19  C   UNL     1      -3.632  -2.169   0.026  0.00  0.00    +0.061 A 
ATOM     20  C   UNL     1      -2.418  -2.851   0.017  0.00  0.00    +0.148 A 
ATOM     21  C   UNL     1      -1.242  -2.156   0.002  0.00  0.00    +0.046 A 
BRANCH  16  23
ATOM     22  C   UNL     1      -0.018   1.503   0.010  0.00  0.00    +0.091 C 
ATOM     23  C   UNL     1       0.002  -0.004   0.002  0.00  0.00    +0.160 C 
ATOM     24  O   UNL     1       1.061  -0.596  -0.011  0.00  0.00    -0.292 OA
ENDBRANCH  16  23
BRANCH  20  25
ATOM     25  N   UNL     1      -2.401  -4.331   0.016  0.00  0.00    +0.058 N 
ATOM     26  O   UNL     1      -1.347  -4.924   0.008  0.00  0.00    -0.126 OA
ATOM     27  O   UNL     1      -3.441  -4.947   0.023  0.00  0.00    -0.126 OA
ENDBRANCH  20  25
ENDBRANCH   1  19
TORSDOF 3
