REMARK  Name = ZINC13510574
REMARK  7 active torsions:
REMARK  status: ('A' for Active; 'I' for Inactive)
REMARK    1  A    between atoms: C_1  and  C_2
REMARK    2  A    between atoms: C_3  and  N_12
REMARK    3  A    between atoms: C_13  and  C_15
REMARK    4  A    between atoms: C_15  and  S_16
REMARK    5  A    between atoms: S_16  and  C_17
REMARK    6  A    between atoms: C_24  and  C_26
REMARK    7  A    between atoms: C_28  and  C_32
REMARK                            x       y       z     vdW  Elec       q    Type
REMARK                         _______ _______ _______ _____ _____    ______ ____
ROOT
ATOM      1  C   UNL     1       7.150  -0.202   0.970  0.00  0.00    +0.171 C 
ENDROOT
BRANCH   1   3
ATOM      2  N   UNL     1       8.932  -1.825   1.523  0.00  0.00    -0.279 N 
ATOM      3  C   UNL     1       7.617  -1.582   1.352  0.00  0.00    +0.228 C 
ATOM      4  O   UNL     1       6.811  -2.475   1.506  0.00  0.00    -0.275 OA
ATOM      5  H   UNL     1       9.582  -1.131   1.334  0.00  0.00    +0.155 HD
BRANCH   2   8
ATOM      6  C   UNL     1      10.405  -1.972   3.931  0.00  0.00    +0.065 C 
ATOM      7  C   UNL     1      10.069  -3.200   3.123  0.00  0.00    +0.044 A 
ATOM      8  C   UNL     1       9.361  -3.086   1.975  0.00  0.00    +0.118 A 
ATOM      9  C   UNL     1       9.063  -4.259   1.230  0.00  0.00    +0.276 A 
ATOM     10  O   UNL     1       8.432  -4.184   0.192  0.00  0.00    -0.266 OA
ATOM     11  N   UNL     1       9.486  -5.456   1.685  0.00  0.00    -0.274 N 
ATOM     12  H   UNL     1       9.280  -6.285   1.166  0.00  0.00    +0.173 HD
ATOM     13  C   UNL     1      10.185  -5.539   2.832  0.00  0.00    +0.327 A 
ATOM     14  O   UNL     1      10.559  -6.627   3.227  0.00  0.00    -0.247 OA
ATOM     15  N   UNL     1      10.475  -4.439   3.549  0.00  0.00    -0.310 N 
ATOM     16  H   UNL     1      10.992  -4.525   4.401  0.00  0.00    +0.170 HD
ENDBRANCH   2   8
ENDBRANCH   1   3
BRANCH   1  17
ATOM     17  S   UNL     1       5.346  -0.196   0.818  0.00  0.00    -0.096 S 
BRANCH  17  18
ATOM     18  C   UNL     1       5.081   1.489   0.377  0.00  0.00    +0.109 A 
ATOM     19  C   UNL     1       3.777   2.013   0.138  0.00  0.00    +0.043 A 
ATOM     20  C   UNL     1       2.516   1.295   0.209  0.00  0.00    -0.025 A 
ATOM     21  C   UNL     1       1.397   2.005  -0.062  0.00  0.00    -0.004 A 
ATOM     22  S   UNL     1       1.963   3.649  -0.421  0.00  0.00    -0.073 S 
ATOM     23  C   UNL     1       3.693   3.385  -0.209  0.00  0.00    +0.113 A 
ATOM     24  N   UNL     1       4.747   4.171  -0.315  0.00  0.00    -0.225 NA
ATOM     25  C   UNL     1       5.931   3.620  -0.079  0.00  0.00    +0.128 A 
ATOM     26  N   UNL     1       6.087   2.353   0.248  0.00  0.00    -0.225 NA
ATOM     27  C   UNL     1       7.159   4.487  -0.190  0.00  0.00    +0.088 C 
ATOM     28  C   UNL     1      -0.015   1.508  -0.060  0.00  0.00    +0.046 C 
ATOM     29  C   UNL     1       0.009  -0.028  -0.065  0.00  0.00    -0.009 C 
ATOM     30  C   UNL     1       0.996  -0.505   1.004  0.00  0.00    +0.008 C 
ATOM     31  C   UNL     1       2.426  -0.186   0.569  0.00  0.00    +0.037 C 
ATOM     32  C   UNL     1      -1.390  -0.564   0.247  0.00  0.00    +0.008 C 
ENDBRANCH  17  18
ENDBRANCH   1  17
TORSDOF 4
