REMARK  Name = ZINC15826346
REMARK  3 active torsions:
REMARK  status: ('A' for Active; 'I' for Inactive)
REMARK    1  A    between atoms: C_5  and  C_7
REMARK    2  A    between atoms: C_7  and  N_8
REMARK    3  A    between atoms: C_18  and  C_20
REMARK                            x       y       z     vdW  Elec       q    Type
REMARK                         _______ _______ _______ _____ _____    ______ ____
ROOT
ATOM      1  N   UNL     1       1.332   2.087  -0.007  0.00  0.00    -0.310 N 
ATOM      2  C   UNL     1       2.181   1.768   1.048  0.00  0.00    +0.052 A 
ATOM      3  C   UNL     1       2.461   2.682   2.058  0.00  0.00    +0.025 A 
ATOM      4  C   UNL     1       3.402   2.337   3.015  0.00  0.00    +0.002 A 
ATOM      5  C   UNL     1       4.042   1.112   2.963  0.00  0.00    +0.002 A 
ATOM      6  C   UNL     1       3.737   0.203   1.961  0.00  0.00    +0.025 A 
ATOM      7  C   UNL     1       2.780   0.560   1.020  0.00  0.00    +0.052 A 
ATOM      8  N   UNL     1       2.386  -0.318   0.003  0.00  0.00    -0.316 N 
ATOM      9  C   UNL     1       1.122  -0.830   0.004  0.00  0.00    +0.017 C 
ATOM     10  C   UNL     1       0.037  -0.014   0.040  0.00  0.00    +0.040 C 
ATOM     11  C   UNL     1       0.006   1.512   0.055  0.00  0.00    +0.175 C 
ATOM     12  C   UNL     1      -1.252  -0.595   0.070  0.00  0.00    +0.163 C 
ATOM     13  O   UNL     1      -2.222   0.138   0.097  0.00  0.00    -0.292 OA
ATOM     14  C   UNL     1      -1.472  -2.077   0.072  0.00  0.00    +0.080 C 
ATOM     15  C   UNL     1      -0.268  -2.760   0.731  0.00  0.00    +0.014 C 
ATOM     16  C   UNL     1       0.986  -2.332  -0.033  0.00  0.00    +0.051 C 
ATOM     17  H   UNL     1       3.009  -0.561  -0.699  0.00  0.00    +0.152 HD
ENDROOT
BRANCH  11  18
ATOM     18  C   UNL     1      -0.669   1.974   1.320  0.00  0.00    +0.130 A 
ATOM     19  C   UNL     1      -1.945   2.386   1.426  0.00  0.00    +0.047 A 
ATOM     20  C   UNL     1      -2.156   2.723   2.783  0.00  0.00    +0.041 A 
ATOM     21  C   UNL     1      -0.994   2.503   3.424  0.00  0.00    +0.195 A 
ATOM     22  O   UNL     1      -0.097   2.050   2.533  0.00  0.00    -0.466 OA
ENDBRANCH  11  18
BRANCH   1  23
ATOM     23  C   UNL     1       1.266   3.541  -0.208  0.00  0.00    +0.144 C 
BRANCH  23  28
ATOM     24  C   UNL     1       1.079   4.311  -3.899  0.00  0.00    +0.000 A 
ATOM     25  C   UNL     1      -0.288   4.372  -4.101  0.00  0.00    +0.003 A 
ATOM     26  C   UNL     1      -1.153   4.164  -3.044  0.00  0.00    +0.038 A 
ATOM     27  C   UNL     1      -0.651   3.894  -1.782  0.00  0.00    +0.128 A 
ATOM     28  C   UNL     1       0.718   3.834  -1.581  0.00  0.00    +0.005 A 
ATOM     29  C   UNL     1       1.581   4.048  -2.639  0.00  0.00    +0.008 A 
ATOM     30  F   UNL     1      -1.496   3.691  -0.747  0.00  0.00    -0.205 F 
ENDBRANCH  23  28
ENDBRANCH   1  23
TORSDOF 3
