REMARK  Name = ZINC08918645
REMARK  12 active torsions:
REMARK  status: ('A' for Active; 'I' for Inactive)
REMARK    1  A    between atoms: C_1  and  C_2
REMARK    2  A    between atoms: C_2  and  C_3
REMARK    3  A    between atoms: C_8  and  N_9
REMARK    4  A    between atoms: C_10  and  C_12
REMARK    5  A    between atoms: C_16  and  N_17
REMARK    6  A    between atoms: C_18  and  C_20
REMARK    7  A    between atoms: C_20  and  N_76
REMARK    8  A    between atoms: C_25  and  C_27
REMARK    9  A    between atoms: C_29  and  C_33
REMARK   10  A    between atoms: C_33  and  C_34
REMARK   11  A    between atoms: C_33  and  C_35
REMARK   12  A    between atoms: C_33  and  C_36
REMARK                            x       y       z     vdW  Elec       q    Type
REMARK                         _______ _______ _______ _____ _____    ______ ____
ROOT
ATOM      1  C   UNL     1       2.325  -4.293  -0.276  0.00  0.00    +0.069 A 
ATOM      2  C   UNL     1       2.232  -4.962  -1.562  0.00  0.00    -0.023 A 
ATOM      3  C   UNL     1       2.251  -6.312  -1.510  0.00  0.00    -0.004 A 
ATOM      4  S   UNL     1       2.377  -6.697   0.213  0.00  0.00    -0.077 S 
ATOM      5  C   UNL     1       2.412  -5.089   0.857  0.00  0.00    +0.084 A 
ATOM      6  C   UNL     1       2.174  -7.261  -2.666  0.00  0.00    +0.046 C 
ATOM      7  C   UNL     1       1.701  -6.482  -3.902  0.00  0.00    -0.000 C 
ATOM      8  C   UNL     1       2.523  -5.195  -4.017  0.00  0.00    +0.009 C 
ATOM      9  C   UNL     1       2.139  -4.229  -2.895  0.00  0.00    +0.037 C 
ENDROOT
BRANCH   1  11
ATOM     10  N   UNL     1       1.156  -2.166  -0.050  0.00  0.00    -0.281 N 
ATOM     11  C   UNL     1       2.322  -2.830  -0.179  0.00  0.00    +0.251 C 
ATOM     12  O   UNL     1       3.372  -2.215  -0.214  0.00  0.00    -0.270 OA
ATOM     13  H   UNL     1       0.325  -2.657   0.036  0.00  0.00    +0.155 HD
BRANCH  10  19
ATOM     14  C   UNL     1       0.082  -0.076  -0.608  0.00  0.00    -0.026 A 
ATOM     15  C   UNL     1       0.074   1.305  -0.598  0.00  0.00    +0.005 A 
ATOM     16  C   UNL     1       1.124   2.000  -0.026  0.00  0.00    +0.000 A 
ATOM     17  C   UNL     1       2.184   1.315   0.539  0.00  0.00    +0.002 A 
ATOM     18  C   UNL     1       2.198  -0.066   0.532  0.00  0.00    +0.023 A 
ATOM     19  C   UNL     1       1.146  -0.767  -0.042  0.00  0.00    +0.037 A 
BRANCH  14  21
ATOM     20  C   UNL     1      -2.075  -1.210  -0.151  0.00  0.00    +0.009 C 
ATOM     21  C   UNL     1      -1.062  -0.832  -1.233  0.00  0.00    +0.033 C 
ENDBRANCH  14  21
ENDBRANCH  10  19
ENDBRANCH   1  11
BRANCH   5  22
ATOM     22  N   UNL     1       2.503  -4.694   2.183  0.00  0.00    -0.281 N 
ATOM     23  C   UNL     1       2.579  -5.620   3.159  0.00  0.00    +0.201 C 
ATOM     24  O   UNL     1       2.568  -6.800   2.877  0.00  0.00    -0.278 OA
ATOM     25  H   UNL     1       2.512  -3.750   2.409  0.00  0.00    +0.155 HD
BRANCH  23  26
ATOM     26  C   UNL     1       2.679  -5.191   4.600  0.00  0.00    +0.019 C 
BRANCH  26  33
ATOM     27  C   UNL     1       4.050  -7.047   5.332  0.00  0.00    -0.078 C 
ATOM     28  C   UNL     1       4.035  -8.354   6.128  0.00  0.00    -0.019 C 
ATOM     29  C   UNL     1       3.742  -8.047   7.599  0.00  0.00    -0.003 C 
ATOM     30  C   UNL     1       2.404  -7.309   7.701  0.00  0.00    -0.016 C 
ATOM     31  C   UNL     1       2.466  -6.032   6.860  0.00  0.00    -0.071 C 
ATOM     32  C   UNL     1       1.125  -5.301   6.943  0.00  0.00    -0.013 C 
ATOM     33  N   UNL     1       2.727  -6.397   5.452  0.00  0.00    +0.387 N 
ATOM     34  H   UNL     1       2.004  -7.055   5.139  0.00  0.00    -0.081 HD
ENDBRANCH  26  33
ENDBRANCH  23  26
ENDBRANCH   5  22
BRANCH   7  35
ATOM     35  C   UNL     1       1.905  -7.335  -5.155  0.00  0.00    -0.035 C 
ATOM     36  C   UNL     1       1.096  -8.627  -5.029  0.00  0.00    +0.011 C 
ATOM     37  C   UNL     1       1.433  -6.556  -6.385  0.00  0.00    +0.011 C 
ATOM     38  C   UNL     1       3.389  -7.675  -5.305  0.00  0.00    +0.011 C 
ENDBRANCH   7  35
TORSDOF 7
