REMARK  Name = ZINC38650073
REMARK  12 active torsions:
REMARK  status: ('A' for Active; 'I' for Inactive)
REMARK    1  A    between atoms: C_1  and  C_2
REMARK    2  A    between atoms: C_2  and  C_3
REMARK    3  A    between atoms: C_6  and  O_9
REMARK    4  A    between atoms: O_9  and  C_10
REMARK    5  A    between atoms: C_10  and  C_11
REMARK    6  A    between atoms: C_11  and  O_13
REMARK    7  A    between atoms: O_13  and  C_14
REMARK    8  A    between atoms: C_21  and  N_35
REMARK    9  A    between atoms: C_22  and  C_33
REMARK   10  A    between atoms: C_23  and  C_25
REMARK   11  A    between atoms: C_30  and  O_31
REMARK   12  A    between atoms: O_31  and  C_32
REMARK                            x       y       z     vdW  Elec       q    Type
REMARK                         _______ _______ _______ _____ _____    ______ ____
ROOT
ATOM      1  C   UNL     1       6.404  -3.238  -7.177  0.00  0.00    +0.135 A 
ATOM      2  C   UNL     1       5.587  -3.391  -8.289  0.00  0.00    +0.047 A 
ATOM      3  C   UNL     1       6.114  -3.868  -9.472  0.00  0.00    +0.012 A 
ATOM      4  C   UNL     1       7.456  -4.196  -9.556  0.00  0.00    +0.008 A 
ATOM      5  C   UNL     1       8.276  -4.044  -8.449  0.00  0.00    +0.138 A 
ATOM      6  C   UNL     1       7.749  -3.558  -7.260  0.00  0.00    +0.093 A 
ATOM      7  O   UNL     1       9.594  -4.359  -8.512  0.00  0.00    -0.441 OA
ATOM      8  C   UNL     1      10.044  -5.165  -9.487  0.00  0.00    +0.199 C 
ATOM      9  C   UNL     1       9.341  -5.376 -10.625  0.00  0.00    +0.098 C 
ATOM     10  C   UNL     1       8.012  -4.714 -10.856  0.00  0.00    +0.101 C 
ENDROOT
BRANCH  10  11
ATOM     11  C   UNL     1       8.185  -3.567 -11.818  0.00  0.00    +0.007 A 
ATOM     12  C   UNL     1       9.022  -2.516 -11.496  0.00  0.00    +0.008 A 
ATOM     13  C   UNL     1       9.182  -1.464 -12.378  0.00  0.00    +0.001 A 
ATOM     14  C   UNL     1       8.504  -1.460 -13.584  0.00  0.00    +0.004 A 
ATOM     15  C   UNL     1       7.667  -2.509 -13.910  0.00  0.00    +0.046 A 
ATOM     16  C   UNL     1       7.509  -3.569 -13.029  0.00  0.00    +0.124 A 
BRANCH  16  17
ATOM     17  O   UNL     1       6.690  -4.605 -13.350  0.00  0.00    -0.495 OA
ATOM     18  C   UNL     1       6.026  -4.539 -14.614  0.00  0.00    +0.277 C 
ENDBRANCH  16  17
ENDBRANCH  10  11
BRANCH   8  19
ATOM     19  N   UNL     1      11.254  -5.793  -9.326  0.00  0.00    -0.328 N 
ATOM     20  H   UNL     1      11.770  -5.652  -8.517  0.00  0.00    +0.145 HD
ATOM     21  H   UNL     1      11.593  -6.378 -10.022  0.00  0.00    +0.145 HD
ENDBRANCH   8  19
BRANCH   9  22
ATOM     22  C   UNL     1       9.874  -6.247 -11.629  0.00  0.00    +0.101 C 
ATOM     23  N   UNL     1      10.298  -6.938 -12.425  0.00  0.00    -0.191 NA
ENDBRANCH   9  22
BRANCH   1  24
ATOM     24  O   UNL     1       5.886  -2.768  -6.012  0.00  0.00    -0.423 OA
BRANCH  24  25
ATOM     25  C   UNL     1       5.167  -3.613  -5.256  0.00  0.00    +0.350 C 
ATOM     26  O   UNL     1       4.920  -4.724  -5.660  0.00  0.00    -0.247 OA
BRANCH  25  27
ATOM     27  C   UNL     1       4.666  -3.174  -3.904  0.00  0.00    +0.349 C 
BRANCH  27  28
ATOM     28  O   UNL     1       3.932  -4.241  -3.299  0.00  0.00    -0.481 OA
BRANCH  28  32
ATOM     29  C   UNL     1       2.344  -3.534   0.443  0.00  0.00    -0.047 A 
ATOM     30  C   UNL     1       2.154  -4.760  -0.167  0.00  0.00    +0.007 A 
ATOM     31  C   UNL     1       2.685  -4.999  -1.420  0.00  0.00    +0.046 A 
ATOM     32  C   UNL     1       3.409  -4.008  -2.066  0.00  0.00    +0.121 A 
ATOM     33  C   UNL     1       3.597  -2.778  -1.452  0.00  0.00    +0.046 A 
ATOM     34  C   UNL     1       3.060  -2.542  -0.202  0.00  0.00    +0.007 A 
BRANCH  29  36
ATOM     35  C   UNL     1       0.351  -2.705   1.665  0.00  0.00    +0.009 C 
ATOM     36  C   UNL     1       1.764  -3.276   1.810  0.00  0.00    +0.032 C 
ENDBRANCH  29  36
ENDBRANCH  28  32
ENDBRANCH  27  28
ENDBRANCH  25  27
ENDBRANCH  24  25
ENDBRANCH   1  24
TORSDOF 10
