REMARK  Name = ZINC21927407
REMARK  15 active torsions:
REMARK  status: ('A' for Active; 'I' for Inactive)
REMARK    1  A    between atoms: C_1  and  C_2
REMARK    2  A    between atoms: C_4  and  C_31
REMARK    3  A    between atoms: C_6  and  C_30
REMARK    4  A    between atoms: C_7  and  C_8
REMARK    5  A    between atoms: C_8  and  C_9
REMARK    6  A    between atoms: C_9  and  N_10
REMARK    7  A    between atoms: C_11  and  C_13
REMARK    8  A    between atoms: C_13  and  N_14
REMARK    9  A    between atoms: C_17  and  C_21
REMARK   10  A    between atoms: C_17  and  C_22
REMARK   11  A    between atoms: C_25  and  O_28
REMARK   12  A    between atoms: O_28  and  C_29
REMARK   13  A    between atoms: C_31  and  C_32
REMARK   14  A    between atoms: C_31  and  C_33
REMARK   15  A    between atoms: C_31  and  C_34
REMARK                            x       y       z     vdW  Elec       q    Type
REMARK                         _______ _______ _______ _____ _____    ______ ____
ROOT
ATOM      1  N   UNL     1       3.485   2.224   5.155  0.00  0.00    -0.314 N 
ATOM      2  C   UNL     1       2.603   2.220   4.136  0.00  0.00    +0.231 C 
ATOM      3  O   UNL     1       3.000   2.208   2.990  0.00  0.00    -0.274 OA
ATOM      4  H   UNL     1       3.125   2.235   6.194  0.00  0.00    +0.149 HD
ENDROOT
BRANCH   1   5
ATOM      5  C   UNL     1       4.923   2.213   4.878  0.00  0.00    +0.109 C 
BRANCH   5   6
ATOM      6  C   UNL     1       5.697   2.220   6.199  0.00  0.00    +0.054 C 
BRANCH   6  13
ATOM      7  C   UNL     1       7.103  -0.292   5.960  0.00  0.00    +0.044 C 
ATOM      8  C   UNL     1       7.850   1.008   5.800  0.00  0.00    -0.047 A 
ATOM      9  C   UNL     1       9.206   0.998   5.534  0.00  0.00    +0.007 A 
ATOM     10  C   UNL     1       9.892   2.190   5.394  0.00  0.00    -0.041 A 
ATOM     11  C   UNL     1       9.220   3.392   5.513  0.00  0.00    +0.007 A 
ATOM     12  C   UNL     1       7.862   3.402   5.773  0.00  0.00    -0.047 A 
ATOM     13  C   UNL     1       7.176   2.210   5.914  0.00  0.00    -0.040 A 
ATOM     14  C   UNL     1       7.129   4.712   5.904  0.00  0.00    +0.044 C 
BRANCH  10  15
ATOM     15  C   UNL     1      11.372   2.179   5.110  0.00  0.00    -0.013 C 
ATOM     16  C   UNL     1      12.112   2.906   6.234  0.00  0.00    +0.015 C 
ATOM     17  C   UNL     1      11.864   0.733   5.026  0.00  0.00    +0.015 C 
ATOM     18  C   UNL     1      11.641   2.887   3.780  0.00  0.00    +0.015 C 
ENDBRANCH  10  15
ENDBRANCH   6  13
ENDBRANCH   5   6
ENDBRANCH   1   5
BRANCH   2  19
ATOM     19  C   UNL     1       1.123   2.231   4.420  0.00  0.00    +0.213 C 
BRANCH  19  20
ATOM     20  N   UNL     1       0.383   2.224   3.156  0.00  0.00    -0.215 N 
ATOM     21  C   UNL     1      -0.006   1.105   2.512  0.00  0.00    +0.251 C 
ATOM     22  O   UNL     1       0.182  -0.041   2.857  0.00  0.00    -0.272 OA
ATOM     23  C   UNL     1      -0.729   1.579   1.267  0.00  0.00    +0.135 C 
ATOM     24  N   UNL     1      -0.657   3.047   1.362  0.00  0.00    -0.281 N 
ATOM     25  C   UNL     1       0.010   3.327   2.497  0.00  0.00    +0.310 C 
ATOM     26  O   UNL     1       0.247   4.455   2.881  0.00  0.00    -0.252 OA
ATOM     27  C   UNL     1      -0.013   1.086   0.008  0.00  0.00    +0.047 C 
ATOM     28  H   UNL     1      -1.108   3.673   0.578  0.00  0.00    +0.152 HD
BRANCH  23  29
ATOM     29  C   UNL     1      -2.162   1.114   1.276  0.00  0.00    -0.015 A 
ATOM     30  C   UNL     1      -2.492  -0.092   1.866  0.00  0.00    +0.010 A 
ATOM     31  C   UNL     1      -3.806  -0.519   1.881  0.00  0.00    +0.046 A 
ATOM     32  C   UNL     1      -4.793   0.260   1.293  0.00  0.00    +0.120 A 
ATOM     33  C   UNL     1      -4.459   1.467   0.698  0.00  0.00    +0.046 A 
ATOM     34  C   UNL     1      -3.144   1.891   0.691  0.00  0.00    +0.010 A 
BRANCH  32  35
ATOM     35  O   UNL     1      -6.086  -0.161   1.301  0.00  0.00    -0.495 OA
ATOM     36  C   UNL     1      -6.357  -1.414   1.932  0.00  0.00    +0.277 C 
ENDBRANCH  32  35
ENDBRANCH  23  29
ENDBRANCH  19  20
ENDBRANCH   2  19
TORSDOF 8
