REMARK  Name = ZINC20637412
REMARK  4 active torsions:
REMARK  status: ('A' for Active; 'I' for Inactive)
REMARK    1  A    between atoms: C_1  and  C_2
REMARK    2  A    between atoms: C_2  and  C_3
REMARK    3  A    between atoms: C_6  and  C_9
REMARK    4  A    between atoms: C_11  and  C_25
REMARK                            x       y       z     vdW  Elec       q    Type
REMARK                         _______ _______ _______ _____ _____    ______ ____
ROOT
ATOM      1  C   UNL     1      -2.808   3.000  -4.673  0.00  0.00    +0.146 C 
ATOM      2  C   UNL     1      -4.301   3.131  -4.362  0.00  0.00    +0.204 C 
ATOM      3  C   UNL     1      -4.965   1.783  -4.325  0.00  0.00    +0.239 C 
ATOM      4  O   UNL     1      -5.829   1.571  -3.500  0.00  0.00    -0.274 OA
ATOM      5  N   UNL     1      -4.625   0.804  -5.188  0.00  0.00    -0.255 N 
ATOM      6  C   UNL     1      -3.506   0.998  -5.987  0.00  0.00    +0.204 A 
ATOM      7  N   UNL     1      -2.638   2.045  -5.772  0.00  0.00    -0.302 N 
ATOM      8  C   UNL     1      -1.674   1.978  -6.734  0.00  0.00    +0.071 A 
ATOM      9  C   UNL     1      -0.564   2.764  -7.018  0.00  0.00    +0.028 A 
ATOM     10  C   UNL     1       0.218   2.386  -8.098  0.00  0.00    +0.002 A 
ATOM     11  C   UNL     1      -0.082   1.276  -8.868  0.00  0.00    +0.002 A 
ATOM     12  C   UNL     1      -1.181   0.478  -8.608  0.00  0.00    +0.030 A 
ATOM     13  C   UNL     1      -1.986   0.841  -7.522  0.00  0.00    +0.091 A 
ATOM     14  N   UNL     1      -3.107   0.294  -7.012  0.00  0.00    -0.214 NA
ATOM     15  H   UNL     1      -5.227  -0.115  -5.244  0.00  0.00    +0.158 HD
ENDROOT
BRANCH   1  19
ATOM     16  C   UNL     1      -0.742   1.585  -1.213  0.00  0.00    -0.048 A 
ATOM     17  C   UNL     1      -1.750   0.825  -1.775  0.00  0.00    +0.004 A 
ATOM     18  C   UNL     1      -2.422   1.285  -2.892  0.00  0.00    +0.006 A 
ATOM     19  C   UNL     1      -2.079   2.501  -3.453  0.00  0.00    -0.023 A 
ATOM     20  C   UNL     1      -1.066   3.259  -2.894  0.00  0.00    +0.006 A 
ATOM     21  C   UNL     1      -0.398   2.801  -1.774  0.00  0.00    +0.004 A 
BRANCH  16  23
ATOM     22  C   UNL     1      -0.729   1.579   1.267  0.00  0.00    +0.009 C 
ATOM     23  C   UNL     1      -0.013   1.086   0.008  0.00  0.00    +0.032 C 
ENDBRANCH  16  23
ENDBRANCH   1  19
BRANCH   2  24
ATOM     24  C   UNL     1      -4.940   3.957  -5.399  0.00  0.00    +0.078 C 
ATOM     25  N   UNL     1      -5.434   4.595  -6.199  0.00  0.00    -0.196 NA
ENDBRANCH   2  24
TORSDOF 3
