REMARK  Name = ZINC22784784
REMARK  10 active torsions:
REMARK  status: ('A' for Active; 'I' for Inactive)
REMARK    1  A    between atoms: C_1  and  C_2
REMARK    2  A    between atoms: C_2  and  C_3
REMARK    3  A    between atoms: C_3  and  C_4
REMARK    4  A    between atoms: C_4  and  N_5
REMARK    5  A    between atoms: C_6  and  C_8
REMARK    6  A    between atoms: C_8  and  N_9
REMARK    7  A    between atoms: N_12  and  C_15
REMARK    8  A    between atoms: C_15  and  C_17
REMARK    9  A    between atoms: C_15  and  C_23
REMARK   10  A    between atoms: C_23  and  C_25
REMARK                            x       y       z     vdW  Elec       q    Type
REMARK                         _______ _______ _______ _____ _____    ______ ____
ROOT
ATOM      1  C   UNL     1       0.003  -0.137  -0.240  0.00  0.00    +0.159 C 
ENDROOT
BRANCH   1   5
ATOM      2  N   UNL     1      -4.056   0.403   0.799  0.00  0.00    +0.387 N 
ATOM      3  C   UNL     1      -3.222  -0.422   1.685  0.00  0.00    -0.063 C 
ATOM      4  C   UNL     1      -1.746  -0.103   1.434  0.00  0.00    +0.067 C 
ATOM      5  N   UNL     1      -1.425  -0.359   0.023  0.00  0.00    -0.293 NA
ATOM      6  C   UNL     1      -2.259   0.465  -0.862  0.00  0.00    +0.067 C 
ATOM      7  C   UNL     1      -3.734   0.147  -0.612  0.00  0.00    -0.063 C 
ATOM      8  H   UNL     1      -3.834   1.460   1.011  0.00  0.00    -0.081 HD
BRANCH   2   9
ATOM      9  C   UNL     1      -5.483   0.181   1.063  0.00  0.00    +0.019 C 
BRANCH   9  11
ATOM     10  N   UNL     1      -7.053   0.473   2.953  0.00  0.00    -0.317 N 
ATOM     11  C   UNL     1      -5.825   0.690   2.439  0.00  0.00    +0.196 C 
ATOM     12  O   UNL     1      -4.997   1.296   3.085  0.00  0.00    -0.278 OA
ATOM     13  H   UNL     1      -7.804  -0.077   2.367  0.00  0.00    +0.149 HD
BRANCH  10  14
ATOM     14  C   UNL     1      -7.385   0.968   4.291  0.00  0.00    +0.104 C 
BRANCH  14  15
ATOM     15  C   UNL     1      -8.828   0.590   4.630  0.00  0.00    +0.018 C 
BRANCH  15  17
ATOM     16  C   UNL     1     -10.618   0.729   6.367  0.00  0.00    +0.004 C 
ATOM     17  C   UNL     1      -9.175   1.107   6.028  0.00  0.00    -0.002 C 
ENDBRANCH  15  17
ENDBRANCH  14  15
ENDBRANCH  10  14
ENDBRANCH   9  11
ENDBRANCH   2   9
ENDBRANCH   1   5
BRANCH   1  18
ATOM     18  C   UNL     1       0.825  -0.957   0.720  0.00  0.00    -0.023 A 
ATOM     19  C   UNL     1       0.514  -2.286   0.936  0.00  0.00    +0.005 A 
ATOM     20  C   UNL     1       1.270  -3.040   1.814  0.00  0.00    +0.000 A 
ATOM     21  C   UNL     1       2.333  -2.461   2.483  0.00  0.00    +0.000 A 
ATOM     22  C   UNL     1       2.641  -1.131   2.271  0.00  0.00    +0.000 A 
ATOM     23  C   UNL     1       1.887  -0.379   1.390  0.00  0.00    +0.005 A 
ENDBRANCH   1  18
BRANCH   1  24
ATOM     24  C   UNL     1       0.323  -0.549  -1.654  0.00  0.00    +0.187 C 
ATOM     25  O   UNL     1      -0.382  -1.356  -2.226  0.00  0.00    -0.290 OA
BRANCH  24  26
ATOM     26  C   UNL     1       1.450   0.000  -2.315  0.00  0.00    +0.044 A 
ATOM     27  C   UNL     1       2.341   0.921  -1.805  0.00  0.00    +0.095 A 
ATOM     28  N   UNL     1       3.281   1.199  -2.728  0.00  0.00    -0.360 N 
ATOM     29  H   UNL     1       4.086   1.913  -2.496  0.00  0.00    +0.165 HD
ATOM     30  C   UNL     1       3.052   0.487  -3.889  0.00  0.00    +0.047 A 
ATOM     31  C   UNL     1       1.903  -0.293  -3.689  0.00  0.00    +0.010 A 
ATOM     32  C   UNL     1       1.435  -1.121  -4.705  0.00  0.00    +0.011 A 
ATOM     33  C   UNL     1       2.105  -1.170  -5.908  0.00  0.00    +0.001 A 
ATOM     34  C   UNL     1       3.240  -0.400  -6.108  0.00  0.00    +0.002 A 
ATOM     35  C   UNL     1       3.715   0.424  -5.110  0.00  0.00    +0.026 A 
ENDBRANCH  24  26
ENDBRANCH   1  24
TORSDOF 9
