REMARK  Name = ZINC22058439
REMARK  12 active torsions:
REMARK  status: ('A' for Active; 'I' for Inactive)
REMARK    1  A    between atoms: C_1  and  C_2
REMARK    2  A    between atoms: C_2  and  C_3
REMARK    3  A    between atoms: C_2  and  C_4
REMARK    4  A    between atoms: C_2  and  C_5
REMARK    5  A    between atoms: C_8  and  C_11
REMARK    6  A    between atoms: C_14  and  S_17
REMARK    7  A    between atoms: N_15  and  N_16
REMARK    8  A    between atoms: S_17  and  C_18
REMARK    9  A    between atoms: C_18  and  C_19
REMARK   10  A    between atoms: N_21  and  C_22
REMARK   11  A    between atoms: C_25  and  S_28
REMARK   12  A    between atoms: S_28  and  C_31
REMARK                            x       y       z     vdW  Elec       q    Type
REMARK                         _______ _______ _______ _____ _____    ______ ____
ROOT
ATOM      1  C   UNL     1      -3.797   6.690  11.197  0.00  0.00    +0.182 A 
ATOM      2  N   UNL     1      -4.417   5.595  10.825  0.00  0.00    -0.127 NA
ATOM      3  N   UNL     1      -3.945   5.185   9.701  0.00  0.00    -0.121 NA
ATOM      4  C   UNL     1      -2.989   5.989   9.293  0.00  0.00    +0.209 A 
ATOM      5  N   UNL     1      -2.863   6.976  10.228  0.00  0.00    -0.224 N 
ENDROOT
BRANCH   1   9
ATOM      6  C   UNL     1      -4.534   8.931  14.730  0.00  0.00    -0.042 A 
ATOM      7  C   UNL     1      -3.832   9.504  13.685  0.00  0.00    +0.005 A 
ATOM      8  C   UNL     1      -3.589   8.782  12.535  0.00  0.00    +0.012 A 
ATOM      9  C   UNL     1      -4.053   7.470  12.427  0.00  0.00    +0.021 A 
ATOM     10  C   UNL     1      -4.766   6.900  13.483  0.00  0.00    +0.012 A 
ATOM     11  C   UNL     1      -4.998   7.631  14.629  0.00  0.00    +0.005 A 
BRANCH   6  13
ATOM     12  C   UNL     1      -5.604  10.977  15.634  0.00  0.00    +0.015 C 
ATOM     13  C   UNL     1      -4.796   9.726  15.983  0.00  0.00    -0.013 C 
ATOM     14  C   UNL     1      -5.585   8.869  16.975  0.00  0.00    +0.015 C 
ATOM     15  C   UNL     1      -3.464  10.139  16.613  0.00  0.00    +0.015 C 
ENDBRANCH   6  13
ENDBRANCH   1   9
BRANCH   5  16
ATOM     16  N   UNL     1      -1.992   8.028  10.205  0.00  0.00    -0.295 N 
ATOM     17  H   UNL     1      -1.291   8.143   9.366  0.00  0.00    +0.163 HD
ATOM     18  H   UNL     1      -1.992   8.760  11.027  0.00  0.00    +0.163 HD
ENDBRANCH   5  16
BRANCH   4  19
ATOM     19  S   UNL     1      -2.049   5.826   7.811  0.00  0.00    -0.075 S 
BRANCH  19  20
ATOM     20  C   UNL     1      -2.786   4.317   7.136  0.00  0.00    +0.173 C 
BRANCH  20  21
ATOM     21  C   UNL     1      -2.119   3.975   5.828  0.00  0.00    +0.227 C 
ATOM     22  O   UNL     1      -1.233   4.681   5.396  0.00  0.00    -0.275 OA
ATOM     23  N   UNL     1      -2.507   2.883   5.139  0.00  0.00    -0.285 N 
ATOM     24  H   UNL     1      -3.366   2.291   5.486  0.00  0.00    +0.155 HD
BRANCH  23  25
ATOM     25  C   UNL     1      -1.816   2.503   3.983  0.00  0.00    +0.034 A 
ATOM     26  C   UNL     1      -0.479   2.844   3.828  0.00  0.00    +0.025 A 
ATOM     27  C   UNL     1       0.200   2.467   2.686  0.00  0.00    +0.029 A 
ATOM     28  C   UNL     1      -0.450   1.751   1.698  0.00  0.00    +0.095 A 
ATOM     29  C   UNL     1      -1.784   1.415   1.847  0.00  0.00    +0.029 A 
ATOM     30  C   UNL     1      -2.467   1.785   2.989  0.00  0.00    +0.025 A 
BRANCH  28  31
ATOM     31  S   UNL     1       0.419   1.272   0.242  0.00  0.00    +0.058 S 
ATOM     32  O   UNL     1       1.457   2.233   0.107  0.00  0.00    -0.164 OA
ATOM     33  O   UNL     1      -0.585   1.145  -0.755  0.00  0.00    -0.164 OA
BRANCH  31  34
ATOM     34  C   UNL     1       1.122  -0.354   0.632  0.00  0.00    +0.485 C 
ATOM     35  F   UNL     1       1.978  -0.241   1.733  0.00  0.00    -0.183 F 
ATOM     36  F   UNL     1       0.089  -1.248   0.936  0.00  0.00    -0.183 F 
ENDBRANCH  31  34
ENDBRANCH  28  31
ENDBRANCH  23  25
ENDBRANCH  20  21
ENDBRANCH  19  20
ENDBRANCH   4  19
TORSDOF 9
