REMARK  Name = ZINC03353432
REMARK  5 active torsions:
REMARK  status: ('A' for Active; 'I' for Inactive)
REMARK    1  A    between atoms: C_1  and  C_2
REMARK    2  A    between atoms: C_2  and  C_19
REMARK    3  A    between atoms: N_5  and  C_9
REMARK    4  A    between atoms: C_9  and  C_10
REMARK    5  A    between atoms: N_12  and  C_13
REMARK                            x       y       z     vdW  Elec       q    Type
REMARK                         _______ _______ _______ _____ _____    ______ ____
ROOT
ATOM      1  C   UNL     1       2.937   0.791  -1.455  0.00  0.00    +0.047 C 
ATOM      2  C   UNL     1       2.467   1.029  -0.019  0.00  0.00    +0.135 C 
ATOM      3  C   UNL     1       3.518   1.782   0.772  0.00  0.00    +0.251 C 
ATOM      4  O   UNL     1       3.950   2.891   0.545  0.00  0.00    -0.272 OA
ATOM      5  N   UNL     1       3.874   0.961   1.780  0.00  0.00    -0.215 N 
ATOM      6  C   UNL     1       3.200  -0.195   1.736  0.00  0.00    +0.310 C 
ATOM      7  O   UNL     1       3.348  -1.094   2.540  0.00  0.00    -0.252 OA
ATOM      8  N   UNL     1       2.340  -0.249   0.703  0.00  0.00    -0.281 N 
ATOM      9  H   UNL     1       1.752  -0.987   0.477  0.00  0.00    +0.152 HD
ENDROOT
BRANCH   2  10
ATOM     10  C   UNL     1       1.158   1.776  -0.007  0.00  0.00    -0.015 A 
ATOM     11  C   UNL     1       1.164   3.170  -0.009  0.00  0.00    +0.007 A 
ATOM     12  C   UNL     1       0.000   3.875   0.001  0.00  0.00    +0.009 A 
ATOM     13  C   UNL     1      -1.227   3.191   0.013  0.00  0.00    -0.018 A 
ATOM     14  C   UNL     1      -2.450   3.885   0.024  0.00  0.00    +0.008 A 
ATOM     15  C   UNL     1      -3.619   3.189   0.036  0.00  0.00    +0.001 A 
ATOM     16  C   UNL     1      -3.625   1.796   0.038  0.00  0.00    +0.001 A 
ATOM     17  C   UNL     1      -2.461   1.090   0.028  0.00  0.00    +0.008 A 
ATOM     18  C   UNL     1      -1.233   1.774   0.009  0.00  0.00    -0.018 A 
ATOM     19  C   UNL     1      -0.011   1.080   0.004  0.00  0.00    +0.014 A 
ENDBRANCH   2  10
BRANCH   5  20
ATOM     20  C   UNL     1       4.875   1.291   2.797  0.00  0.00    +0.214 C 
BRANCH  20  21
ATOM     21  C   UNL     1       6.235   0.842   2.328  0.00  0.00    +0.235 C 
ATOM     22  O   UNL     1       6.356   0.299   1.251  0.00  0.00    -0.274 OA
ATOM     23  N   UNL     1       7.316   1.044   3.107  0.00  0.00    -0.284 N 
ATOM     24  H   UNL     1       7.231   1.538   3.937  0.00  0.00    +0.155 HD
BRANCH  23  25
ATOM     25  C   UNL     1       8.563   0.542   2.716  0.00  0.00    +0.033 A 
ATOM     26  C   UNL     1       9.458   0.082   3.673  0.00  0.00    +0.023 A 
ATOM     27  C   UNL     1      10.685  -0.419   3.284  0.00  0.00    +0.002 A 
ATOM     28  C   UNL     1      11.027  -0.452   1.945  0.00  0.00    +0.000 A 
ATOM     29  C   UNL     1      10.140   0.011   0.990  0.00  0.00    +0.002 A 
ATOM     30  C   UNL     1       8.909   0.507   1.372  0.00  0.00    +0.023 A 
ENDBRANCH  23  25
ENDBRANCH  20  21
ENDBRANCH   5  20
TORSDOF 4
