REMARK  Name = ZINC02654162
REMARK  8 active torsions:
REMARK  status: ('A' for Active; 'I' for Inactive)
REMARK    1  A    between atoms: C_1  and  O_2
REMARK    2  A    between atoms: O_2  and  C_3
REMARK    3  A    between atoms: C_5  and  C_21
REMARK    4  A    between atoms: C_8  and  O_9
REMARK    5  A    between atoms: O_9  and  C_10
REMARK    6  A    between atoms: C_10  and  C_11
REMARK    7  A    between atoms: C_15  and  C_17
REMARK    8  A    between atoms: C_33  and  C_37
REMARK                            x       y       z     vdW  Elec       q    Type
REMARK                         _______ _______ _______ _____ _____    ______ ____
ROOT
ATOM      1  C   UNL     1       2.079   0.411   4.588  0.00  0.00    +0.007 C 
ATOM      2  C   UNL     1       3.524   0.309   4.159  0.00  0.00    +0.011 A 
ATOM      3  C   UNL     1       4.539   0.132   5.035  0.00  0.00    -0.015 A 
ATOM      4  C   UNL     1       5.762   0.078   4.268  0.00  0.00    +0.004 A 
ATOM      5  C   UNL     1       7.104  -0.088   4.625  0.00  0.00    +0.010 A 
ATOM      6  C   UNL     1       8.023  -0.090   3.605  0.00  0.00    +0.001 A 
ATOM      7  C   UNL     1       7.652   0.065   2.279  0.00  0.00    +0.002 A 
ATOM      8  C   UNL     1       6.333   0.232   1.897  0.00  0.00    +0.026 A 
ATOM      9  C   UNL     1       5.377   0.237   2.910  0.00  0.00    +0.047 A 
ATOM     10  N   UNL     1       4.019   0.376   2.886  0.00  0.00    -0.359 N 
ATOM     11  H   UNL     1       3.485   0.501   2.086  0.00  0.00    +0.166 HD
ATOM     12  C   UNL     1       4.335   0.024   6.526  0.00  0.00    +0.036 C 
ATOM     13  C   UNL     1       2.920   0.528   6.844  0.00  0.00    -0.068 C 
ATOM     14  N   UNL     1       1.951  -0.124   5.952  0.00  0.00    +0.388 N 
ATOM     15  H   UNL     1       1.016   0.044   6.290  0.00  0.00    -0.084 HD
ATOM     16  H   UNL     1       2.127  -1.118   5.939  0.00  0.00    -0.084 HD
ENDROOT
BRANCH  12  17
ATOM     17  C   UNL     1       4.476  -1.413   6.957  0.00  0.00    -0.023 A 
ATOM     18  C   UNL     1       3.883  -2.419   6.216  0.00  0.00    +0.005 A 
ATOM     19  C   UNL     1       4.012  -3.737   6.612  0.00  0.00    +0.000 A 
ATOM     20  C   UNL     1       4.733  -4.050   7.750  0.00  0.00    +0.001 A 
ATOM     21  C   UNL     1       5.325  -3.046   8.491  0.00  0.00    +0.020 A 
ATOM     22  C   UNL     1       5.202  -1.727   8.092  0.00  0.00    +0.045 A 
ATOM     23 CL   UNL     1       5.952  -0.465   9.020  0.00  0.00    -0.083 Cl
ENDBRANCH  12  17
BRANCH   1  26
ATOM     24  C   UNL     1      -0.299  -0.480   1.791  0.00  0.00    +0.162 A 
ATOM     25  C   UNL     1       0.495   0.254   2.657  0.00  0.00    +0.051 A 
ATOM     26  C   UNL     1       1.215  -0.388   3.647  0.00  0.00    -0.052 A 
ATOM     27  C   UNL     1       1.144  -1.763   3.776  0.00  0.00    +0.006 A 
ATOM     28  C   UNL     1       0.353  -2.501   2.915  0.00  0.00    +0.049 A 
ATOM     29  C   UNL     1      -0.375  -1.863   1.925  0.00  0.00    +0.162 A 
BRANCH  24  31
ATOM     30  C   UNL     1      -0.882   1.572   0.739  0.00  0.00    +0.277 C 
ATOM     31  O   UNL     1      -1.008   0.151   0.817  0.00  0.00    -0.491 OA
ENDBRANCH  24  31
BRANCH  29  32
ATOM     32  O   UNL     1      -1.159  -2.587   1.081  0.00  0.00    -0.484 OA
BRANCH  32  33
ATOM     33  C   UNL     1      -1.188  -4.002   1.277  0.00  0.00    +0.264 C 
BRANCH  33  34
ATOM     34  C   UNL     1      -2.102  -4.632   0.257  0.00  0.00    -0.010 A 
ATOM     35  C   UNL     1      -3.446  -4.792   0.539  0.00  0.00    +0.007 A 
ATOM     36  C   UNL     1      -4.284  -5.370  -0.396  0.00  0.00    +0.001 A 
ATOM     37  C   UNL     1      -3.778  -5.787  -1.613  0.00  0.00    +0.012 A 
ATOM     38  C   UNL     1      -2.435  -5.625  -1.895  0.00  0.00    +0.055 A 
ATOM     39  C   UNL     1      -1.597  -5.044  -0.962  0.00  0.00    +0.019 A 
BRANCH  38  40
ATOM     40  C   UNL     1      -1.883  -6.080  -3.222  0.00  0.00    +0.417 C 
ATOM     41  F   UNL     1      -2.915  -6.628  -3.992  0.00  0.00    -0.166 F 
ATOM     42  F   UNL     1      -1.329  -4.987  -3.896  0.00  0.00    -0.166 F 
ATOM     43  F   UNL     1      -0.895  -7.048  -3.010  0.00  0.00    -0.166 F 
ENDBRANCH  38  40
ENDBRANCH  33  34
ENDBRANCH  32  33
ENDBRANCH  29  32
ENDBRANCH   1  26
TORSDOF 7
