REMARK  Name = ZINC06408959
REMARK  15 active torsions:
REMARK  status: ('A' for Active; 'I' for Inactive)
REMARK    1  A    between atoms: C_1  and  C_2
REMARK    2  A    between atoms: C_9  and  C_14
REMARK    3  A    between atoms: C_14  and  C_16
REMARK    4  A    between atoms: C_14  and  N_78
REMARK    5  A    between atoms: N_20  and  C_21
REMARK    6  A    between atoms: C_21  and  C_22
REMARK    7  A    between atoms: C_21  and  C_23
REMARK    8  A    between atoms: C_21  and  C_24
REMARK    9  A    between atoms: C_25  and  C_26
REMARK   10  A    between atoms: C_25  and  N_78
REMARK   11  A    between atoms: C_32  and  C_33
REMARK   12  A    between atoms: C_32  and  N_78
REMARK   13  A    between atoms: C_36  and  C_39
REMARK   14  A    between atoms: C_39  and  C_40
REMARK   15  A    between atoms: C_39  and  C_41
REMARK                            x       y       z     vdW  Elec       q    Type
REMARK                         _______ _______ _______ _____ _____    ______ ____
ROOT
ATOM      1  C   UNL     1       5.416  -1.645  -1.187  0.00  0.00    +0.040 C 
ENDROOT
BRANCH   1  10
ATOM      2  C   UNL     1       9.871  -1.352   4.787  0.00  0.00    +0.044 C 
ATOM      3  C   UNL     1       9.324  -0.738   3.524  0.00  0.00    -0.050 A 
ATOM      4  C   UNL     1       9.765   0.515   3.121  0.00  0.00    +0.005 A 
ATOM      5  C   UNL     1       9.277   1.096   1.971  0.00  0.00    +0.026 A 
ATOM      6  C   UNL     1       8.333   0.421   1.203  0.00  0.00    +0.049 A 
ATOM      7  C   UNL     1       7.889  -0.849   1.615  0.00  0.00    -0.001 A 
ATOM      8  C   UNL     1       8.398  -1.419   2.787  0.00  0.00    +0.013 A 
ATOM      9  C   UNL     1       6.895  -1.552   0.800  0.00  0.00    +0.017 A 
ATOM     10  C   UNL     1       6.439  -0.950  -0.326  0.00  0.00    +0.011 A 
ATOM     11  C   UNL     1       6.921   0.323  -0.697  0.00  0.00    +0.251 A 
ATOM     12  O   UNL     1       6.501   0.844  -1.716  0.00  0.00    -0.268 OA
ATOM     13  N   UNL     1       7.830   0.978   0.047  0.00  0.00    -0.322 N 
ATOM     14  H   UNL     1       8.137   1.854  -0.235  0.00  0.00    +0.169 HD
ENDBRANCH   1  10
BRANCH   1  15
ATOM     15  C   UNL     1       6.021  -1.962  -2.530  0.00  0.00    +0.143 A 
ATOM     16  N   UNL     1       6.231  -1.119  -3.512  0.00  0.00    -0.115 NA
ATOM     17  N   UNL     1       6.765  -1.770  -4.487  0.00  0.00    -0.023 NA
ATOM     18  N   UNL     1       6.894  -3.007  -4.156  0.00  0.00    -0.043 NA
ATOM     19  N   UNL     1       6.447  -3.165  -2.956  0.00  0.00    -0.225 N 
BRANCH  19  20
ATOM     20  C   UNL     1       6.411  -4.419  -2.199  0.00  0.00    +0.059 C 
ATOM     21  C   UNL     1       4.957  -4.798  -1.910  0.00  0.00    +0.036 C 
ATOM     22  C   UNL     1       7.074  -5.529  -3.018  0.00  0.00    +0.036 C 
ATOM     23  C   UNL     1       7.164  -4.241  -0.879  0.00  0.00    +0.036 C 
ENDBRANCH  19  20
ENDBRANCH   1  15
BRANCH   1  24
ATOM     24  N   UNL     1       4.259  -0.747  -1.386  0.00  0.00    +0.395 N 
ATOM     25  H   UNL     1       4.535   0.019  -2.012  0.00  0.00    -0.079 HD
BRANCH  24  26
ATOM     26  C   UNL     1       3.831  -0.179  -0.091  0.00  0.00    -0.041 C 
BRANCH  26  27
ATOM     27  C   UNL     1       2.871   0.953  -0.351  0.00  0.00    -0.064 A 
ATOM     28  C   UNL     1       1.508   0.729  -0.300  0.00  0.00    +0.002 A 
ATOM     29  C   UNL     1       0.628   1.768  -0.539  0.00  0.00    +0.000 A 
ATOM     30  C   UNL     1       1.110   3.030  -0.830  0.00  0.00    +0.000 A 
ATOM     31  C   UNL     1       2.473   3.254  -0.881  0.00  0.00    +0.000 A 
ATOM     32  C   UNL     1       3.354   2.216  -0.642  0.00  0.00    +0.002 A 
ENDBRANCH  26  27
ENDBRANCH  24  26
BRANCH  24  33
ATOM     33  C   UNL     1       3.142  -1.492  -2.004  0.00  0.00    -0.041 C 
BRANCH  33  34
ATOM     34  C   UNL     1       3.356  -1.530  -3.495  0.00  0.00    -0.064 A 
ATOM     35  C   UNL     1       3.009  -0.440  -4.271  0.00  0.00    +0.002 A 
ATOM     36  C   UNL     1       3.209  -0.473  -5.639  0.00  0.00    +0.004 A 
ATOM     37  C   UNL     1       3.747  -1.599  -6.231  0.00  0.00    -0.045 A 
ATOM     38  C   UNL     1       4.089  -2.692  -5.456  0.00  0.00    +0.004 A 
ATOM     39  C   UNL     1       3.893  -2.657  -4.088  0.00  0.00    +0.002 A 
BRANCH  37  40
ATOM     40  C   UNL     1       3.962  -1.637  -7.723  0.00  0.00    +0.013 C 
ATOM     41  C   UNL     1       2.640  -1.347  -8.436  0.00  0.00    +0.012 C 
ATOM     42  C   UNL     1       4.995  -0.579  -8.116  0.00  0.00    +0.012 C 
ENDBRANCH  37  40
ENDBRANCH  33  34
ENDBRANCH  24  33
ENDBRANCH   1  24
TORSDOF 9
