REMARK  Name = ZINC37628766
REMARK  3 active torsions:
REMARK  status: ('A' for Active; 'I' for Inactive)
REMARK    1  A    between atoms: C_1  and  C_2
REMARK    2  A    between atoms: C_3  and  S_4
REMARK    3  A    between atoms: S_4  and  C_6
REMARK                            x       y       z     vdW  Elec       q    Type
REMARK                         _______ _______ _______ _____ _____    ______ ____
ROOT
ATOM      1  C   UNL     1      -0.018   1.468   0.010  0.00  0.00    +0.107 C 
ATOM      2  C   UNL     1       0.002  -0.004   0.002  0.00  0.00    -0.092 C 
ATOM      3  C   UNL     1       0.018  -1.178  -0.004  0.00  0.00    -0.002 C 
ENDROOT
BRANCH   3   4
ATOM      4  S   UNL     1       0.042  -2.957  -0.014  0.00  0.00    +0.095 S 
ATOM      5  O   UNL     1      -1.332  -3.319  -0.003  0.00  0.00    -0.244 OA
ATOM      6  C   UNL     1       0.765  -3.377  -1.624  0.00  0.00    +0.136 C 
ENDBRANCH   3   4
TORSDOF 1
