REMARK  Name = ZINC08185125
REMARK  7 active torsions:
REMARK  status: ('A' for Active; 'I' for Inactive)
REMARK    1  A    between atoms: C_1  and  C_2
REMARK    2  A    between atoms: C_5  and  S_8
REMARK    3  A    between atoms: S_8  and  N_11
REMARK    4  A    between atoms: C_14  and  C_27
REMARK    5  A    between atoms: C_15  and  C_26
REMARK    6  A    between atoms: C_19  and  C_21
REMARK    7  A    between atoms: C_21  and  N_52
REMARK                            x       y       z     vdW  Elec       q    Type
REMARK                         _______ _______ _______ _____ _____    ______ ____
ROOT
ATOM      1  N   UNL     1       2.791  -2.004   0.694  0.00  0.00    -0.199 N 
ATOM      2  C   UNL     1       1.610  -1.537   0.146  0.00  0.00    +0.150 A 
ATOM      3  C   UNL     1       1.343  -0.141   0.095  0.00  0.00    +0.052 A 
ATOM      4  C   UNL     1       2.151   0.977   0.550  0.00  0.00    -0.028 A 
ATOM      5  C   UNL     1       1.687   2.226   0.394  0.00  0.00    -0.008 A 
ATOM      6  S   UNL     1       0.103   1.988  -0.389  0.00  0.00    -0.074 S 
ATOM      7  C   UNL     1       0.107   0.217  -0.486  0.00  0.00    +0.114 A 
ATOM      8  N   UNL     1      -0.728  -0.695  -0.944  0.00  0.00    -0.227 NA
ATOM      9  C   UNL     1      -0.424  -1.976  -0.868  0.00  0.00    +0.116 A 
ATOM     10  N   UNL     1       0.715  -2.383  -0.337  0.00  0.00    -0.217 NA
ATOM     11  C   UNL     1       2.348   3.522   0.787  0.00  0.00    +0.052 C 
ATOM     12  C   UNL     1       3.493   0.736   1.190  0.00  0.00    +0.045 C 
ATOM     13  H   UNL     1       3.601  -1.475   0.623  0.00  0.00    +0.175 HD
ENDROOT
BRANCH   1  14
ATOM     14  S   UNL     1       2.822  -3.466   1.471  0.00  0.00    +0.073 S 
ATOM     15  O   UNL     1       4.161  -3.669   1.901  0.00  0.00    -0.150 OA
ATOM     16  O   UNL     1       1.723  -3.471   2.372  0.00  0.00    -0.150 OA
BRANCH  14  21
ATOM     17  C   UNL     1       1.680  -7.709  -2.665  0.00  0.00    +0.044 C 
ATOM     18  C   UNL     1       1.966  -6.649  -1.632  0.00  0.00    -0.050 A 
ATOM     19  C   UNL     1       3.249  -6.159  -1.480  0.00  0.00    +0.005 A 
ATOM     20  C   UNL     1       3.511  -5.188  -0.533  0.00  0.00    +0.029 A 
ATOM     21  C   UNL     1       2.489  -4.705   0.263  0.00  0.00    +0.109 A 
ATOM     22  C   UNL     1       1.206  -5.198   0.115  0.00  0.00    +0.029 A 
ATOM     23  C   UNL     1       0.943  -6.167  -0.836  0.00  0.00    +0.005 A 
ENDBRANCH  14  21
ENDBRANCH   1  14
BRANCH   9  24
ATOM     24  C   UNL     1      -1.397  -2.997  -1.398  0.00  0.00    -0.001 C 
BRANCH  24  29
ATOM     25  C   UNL     1       0.211  -3.554  -3.140  0.00  0.00    -0.078 C 
ATOM     26  C   UNL     1       0.113  -4.182  -4.553  0.00  0.00    -0.020 C 
ATOM     27  C   UNL     1      -1.236  -4.935  -4.504  0.00  0.00    -0.020 C 
ATOM     28  C   UNL     1      -2.034  -4.257  -3.375  0.00  0.00    -0.078 C 
ATOM     29  N   UNL     1      -1.185  -3.179  -2.866  0.00  0.00    +0.384 N 
ATOM     30  H   UNL     1      -1.410  -2.302  -3.350  0.00  0.00    -0.081 HD
ENDBRANCH  24  29
ENDBRANCH   9  24
TORSDOF 4
