REMARK  Name = ZINC36059039
REMARK  11 active torsions:
REMARK  status: ('A' for Active; 'I' for Inactive)
REMARK    1  A    between atoms: C_1  and  C_2
REMARK    2  A    between atoms: C_2  and  N_3
REMARK    3  A    between atoms: N_3  and  C_4
REMARK    4  A    between atoms: N_3  and  C_6
REMARK    5  A    between atoms: C_4  and  C_5
REMARK    6  A    between atoms: C_6  and  C_7
REMARK    7  A    between atoms: C_7  and  N_8
REMARK    8  A    between atoms: N_8  and  C_9
REMARK    9  A    between atoms: C_9  and  C_10
REMARK   10  A    between atoms: C_21  and  C_24
REMARK   11  A    between atoms: C_27  and  C_30
REMARK                            x       y       z     vdW  Elec       q    Type
REMARK                         _______ _______ _______ _____ _____    ______ ____
ROOT
ATOM      1  C   UNL     1       2.339  -6.098   3.673  0.00  0.00    +0.199 C 
ATOM      2  O   UNL     1       2.018  -6.675   2.655  0.00  0.00    -0.278 OA
ATOM      3  N   UNL     1       2.823  -6.797   4.719  0.00  0.00    -0.300 N 
ATOM      4  C   UNL     1       3.210  -6.113   5.961  0.00  0.00    +0.126 C 
ATOM      5  C   UNL     1       2.447  -6.750   7.129  0.00  0.00    +0.125 C 
ATOM      6  N   UNL     1       2.598  -8.210   7.048  0.00  0.00    -0.311 N 
ATOM      7  C   UNL     1       2.211  -8.894   5.806  0.00  0.00    +0.125 C 
ATOM      8  C   UNL     1       2.969  -8.258   4.640  0.00  0.00    +0.126 C 
ATOM      9  C   UNL     1       3.098  -8.931   8.126  0.00  0.00    +0.144 A 
ATOM     10  C   UNL     1       3.256  -8.312   9.368  0.00  0.00    +0.047 A 
ATOM     11  C   UNL     1       3.756  -9.069  10.412  0.00  0.00    +0.033 A 
ATOM     12  C   UNL     1       4.073 -10.408  10.158  0.00  0.00    +0.093 A 
ATOM     13  N   UNL     1       3.889 -10.910   8.945  0.00  0.00    -0.147 NA
ATOM     14  N   UNL     1       3.420 -10.208   7.979  0.00  0.00    -0.134 NA
ENDROOT
BRANCH  12  15
ATOM     15  C   UNL     1       4.613 -11.263  11.243  0.00  0.00    +0.002 A 
ATOM     16  C   UNL     1       4.801 -10.736  12.520  0.00  0.00    +0.010 A 
ATOM     17  C   UNL     1       5.304 -11.536  13.526  0.00  0.00    +0.004 A 
ATOM     18  C   UNL     1       5.621 -12.858  13.269  0.00  0.00    -0.050 A 
ATOM     19  C   UNL     1       5.437 -13.386  12.004  0.00  0.00    +0.004 A 
ATOM     20  C   UNL     1       4.929 -12.596  10.992  0.00  0.00    +0.010 A 
ATOM     21  C   UNL     1       6.170 -13.726  14.372  0.00  0.00    +0.044 C 
ENDBRANCH  12  15
BRANCH   1  22
ATOM     22  C   UNL     1       2.195  -4.601   3.769  0.00  0.00    +0.015 C 
BRANCH  22  23
ATOM     23  N   UNL     1       1.650  -4.080   2.509  0.00  0.00    +0.384 N 
ATOM     24  H   UNL     1       0.746  -4.494   2.337  0.00  0.00    -0.085 HD
ATOM     25  H   UNL     1       2.275  -4.310   1.751  0.00  0.00    -0.085 HD
BRANCH  23  26
ATOM     26  C   UNL     1       1.510  -2.621   2.602  0.00  0.00    -0.101 C 
BRANCH  26  27
ATOM     27  C   UNL     1       0.942  -2.078   1.289  0.00  0.00    -0.098 C 
BRANCH  27  28
ATOM     28  N   UNL     1       0.688  -0.637   1.425  0.00  0.00    +0.378 N 
ATOM     29  H   UNL     1       0.090  -0.474   2.221  0.00  0.00    -0.082 HD
BRANCH  28  31
ATOM     30  C   UNL     1       1.688   1.551   1.880  0.00  0.00    -0.017 C 
ATOM     31  C   UNL     1       1.961   0.069   1.615  0.00  0.00    -0.082 C 
ENDBRANCH  28  31
BRANCH  28  32
ATOM     32  C   UNL     1       0.029  -0.140   0.209  0.00  0.00    -0.082 C 
ATOM     33  C   UNL     1      -1.365  -0.759   0.095  0.00  0.00    -0.017 C 
ENDBRANCH  28  32
ENDBRANCH  27  28
ENDBRANCH  26  27
ENDBRANCH  23  26
ENDBRANCH  22  23
ENDBRANCH   1  22
TORSDOF 8
