REMARK  Name = ZINC02151289
REMARK  10 active torsions:
REMARK  status: ('A' for Active; 'I' for Inactive)
REMARK    1  A    between atoms: C_1  and  C_2
REMARK    2  A    between atoms: C_2  and  O_3
REMARK    3  A    between atoms: O_3  and  C_4
REMARK    4  A    between atoms: C_4  and  C_6
REMARK    5  A    between atoms: C_11  and  O_12
REMARK    6  A    between atoms: O_12  and  C_13
REMARK    7  A    between atoms: C_13  and  C_14
REMARK    8  A    between atoms: C_16  and  C_22
REMARK    9  A    between atoms: C_19  and  O_20
REMARK   10  A    between atoms: O_20  and  C_21
REMARK                            x       y       z     vdW  Elec       q    Type
REMARK                         _______ _______ _______ _____ _____    ______ ____
ROOT
ATOM      1  C   UNL     1       2.961  -2.156   1.375  0.00  0.00    +0.031 A 
ATOM      2  C   UNL     1       2.778  -1.110   0.490  0.00  0.00    +0.013 A 
ATOM      3  C   UNL     1       2.736   0.191   0.955  0.00  0.00    -0.055 A 
ATOM      4  C   UNL     1       2.864   0.449   2.308  0.00  0.00    +0.006 A 
ATOM      5  C   UNL     1       3.040  -0.594   3.197  0.00  0.00    +0.046 A 
ATOM      6  C   UNL     1       3.089  -1.900   2.732  0.00  0.00    +0.126 A 
ENDROOT
BRANCH   3   7
ATOM      7  C   UNL     1       2.543   1.330  -0.012  0.00  0.00    +0.007 C 
ATOM      8  C   UNL     1       1.097   1.768   0.001  0.00  0.00    +0.010 A 
ATOM      9  C   UNL     1       0.721   3.067   0.011  0.00  0.00    -0.022 A 
ATOM     10  C   UNL     1      -0.724   3.094   0.025  0.00  0.00    +0.003 A 
ATOM     11  C   UNL     1      -1.656   4.136   0.038  0.00  0.00    +0.010 A 
ATOM     12  C   UNL     1      -2.983   3.783   0.050  0.00  0.00    +0.001 A 
ATOM     13  C   UNL     1      -3.393   2.460   0.047  0.00  0.00    +0.002 A 
ATOM     14  C   UNL     1      -2.493   1.409   0.033  0.00  0.00    +0.026 A 
ATOM     15  C   UNL     1      -1.139   1.736   0.016  0.00  0.00    +0.047 A 
ATOM     16  N   UNL     1      -0.011   0.966   0.007  0.00  0.00    -0.359 N 
ATOM     17  H   UNL     1       0.002  -0.004   0.002  0.00  0.00    +0.166 HD
ATOM     18  C   UNL     1       1.698   4.216   0.006  0.00  0.00    +0.018 C 
ATOM     19  C   UNL     1       3.071   3.669  -0.406  0.00  0.00    -0.076 C 
ATOM     20  N   UNL     1       3.390   2.471   0.398  0.00  0.00    +0.387 N 
ATOM     21  H   UNL     1       4.377   2.226   0.262  0.00  0.00    -0.084 HD
ATOM     22  H   UNL     1       3.222   2.677   1.390  0.00  0.00    -0.084 HD
ENDBRANCH   3   7
BRANCH   6  23
ATOM     23  O   UNL     1       3.262  -2.927   3.604  0.00  0.00    -0.495 OA
ATOM     24  C   UNL     1       3.387  -2.590   4.987  0.00  0.00    +0.277 C 
ENDBRANCH   6  23
BRANCH   1  25
ATOM     25  C   UNL     1       3.013  -3.573   0.866  0.00  0.00    +0.268 C 
BRANCH  25  26
ATOM     26  O   UNL     1       2.858  -3.576  -0.555  0.00  0.00    -0.486 OA
BRANCH  26  32
ATOM     27  C   UNL     1       2.737  -4.861  -2.567  0.00  0.00    +0.101 A 
ATOM     28  C   UNL     1       2.764  -6.110  -3.194  0.00  0.00    +0.018 A 
ATOM     29  C   UNL     1       2.933  -7.252  -2.442  0.00  0.00    +0.001 A 
ATOM     30  C   UNL     1       3.076  -7.170  -1.067  0.00  0.00    +0.004 A 
ATOM     31  C   UNL     1       3.057  -5.942  -0.435  0.00  0.00    +0.046 A 
ATOM     32  C   UNL     1       2.882  -4.782  -1.175  0.00  0.00    +0.135 A 
BRANCH  27  33
ATOM     33  C   UNL     1       2.556  -3.635  -3.364  0.00  0.00    +0.343 C 
ATOM     34  O   UNL     1       2.533  -2.551  -2.816  0.00  0.00    -0.245 OA
BRANCH  33  35
ATOM     35  O   UNL     1       2.416  -3.716  -4.702  0.00  0.00    -0.461 OA
BRANCH  35  37
ATOM     36  C   UNL     1       2.101  -2.758  -6.919  0.00  0.00    +0.048 C 
ATOM     37  C   UNL     1       2.242  -2.468  -5.423  0.00  0.00    +0.229 C 
ENDBRANCH  35  37
ENDBRANCH  33  35
ENDBRANCH  27  33
ENDBRANCH  26  32
ENDBRANCH  25  26
ENDBRANCH   1  25
TORSDOF 8
