REMARK  Name = ZINC04064048
REMARK  5 active torsions:
REMARK  status: ('A' for Active; 'I' for Inactive)
REMARK    1  A    between atoms: C_4  and  N_7
REMARK    2  A    between atoms: C_8  and  C_10
REMARK    3  A    between atoms: C_10  and  N_58
REMARK    4  A    between atoms: C_13  and  O_31
REMARK    5  A    between atoms: C_20  and  C_22
REMARK                            x       y       z     vdW  Elec       q    Type
REMARK                         _______ _______ _______ _____ _____    ______ ____
ROOT
ATOM      1  C   UNL     1       5.890   2.273  -0.994  0.00  0.00    -0.075 C 
ATOM      2  C   UNL     1       6.536   2.318   0.393  0.00  0.00    +0.016 C 
ATOM      3  C   UNL     1       5.573   2.995   1.374  0.00  0.00    +0.066 C 
ATOM      4  C   UNL     1       5.322   4.434   0.917  0.00  0.00    +0.035 C 
ATOM      5  C   UNL     1       4.327   5.107   1.865  0.00  0.00    +0.003 C 
ATOM      6  C   UNL     1       3.009   4.329   1.872  0.00  0.00    +0.000 C 
ATOM      7  C   UNL     1       3.268   2.896   2.341  0.00  0.00    +0.005 C 
ATOM      8  C   UNL     1       4.256   2.217   1.394  0.00  0.00    +0.011 C 
ATOM      9  C   UNL     1       3.672   2.176  -0.019  0.00  0.00    -0.031 C 
ATOM     10  N   UNL     1       4.633   1.498  -0.915  0.00  0.00    +0.390 N 
ATOM     11  H   UNL     1       4.840   0.566  -0.536  0.00  0.00    -0.080 HD
ENDROOT
BRANCH   9  12
ATOM     12  C   UNL     1       2.381   1.397  -0.008  0.00  0.00    -0.057 A 
ATOM     13  C   UNL     1       2.410   0.015  -0.016  0.00  0.00    +0.006 A 
ATOM     14  C   UNL     1       1.229  -0.704  -0.006  0.00  0.00    +0.050 A 
ATOM     15  C   UNL     1       0.013  -0.040   0.012  0.00  0.00    +0.166 A 
ATOM     16  C   UNL     1      -0.015   1.353   0.021  0.00  0.00    +0.166 A 
ATOM     17  C   UNL     1       1.172   2.067   0.011  0.00  0.00    +0.051 A 
ATOM     18  O   UNL     1      -1.317   1.762   0.033  0.00  0.00    -0.453 OA
ATOM     19  C   UNL     1      -2.087   0.616  -0.371  0.00  0.00    +0.466 C 
ATOM     20  O   UNL     1      -1.271  -0.502   0.025  0.00  0.00    -0.453 OA
ENDBRANCH   9  12
BRANCH   3  21
ATOM     21  O   UNL     1       6.147   3.001   2.683  0.00  0.00    -0.388 OA
ATOM     22  H   UNL     1       6.990   3.471   2.741  0.00  0.00    +0.210 HD
ENDBRANCH   3  21
BRANCH  10  23
ATOM     23  C   UNL     1       4.048   1.348  -2.263  0.00  0.00    +0.020 C 
BRANCH  23  25
ATOM     24  N   UNL     1       4.618   0.165  -4.359  0.00  0.00    -0.287 N 
ATOM     25  C   UNL     1       4.951   0.468  -3.089  0.00  0.00    +0.201 C 
ATOM     26  O   UNL     1       5.976   0.032  -2.610  0.00  0.00    -0.278 OA
ATOM     27  H   UNL     1       3.767   0.458  -4.721  0.00  0.00    +0.155 HD
BRANCH  24  31
ATOM     28  C   UNL     1       7.248  -2.026  -6.734  0.00  0.00    +0.000 A 
ATOM     29  C   UNL     1       7.156  -2.292  -5.380  0.00  0.00    +0.002 A 
ATOM     30  C   UNL     1       6.285  -1.567  -4.590  0.00  0.00    +0.023 A 
ATOM     31  C   UNL     1       5.502  -0.571  -5.157  0.00  0.00    +0.033 A 
ATOM     32  C   UNL     1       5.592  -0.310  -6.518  0.00  0.00    +0.023 A 
ATOM     33  C   UNL     1       6.469  -1.034  -7.302  0.00  0.00    +0.002 A 
ENDBRANCH  24  31
ENDBRANCH  23  25
ENDBRANCH  10  23
TORSDOF 5
