REMARK  Name = ZINC12114338
REMARK  4 active torsions:
REMARK  status: ('A' for Active; 'I' for Inactive)
REMARK    1  A    between atoms: C_1  and  N_2
REMARK    2  A    between atoms: C_6  and  C_7
REMARK    3  A    between atoms: C_7  and  O_26
REMARK    4  A    between atoms: C_17  and  C_19
REMARK                            x       y       z     vdW  Elec       q    Type
REMARK                         _______ _______ _______ _____ _____    ______ ____
ROOT
ATOM      1  C   UNL     1       1.252   2.755   0.162  0.00  0.00    +0.125 C 
ATOM      2  C   UNL     1       1.586   1.278  -0.068  0.00  0.00    +0.065 C 
ATOM      3  C   UNL     1       0.283   0.512  -0.346  0.00  0.00    +0.080 C 
ATOM      4  C   UNL     1      -0.742   0.910   0.740  0.00  0.00    +0.024 C 
ATOM      5  C   UNL     1      -1.455   2.163   0.143  0.00  0.00    +0.024 C 
ATOM      6  C   UNL     1      -0.785   2.384  -1.232  0.00  0.00    +0.080 C 
ATOM      7  C   UNL     1       0.438   3.290  -1.020  0.00  0.00    +0.065 C 
ATOM      8  N   UNL     1      -0.278   1.043  -1.612  0.00  0.00    -0.291 N 
ATOM      9  C   UNL     1      -0.309   0.452  -2.823  0.00  0.00    +0.250 C 
ATOM     10  O   UNL     1      -0.733   1.062  -3.786  0.00  0.00    -0.270 OA
ENDROOT
BRANCH   1  16
ATOM     11  C   UNL     1       3.349   2.517   2.431  0.00  0.00    +0.150 C 
ATOM     12  N   UNL     1       3.433   3.426   1.285  0.00  0.00    -0.337 N 
ATOM     13  C   UNL     1       4.441   4.315   1.026  0.00  0.00    +0.104 A 
ATOM     14  C   UNL     1       4.120   4.945  -0.121  0.00  0.00    +0.102 A 
ATOM     15  N   UNL     1       2.950   4.451  -0.552  0.00  0.00    -0.347 N 
ATOM     16  C   UNL     1       2.530   3.544   0.288  0.00  0.00    +0.119 A 
ATOM     17  H   UNL     1       2.505   4.826  -1.485  0.00  0.00    +0.167 HD
ENDBRANCH   1  16
BRANCH   9  18
ATOM     18  C   UNL     1       0.172  -0.935  -2.981  0.00  0.00    +0.072 A 
ATOM     19  C   UNL     1       1.317  -1.361  -2.304  0.00  0.00    +0.016 A 
ATOM     20  C   UNL     1       1.761  -2.658  -2.455  0.00  0.00    +0.001 A 
ATOM     21  C   UNL     1       1.076  -3.538  -3.275  0.00  0.00    +0.003 A 
ATOM     22  C   UNL     1      -0.058  -3.126  -3.949  0.00  0.00    +0.039 A 
ATOM     23  C   UNL     1      -0.519  -1.829  -3.803  0.00  0.00    +0.135 A 
ATOM     24  F   UNL     1      -1.631  -1.428  -4.458  0.00  0.00    -0.205 F 
ENDBRANCH   9  18
BRANCH   1  25
ATOM     25  O   UNL     1       0.490   2.889   1.363  0.00  0.00    -0.381 OA
ATOM     26  H   UNL     1      -0.480   2.380   1.459  0.00  0.00    +0.211 HD
ENDBRANCH   1  25
TORSDOF 3
