REMARK  Name = ZINC03384470
REMARK  12 active torsions:
REMARK  status: ('A' for Active; 'I' for Inactive)
REMARK    1  A    between atoms: C_4  and  C_7
REMARK    2  A    between atoms: C_7  and  C_8
REMARK    3  A    between atoms: C_8  and  C_10
REMARK    4  A    between atoms: C_8  and  N_58
REMARK    5  A    between atoms: C_12  and  C_15
REMARK    6  A    between atoms: C_21  and  C_22
REMARK    7  A    between atoms: C_21  and  N_58
REMARK    8  A    between atoms: C_22  and  C_24
REMARK    9  A    between atoms: C_22  and  O_34
REMARK   10  A    between atoms: C_24  and  O_25
REMARK   11  A    between atoms: O_25  and  C_26
REMARK   12  A    between atoms: C_26  and  C_27
REMARK                            x       y       z     vdW  Elec       q    Type
REMARK                         _______ _______ _______ _____ _____    ______ ____
ROOT
ATOM      1  C   UNL     1       1.690   3.051  -0.039  0.00  0.00    +0.023 C 
ENDROOT
BRANCH   1   2
ATOM      2  C   UNL     1       1.154   1.651   0.114  0.00  0.00    +0.214 A 
ATOM      3  N   UNL     1      -0.103   1.309   0.248  0.00  0.00    -0.193 NA
ATOM      4  C   UNL     1      -0.103  -0.040   0.350  0.00  0.00    +0.202 A 
ATOM      5  N   UNL     1       1.141  -0.433   0.273  0.00  0.00    -0.056 NA
ATOM      6  O   UNL     1       1.873   0.524   0.138  0.00  0.00    -0.339 OA
BRANCH   4   7
ATOM      7  C   UNL     1      -1.294  -0.910   0.517  0.00  0.00    +0.022 A 
ATOM      8  C   UNL     1      -2.567  -0.347   0.589  0.00  0.00    +0.012 A 
ATOM      9  C   UNL     1      -3.671  -1.162   0.739  0.00  0.00    +0.001 A 
ATOM     10  C   UNL     1      -3.515  -2.533   0.830  0.00  0.00    +0.000 A 
ATOM     11  C   UNL     1      -2.253  -3.096   0.765  0.00  0.00    +0.001 A 
ATOM     12  C   UNL     1      -1.143  -2.292   0.609  0.00  0.00    +0.012 A 
ENDBRANCH   4   7
ENDBRANCH   1   2
BRANCH   1  13
ATOM     13  N   UNL     1       2.703   3.077  -1.111  0.00  0.00    +0.389 N 
ATOM     14  H   UNL     1       3.271   2.224  -1.061  0.00  0.00    -0.085 HD
ATOM     15  H   UNL     1       3.306   3.898  -0.987  0.00  0.00    -0.085 HD
BRANCH  13  16
ATOM     16  C   UNL     1       2.049   3.149  -2.432  0.00  0.00    -0.048 C 
BRANCH  16  17
ATOM     17  C   UNL     1       3.115   3.048  -3.525  0.00  0.00    +0.123 C 
BRANCH  17  18
ATOM     18  O   UNL     1       3.729   1.759  -3.473  0.00  0.00    -0.391 OA
ATOM     19  H   UNL     1       3.114   1.025  -3.606  0.00  0.00    +0.210 HD
ENDBRANCH  17  18
BRANCH  17  20
ATOM     20  C   UNL     1       2.462   3.248  -4.894  0.00  0.00    +0.189 C 
BRANCH  20  21
ATOM     21  O   UNL     1       3.472   3.269  -5.905  0.00  0.00    -0.373 OA
BRANCH  21  22
ATOM     22  C   UNL     1       2.965   3.452  -7.228  0.00  0.00    +0.196 C 
BRANCH  22  23
ATOM     23  C   UNL     1       4.111   3.459  -8.208  0.00  0.00    -0.004 A 
ATOM     24  C   UNL     1       5.408   3.308  -7.755  0.00  0.00    +0.007 A 
ATOM     25  C   UNL     1       6.458   3.310  -8.654  0.00  0.00    +0.000 A 
ATOM     26  C   UNL     1       6.213   3.473 -10.005  0.00  0.00    +0.001 A 
ATOM     27  C   UNL     1       4.916   3.629 -10.458  0.00  0.00    +0.020 A 
ATOM     28  C   UNL     1       3.864   3.622  -9.559  0.00  0.00    +0.046 A 
ATOM     29 CL   UNL     1       2.236   3.819 -10.127  0.00  0.00    -0.083 Cl
ENDBRANCH  22  23
ENDBRANCH  21  22
ENDBRANCH  20  21
ENDBRANCH  17  20
ENDBRANCH  16  17
ENDBRANCH  13  16
ENDBRANCH   1  13
BRANCH   1  30
ATOM     30  C   UNL     1       2.337   3.496   1.274  0.00  0.00    +0.029 C 
BRANCH  30  34
ATOM     31  C   UNL     1       3.498   7.596   0.972  0.00  0.00    +0.000 A 
ATOM     32  C   UNL     1       2.199   7.269   1.313  0.00  0.00    +0.000 A 
ATOM     33  C   UNL     1       1.823   5.942   1.411  0.00  0.00    +0.003 A 
ATOM     34  C   UNL     1       2.746   4.942   1.167  0.00  0.00    -0.048 A 
ATOM     35  C   UNL     1       4.047   5.269   0.831  0.00  0.00    +0.003 A 
ATOM     36  C   UNL     1       4.421   6.596   0.728  0.00  0.00    +0.000 A 
ENDBRANCH  30  34
ENDBRANCH   1  30
TORSDOF 12
