REMARK  Name = ZINC03814622
REMARK  5 active torsions:
REMARK  status: ('A' for Active; 'I' for Inactive)
REMARK    1  A    between atoms: C_3  and  S_23
REMARK    2  A    between atoms: C_6  and  N_7
REMARK    3  A    between atoms: C_9  and  C_19
REMARK    4  A    between atoms: C_11  and  C_12
REMARK    5  A    between atoms: S_23  and  N_26
REMARK                            x       y       z     vdW  Elec       q    Type
REMARK                         _______ _______ _______ _____ _____    ______ ____
ROOT
ATOM      1  N   UNL     1      -3.085   3.224   4.774  0.00  0.00    -0.299 N 
ATOM      2  C   UNL     1      -4.446   3.162   4.927  0.00  0.00    +0.125 A 
ATOM      3  C   UNL     1      -4.707   3.378   6.232  0.00  0.00    +0.162 A 
ATOM      4  N   UNL     1      -3.547   3.569   6.870  0.00  0.00    -0.223 NA
ATOM      5  C   UNL     1      -2.557   3.474   6.010  0.00  0.00    +0.147 A 
ENDROOT
BRANCH   5   6
ATOM      6  C   UNL     1      -1.120   3.618   6.324  0.00  0.00    +0.037 A 
ATOM      7  C   UNL     1      -0.147   3.106   5.457  0.00  0.00    +0.029 A 
ATOM      8  C   UNL     1       1.185   3.272   5.795  0.00  0.00    +0.037 A 
ATOM      9  C   UNL     1       1.509   3.922   6.973  0.00  0.00    +0.126 A 
ATOM     10  N   UNL     1       0.570   4.389   7.773  0.00  0.00    -0.261 NA
ATOM     11  C   UNL     1      -0.710   4.261   7.493  0.00  0.00    +0.122 A 
ATOM     12 BR   UNL     1       2.548   2.610   4.663  0.00  0.00    -0.049 Br
ENDBRANCH   5   6
BRANCH   1  18
ATOM     13  C   UNL     1      -2.518   1.894   2.838  0.00  0.00    +0.028 A 
ATOM     14  C   UNL     1      -1.813   1.733   1.661  0.00  0.00    +0.030 A 
ATOM     15  C   UNL     1      -0.962   2.730   1.222  0.00  0.00    +0.105 A 
ATOM     16  C   UNL     1      -0.809   3.888   1.961  0.00  0.00    +0.030 A 
ATOM     17  C   UNL     1      -1.516   4.057   3.136  0.00  0.00    +0.028 A 
ATOM     18  C   UNL     1      -2.371   3.058   3.580  0.00  0.00    +0.048 A 
BRANCH  15  19
ATOM     19  S   UNL     1      -0.064   2.521  -0.280  0.00  0.00    +0.056 S 
ATOM     20  O   UNL     1       0.038   1.120  -0.500  0.00  0.00    -0.153 OA
ATOM     21  O   UNL     1       1.077   3.363  -0.192  0.00  0.00    -0.153 OA
BRANCH  19  22
ATOM     22  N   UNL     1      -1.005   3.124  -1.501  0.00  0.00    -0.204 NA
ATOM     23  H   UNL     1      -1.877   3.501  -1.301  0.00  0.00    +0.144 HD
ATOM     24  H   UNL     1      -0.685   3.102  -2.417  0.00  0.00    +0.144 HD
ENDBRANCH  19  22
ENDBRANCH  15  19
ENDBRANCH   1  18
BRANCH   3  25
ATOM     25  C   UNL     1      -6.075   3.400   6.865  0.00  0.00    +0.436 C 
ATOM     26  F   UNL     1      -6.412   2.111   7.293  0.00  0.00    -0.164 F 
ATOM     27  F   UNL     1      -6.067   4.268   7.962  0.00  0.00    -0.164 F 
ATOM     28  F   UNL     1      -7.015   3.841   5.928  0.00  0.00    -0.164 F 
ENDBRANCH   3  25
TORSDOF 5
