REMARK  Name = ZINC47496805
REMARK  3 active torsions:
REMARK  status: ('A' for Active; 'I' for Inactive)
REMARK    1  A    between atoms: N_10  and  C_11
REMARK    2  A    between atoms: C_11  and  C_12
REMARK    3  A    between atoms: N_14  and  C_15
REMARK                            x       y       z     vdW  Elec       q    Type
REMARK                         _______ _______ _______ _____ _____    ______ ____
ROOT
ATOM      1  C   UNL     1       2.485  -2.827  -0.344  0.00  0.00    +0.200 C 
ENDROOT
BRANCH   1  11
ATOM      2  C   UNL     1      -0.232   1.197   0.106  0.00  0.00    +0.044 A 
ATOM      3  C   UNL     1       0.919   1.964   0.129  0.00  0.00    +0.126 A 
ATOM      4  C   UNL     1       2.162   1.353   0.106  0.00  0.00    +0.078 A 
ATOM      5  C   UNL     1       2.250  -0.026   0.058  0.00  0.00    +0.147 A 
ATOM      6  C   UNL     1       1.092  -0.797   0.034  0.00  0.00    +0.069 A 
ATOM      7  C   UNL     1      -0.150  -0.186   0.060  0.00  0.00    -0.021 A 
ATOM      8  C   UNL     1      -1.424  -0.990   0.047  0.00  0.00    +0.039 C 
ATOM      9  C   UNL     1      -1.166  -2.392  -0.502  0.00  0.00    +0.024 C 
ATOM     10  C   UNL     1       0.015  -3.013   0.255  0.00  0.00    +0.106 C 
ATOM     11  N   UNL     1       1.204  -2.194  -0.020  0.00  0.00    -0.319 N 
ATOM     12  F   UNL     1       3.461  -0.624   0.034  0.00  0.00    -0.203 F 
ATOM     13  F   UNL     1       0.831   3.311   0.173  0.00  0.00    -0.205 F 
ENDBRANCH   1  11
BRANCH   1  14
ATOM     14  C   UNL     1       3.261  -3.070   0.925  0.00  0.00    +0.231 C 
ATOM     15  O   UNL     1       2.790  -2.747   1.995  0.00  0.00    -0.274 OA
ATOM     16  N   UNL     1       4.478  -3.647   0.871  0.00  0.00    -0.303 N 
ATOM     17  H   UNL     1       4.854  -3.905   0.015  0.00  0.00    +0.149 HD
BRANCH  16  18
ATOM     18  C   UNL     1       5.232  -3.883   2.104  0.00  0.00    +0.159 C 
ATOM     19  C   UNL     1       6.699  -4.159   1.765  0.00  0.00    +0.032 C 
ATOM     20  C   UNL     1       6.814  -4.924   0.459  0.00  0.00    +0.004 C 
ATOM     21  C   UNL     1       6.255  -6.334   0.523  0.00  0.00    +0.019 C 
ATOM     22  C   UNL     1       4.738  -6.311   0.714  0.00  0.00    +0.104 C 
ATOM     23  N   UNL     1       4.446  -6.224   2.154  0.00  0.00    -0.314 N 
ATOM     24  C   UNL     1       4.665  -5.088   2.824  0.00  0.00    +0.233 C 
ATOM     25  O   UNL     1       4.417  -5.023   4.009  0.00  0.00    -0.274 OA
ATOM     26  H   UNL     1       4.088  -6.996   2.621  0.00  0.00    +0.149 HD
ENDBRANCH  16  18
ENDBRANCH   1  14
TORSDOF 3
