REMARK  Name = ZINC63111161
REMARK  8 active torsions:
REMARK  status: ('A' for Active; 'I' for Inactive)
REMARK    1  A    between atoms: C_1  and  C_2
REMARK    2  A    between atoms: C_4  and  N_29
REMARK    3  A    between atoms: C_5  and  C_28
REMARK    4  A    between atoms: N_7  and  C_8
REMARK    5  A    between atoms: C_8  and  C_9
REMARK    6  A    between atoms: C_13  and  C_15
REMARK    7  A    between atoms: N_17  and  C_18
REMARK    8  A    between atoms: C_18  and  C_19
REMARK                            x       y       z     vdW  Elec       q    Type
REMARK                         _______ _______ _______ _____ _____    ______ ____
ROOT
ATOM      1  C   UNL     1       1.953   0.023   3.206  0.00  0.00    -0.031 A 
ATOM      2  C   UNL     1       1.308  -0.286   4.391  0.00  0.00    +0.005 A 
ATOM      3  C   UNL     1       2.020  -0.802   5.459  0.00  0.00    +0.001 A 
ATOM      4  C   UNL     1       3.380  -1.011   5.349  0.00  0.00    +0.013 A 
ATOM      5  C   UNL     1       4.036  -0.701   4.157  0.00  0.00    +0.037 A 
ATOM      6  C   UNL     1       3.311  -0.186   3.082  0.00  0.00    +0.018 A 
ENDROOT
BRANCH   5   7
ATOM      7  C   UNL     1       5.493  -0.921   4.033  0.00  0.00    +0.244 C 
ATOM      8  O   UNL     1       6.062  -0.650   2.993  0.00  0.00    -0.270 OA
ATOM      9  N   UNL     1       6.190  -1.423   5.072  0.00  0.00    -0.307 N 
ATOM     10  H   UNL     1       5.736  -1.639   5.901  0.00  0.00    +0.149 HD
BRANCH   9  11
ATOM     11  C   UNL     1       7.633  -1.641   4.948  0.00  0.00    +0.138 C 
BRANCH  11  12
ATOM     12  C   UNL     1       8.168  -2.204   6.240  0.00  0.00    -0.025 C 
ATOM     13  C   UNL     1       8.367  -3.509   6.538  0.00  0.00    +0.000 A 
ATOM     14  C   UNL     1       8.151  -4.746   5.778  0.00  0.00    +0.010 A 
ATOM     15  C   UNL     1       8.450  -5.931   6.357  0.00  0.00    +0.001 A 
ATOM     16  C   UNL     1       8.959  -6.007   7.661  0.00  0.00    +0.002 A 
ATOM     17  C   UNL     1       9.183  -4.915   8.421  0.00  0.00    +0.026 A 
ATOM     18  C   UNL     1       8.905  -3.616   7.912  0.00  0.00    +0.043 A 
ATOM     19  N   UNL     1       9.035  -2.424   8.444  0.00  0.00    -0.380 N 
ATOM     20  C   UNL     1       8.598  -1.425   7.462  0.00  0.00    +0.146 C 
ATOM     21  H   UNL     1       9.367  -2.235   9.335  0.00  0.00    +0.160 HD
ENDBRANCH  11  12
ENDBRANCH   9  11
ENDBRANCH   5   7
BRANCH   1  22
ATOM     22  C   UNL     1       1.169   0.584   2.048  0.00  0.00    +0.141 C 
BRANCH  22  28
ATOM     23  C   UNL     1      -0.019   1.526   0.010  0.00  0.00    +0.033 C 
ATOM     24  C   UNL     1       0.002  -0.004   0.002  0.00  0.00    +0.128 C 
ATOM     25  C   UNL     1      -1.405  -0.553   0.092  0.00  0.00    +0.139 C 
ATOM     26  C   UNL     1      -1.468  -1.261   1.202  0.00  0.00    +0.043 C 
ATOM     27  N   UNL     1      -0.265  -1.257   1.879  0.00  0.00    -0.279 N 
ATOM     28  N   UNL     1       0.674  -0.518   1.212  0.00  0.00    -0.216 NA
ATOM     29  C   UNL     1      -2.703  -1.985   1.674  0.00  0.00    +0.064 C 
ATOM     30  H   UNL     1      -0.105  -1.719   2.717  0.00  0.00    +0.166 HD
BRANCH  25  31
ATOM     31  N   UNL     1      -2.501  -0.336  -0.879  0.00  0.00    +0.055 N 
ATOM     32  O   UNL     1      -3.586  -0.835  -0.688  0.00  0.00    -0.126 OA
ATOM     33  O   UNL     1      -2.311   0.340  -1.864  0.00  0.00    -0.126 OA
ENDBRANCH  25  31
ENDBRANCH  22  28
ENDBRANCH   1  22
TORSDOF 6
