REMARK  Name = ZINC39686287
REMARK  9 active torsions:
REMARK  status: ('A' for Active; 'I' for Inactive)
REMARK    1  A    between atoms: C_1  and  C_2
REMARK    2  A    between atoms: C_2  and  C_3
REMARK    3  A    between atoms: C_2  and  C_4
REMARK    4  A    between atoms: C_4  and  C_5
REMARK    5  A    between atoms: C_10  and  N_13
REMARK    6  A    between atoms: C_14  and  C_16
REMARK    7  A    between atoms: C_27  and  C_29
REMARK    8  A    between atoms: C_33  and  O_34
REMARK    9  A    between atoms: O_34  and  C_35
REMARK                            x       y       z     vdW  Elec       q    Type
REMARK                         _______ _______ _______ _____ _____    ______ ____
ROOT
ATOM      1  C   UNL     1      -7.302  -5.967  -3.422  0.00  0.00    +0.100 C 
ATOM      2  C   UNL     1      -6.508  -6.021  -4.747  0.00  0.00    +0.121 C 
ATOM      3  N   UNL     1      -6.091  -7.437  -4.876  0.00  0.00    -0.296 N 
ATOM      4  C   UNL     1      -7.263  -8.211  -4.401  0.00  0.00    +0.115 C 
ATOM      5  C   UNL     1      -7.799  -7.405  -3.201  0.00  0.00    -0.004 C 
ATOM      6  C   UNL     1      -9.324  -7.440  -3.180  0.00  0.00    -0.010 C 
ATOM      7  C   UNL     1      -9.794  -8.870  -2.901  0.00  0.00    -0.082 C 
ATOM      8  N   UNL     1      -9.257  -9.320  -1.611  0.00  0.00    +0.379 N 
ATOM      9  C   UNL     1      -7.791  -9.373  -1.670  0.00  0.00    -0.082 C 
ATOM     10  C   UNL     1      -7.236  -7.964  -1.898  0.00  0.00    -0.010 C 
ATOM     11  C   UNL     1      -4.913  -7.914  -5.324  0.00  0.00    +0.251 C 
ATOM     12  O   UNL     1      -4.007  -7.146  -5.589  0.00  0.00    -0.270 OA
ATOM     13  H   UNL     1      -9.540  -8.677  -0.887  0.00  0.00    -0.086 HD
ATOM     14  H   UNL     1      -9.617 -10.239  -1.401  0.00  0.00    -0.086 HD
ENDROOT
BRANCH  11  15
ATOM     15  C   UNL     1      -4.722  -9.362  -5.493  0.00  0.00    +0.087 A 
ATOM     16  C   UNL     1      -5.752 -10.183  -5.899  0.00  0.00    +0.063 A 
ATOM     17  S   UNL     1      -5.067 -11.714  -5.946  0.00  0.00    -0.081 S 
ATOM     18  C   UNL     1      -3.406 -11.330  -5.435  0.00  0.00    +0.120 A 
ATOM     19  C   UNL     1      -3.444  -9.991  -5.247  0.00  0.00    +0.158 A 
ATOM     20 CL   UNL     1      -2.062 -12.410  -5.232  0.00  0.00    -0.072 Cl
BRANCH  19  21
ATOM     21  O   UNL     1      -2.352  -9.283  -4.848  0.00  0.00    -0.492 OA
ATOM     22  C   UNL     1      -2.156  -9.130  -3.441  0.00  0.00    +0.277 C 
ENDBRANCH  19  21
ENDBRANCH  11  15
BRANCH   1  24
ATOM     23  N   UNL     1      -6.913  -4.855  -1.247  0.00  0.00    -0.312 N 
ATOM     24  C   UNL     1      -6.404  -5.542  -2.289  0.00  0.00    +0.218 C 
ATOM     25  O   UNL     1      -5.223  -5.818  -2.315  0.00  0.00    -0.275 OA
ATOM     26  H   UNL     1      -7.857  -4.634  -1.227  0.00  0.00    +0.149 HD
BRANCH  23  32
ATOM     27  C   UNL     1      -5.190  -1.573   2.668  0.00  0.00    +0.216 C 
ATOM     28  O   UNL     1      -4.560  -0.592   2.332  0.00  0.00    -0.276 OA
ATOM     29  N   UNL     1      -5.189  -2.674   1.892  0.00  0.00    -0.301 N 
ATOM     30  C   UNL     1      -5.952  -3.867   2.284  0.00  0.00    +0.109 C 
ATOM     31  C   UNL     1      -6.873  -4.265   1.126  0.00  0.00    +0.041 C 
ATOM     32  C   UNL     1      -6.040  -4.441  -0.146  0.00  0.00    +0.076 C 
ATOM     33  C   UNL     1      -5.363  -3.116  -0.501  0.00  0.00    +0.041 C 
ATOM     34  C   UNL     1      -4.429  -2.703   0.635  0.00  0.00    +0.109 C 
BRANCH  27  35
ATOM     35  C   UNL     1      -5.974  -1.559   3.955  0.00  0.00    +0.099 C 
BRANCH  35  37
ATOM     36  C   UNL     1      -6.701  -0.141   5.880  0.00  0.00    +0.008 C 
ATOM     37  C   UNL     1      -5.808  -0.200   4.639  0.00  0.00    -0.008 C 
ATOM     38  C   UNL     1      -4.347  -0.013   5.054  0.00  0.00    +0.008 C 
ENDBRANCH  35  37
ENDBRANCH  27  35
ENDBRANCH  23  32
ENDBRANCH   1  24
TORSDOF 6
