REMARK  Name = ZINC24275405
REMARK  9 active torsions:
REMARK  status: ('A' for Active; 'I' for Inactive)
REMARK    1  A    between atoms: C_1  and  C_2
REMARK    2  A    between atoms: C_5  and  C_8
REMARK    3  A    between atoms: C_11  and  C_13
REMARK    4  A    between atoms: C_13  and  C_14
REMARK    5  A    between atoms: C_14  and  C_15
REMARK    6  A    between atoms: N_17  and  C_18
REMARK    7  A    between atoms: N_17  and  C_19
REMARK    8  A    between atoms: C_19  and  C_20
REMARK    9  A    between atoms: N_22  and  C_23
REMARK                            x       y       z     vdW  Elec       q    Type
REMARK                         _______ _______ _______ _____ _____    ______ ____
ROOT
ATOM      1  C   UNL     1      -0.042   1.113  -2.475  0.00  0.00    +0.216 C 
ATOM      2  O   UNL     1       0.959   0.435  -2.380  0.00  0.00    -0.276 OA
ATOM      3  N   UNL     1      -0.526   1.434  -3.691  0.00  0.00    -0.296 N 
ATOM      4  C   UNL     1      -1.734   2.254  -3.806  0.00  0.00    +0.132 C 
ENDROOT
BRANCH   1   5
ATOM      5  C   UNL     1      -0.744   1.597  -1.233  0.00  0.00    +0.105 C 
BRANCH   5   6
ATOM      6  C   UNL     1       0.004   1.097   0.004  0.00  0.00    +0.107 C 
BRANCH   6  10
ATOM      7  C   UNL     1      -1.308   2.764   2.942  0.00  0.00    +0.248 A 
ATOM      8  N   UNL     1      -2.017   1.660   2.900  0.00  0.00    -0.107 NA
ATOM      9  N   UNL     1      -1.652   0.961   1.883  0.00  0.00    -0.112 NA
ATOM     10  C   UNL     1      -0.699   1.581   1.247  0.00  0.00    +0.218 A 
ATOM     11  O   UNL     1      -0.459   2.734   1.895  0.00  0.00    -0.420 OA
BRANCH   7  16
ATOM     12  C   UNL     1      -1.740   6.949   6.869  0.00  0.00    +0.044 C 
ATOM     13  C   UNL     1      -1.627   5.853   5.840  0.00  0.00    -0.050 A 
ATOM     14  C   UNL     1      -2.447   4.742   5.925  0.00  0.00    +0.004 A 
ATOM     15  C   UNL     1      -2.348   3.735   4.987  0.00  0.00    +0.013 A 
ATOM     16  C   UNL     1      -1.419   3.839   3.951  0.00  0.00    +0.038 A 
ATOM     17  C   UNL     1      -0.591   4.960   3.875  0.00  0.00    +0.013 A 
ATOM     18  C   UNL     1      -0.704   5.962   4.816  0.00  0.00    +0.004 A 
ENDBRANCH   7  16
ENDBRANCH   6  10
ENDBRANCH   5   6
ENDBRANCH   1   5
BRANCH   3  19
ATOM     19  C   UNL     1       0.157   0.963  -4.899  0.00  0.00    +0.203 C 
BRANCH  19  20
ATOM     20  C   UNL     1      -0.406  -0.374  -5.306  0.00  0.00    +0.235 C 
ATOM     21  O   UNL     1      -1.291  -0.883  -4.651  0.00  0.00    -0.274 OA
ATOM     22  N   UNL     1       0.073  -1.003  -6.396  0.00  0.00    -0.284 N 
ATOM     23  H   UNL     1       0.822  -0.508  -7.033  0.00  0.00    +0.155 HD
BRANCH  22  24
ATOM     24  C   UNL     1      -0.381  -2.287  -6.720  0.00  0.00    +0.035 A 
ATOM     25  C   UNL     1       0.487  -3.208  -7.293  0.00  0.00    +0.025 A 
ATOM     26  C   UNL     1       0.039  -4.477  -7.604  0.00  0.00    +0.023 A 
ATOM     27  C   UNL     1      -1.277  -4.827  -7.359  0.00  0.00    +0.059 A 
ATOM     28  C   UNL     1      -2.147  -3.909  -6.794  0.00  0.00    +0.061 A 
ATOM     29  C   UNL     1      -1.701  -2.640  -6.473  0.00  0.00    +0.044 A 
ATOM     30 CL   UNL     1      -3.797  -4.352  -6.486  0.00  0.00    -0.082 Cl
ATOM     31 CL   UNL     1      -1.839  -6.420  -7.760  0.00  0.00    -0.082 Cl
ENDBRANCH  22  24
ENDBRANCH  19  20
ENDBRANCH   3  19
TORSDOF 7
