REMARK  Name = ZINC40112770
REMARK  14 active torsions:
REMARK  status: ('A' for Active; 'I' for Inactive)
REMARK    1  A    between atoms: C_1  and  C_2
REMARK    2  A    between atoms: C_2  and  C_3
REMARK    3  A    between atoms: C_2  and  C_4
REMARK    4  A    between atoms: C_2  and  C_5
REMARK    5  A    between atoms: C_7  and  C_16
REMARK    6  A    between atoms: C_9  and  C_12
REMARK    7  A    between atoms: C_10  and  O_11
REMARK    8  A    between atoms: C_12  and  C_13
REMARK    9  A    between atoms: C_12  and  C_14
REMARK   10  A    between atoms: C_12  and  C_15
REMARK   11  A    between atoms: N_17  and  N_18
REMARK   12  A    between atoms: N_18  and  C_19
REMARK   13  A    between atoms: C_20  and  C_31
REMARK   14  A    between atoms: C_22  and  C_24
REMARK                            x       y       z     vdW  Elec       q    Type
REMARK                         _______ _______ _______ _____ _____    ______ ____
ROOT
ATOM      1  C   UNL     1       2.413   0.934  -4.261  0.00  0.00    +0.138 C 
ATOM      2  N   UNL     1       3.020   0.512  -5.328  0.00  0.00    -0.188 NA
ENDROOT
BRANCH   1   5
ATOM      3  C   UNL     1       0.707  -0.490  -1.238  0.00  0.00    +0.000 A 
ATOM      4  C   UNL     1       1.215   0.418  -2.142  0.00  0.00    +0.017 A 
ATOM      5  C   UNL     1       1.869  -0.034  -3.291  0.00  0.00    -0.005 A 
ATOM      6  C   UNL     1       2.005  -1.406  -3.518  0.00  0.00    +0.017 A 
ATOM      7  C   UNL     1       1.494  -2.307  -2.609  0.00  0.00    +0.000 A 
ATOM      8  C   UNL     1       0.850  -1.853  -1.465  0.00  0.00    +0.124 A 
BRANCH   3  10
ATOM      9  C   UNL     1      -0.019   1.526   0.010  0.00  0.00    +0.015 C 
ATOM     10  C   UNL     1       0.002  -0.004   0.002  0.00  0.00    -0.009 C 
ATOM     11  C   UNL     1       0.742  -0.511   1.242  0.00  0.00    +0.015 C 
ATOM     12  C   UNL     1      -1.433  -0.534   0.013  0.00  0.00    +0.015 C 
ENDBRANCH   3  10
BRANCH   7  13
ATOM     13  C   UNL     1       1.640  -3.787  -2.853  0.00  0.00    -0.009 C 
ATOM     14  C   UNL     1       2.386  -4.015  -4.169  0.00  0.00    +0.015 C 
ATOM     15  C   UNL     1       2.428  -4.418  -1.704  0.00  0.00    +0.015 C 
ATOM     16  C   UNL     1       0.254  -4.429  -2.935  0.00  0.00    +0.015 C 
ENDBRANCH   7  13
BRANCH   8  17
ATOM     17  O   UNL     1       0.354  -2.745  -0.569  0.00  0.00    -0.506 OA
ATOM     18  H   UNL     1      -0.559  -3.011  -0.743  0.00  0.00    +0.292 HD
ENDBRANCH   8  17
ENDBRANCH   1   5
BRANCH   2  19
ATOM     19  N   UNL     1       3.537   1.431  -6.250  0.00  0.00    -0.205 N 
ATOM     20  H   UNL     1       3.442   2.384  -6.091  0.00  0.00    +0.177 HD
BRANCH  19  21
ATOM     21  C   UNL     1       4.181   0.984  -7.381  0.00  0.00    +0.244 A 
ATOM     22  C   UNL     1       4.747   1.767  -8.377  0.00  0.00    +0.203 A 
ATOM     23  N   UNL     1       5.272   0.917  -9.298  0.00  0.00    -0.196 NA
ATOM     24  C   UNL     1       5.051  -0.311  -8.907  0.00  0.00    +0.231 A 
ATOM     25  O   UNL     1       4.389  -0.299  -7.734  0.00  0.00    -0.419 OA
BRANCH  24  26
ATOM     26  C   UNL     1       5.466  -1.526  -9.637  0.00  0.00    +0.037 A 
ATOM     27  C   UNL     1       5.168  -2.790  -9.124  0.00  0.00    +0.016 A 
ATOM     28  C   UNL     1       5.558  -3.920  -9.810  0.00  0.00    +0.039 A 
ATOM     29  C   UNL     1       6.246  -3.804 -11.008  0.00  0.00    +0.123 A 
ATOM     30  C   UNL     1       6.546  -2.552 -11.522  0.00  0.00    +0.039 A 
ATOM     31  C   UNL     1       6.155  -1.415 -10.847  0.00  0.00    +0.016 A 
ATOM     32  F   UNL     1       6.627  -4.915 -11.676  0.00  0.00    -0.205 F 
ENDBRANCH  24  26
BRANCH  22  33
ATOM     33  C   UNL     1       4.773   3.198  -8.425  0.00  0.00    +0.124 C 
ATOM     34  N   UNL     1       4.793   4.333  -8.463  0.00  0.00    -0.189 NA
ENDBRANCH  22  33
ENDBRANCH  19  21
ENDBRANCH   2  19
TORSDOF 8
