REMARK  Name = ZINC06442686
REMARK  14 active torsions:
REMARK  status: ('A' for Active; 'I' for Inactive)
REMARK    1  A    between atoms: C_1  and  C_2
REMARK    2  A    between atoms: C_6  and  C_8
REMARK    3  A    between atoms: C_8  and  C_9
REMARK    4  A    between atoms: C_9  and  N_10
REMARK    5  A    between atoms: N_10  and  C_11
REMARK    6  A    between atoms: N_10  and  C_28
REMARK    7  A    between atoms: C_11  and  C_12
REMARK    8  A    between atoms: C_28  and  N_30
REMARK    9  A    between atoms: N_30  and  C_31
REMARK   10  A    between atoms: C_31  and  C_32
REMARK   11  A    between atoms: C_32  and  C_33
REMARK   12  A    between atoms: C_33  and  N_69
REMARK   13  A    between atoms: C_34  and  N_69
REMARK   14  A    between atoms: C_35  and  N_69
REMARK                            x       y       z     vdW  Elec       q    Type
REMARK                         _______ _______ _______ _____ _____    ______ ____
ROOT
ATOM      1  N   UNL     1      -0.020   1.094   2.454  0.00  0.00    -0.308 N 
ENDROOT
BRANCH   1   2
ATOM      2  C   UNL     1      -0.355  -0.091   3.001  0.00  0.00    +0.133 C 
ATOM      3  S   UNL     1       0.473  -0.658   4.388  0.00  0.00    -0.019 S 
BRANCH   2   4
ATOM      4  N   UNL     1      -1.342  -0.830   2.456  0.00  0.00    -0.326 N 
ATOM      5  H   UNL     1      -1.811  -0.509   1.670  0.00  0.00    +0.148 HD
BRANCH   4   6
ATOM      6  C   UNL     1      -1.706  -2.119   3.051  0.00  0.00    +0.101 C 
BRANCH   6   7
ATOM      7  C   UNL     1      -2.845  -2.748   2.246  0.00  0.00    +0.000 C 
BRANCH   7   8
ATOM      8  C   UNL     1      -3.226  -4.093   2.867  0.00  0.00    -0.078 C 
BRANCH   8  11
ATOM      9  C   UNL     1      -3.875  -5.051   0.740  0.00  0.00    -0.097 C 
ATOM     10  C   UNL     1      -4.871  -5.868   2.791  0.00  0.00    -0.097 C 
ATOM     11  N   UNL     1      -4.340  -4.678   2.093  0.00  0.00    +0.376 N 
ATOM     12  H   UNL     1      -5.089  -3.981   2.007  0.00  0.00    -0.083 HD
ENDBRANCH   8  11
ENDBRANCH   7   8
ENDBRANCH   6   7
ENDBRANCH   4   6
ENDBRANCH   2   4
ENDBRANCH   1   2
BRANCH   1  13
ATOM     13  C   UNL     1      -0.729   1.579   1.267  0.00  0.00    +0.112 C 
BRANCH  13  14
ATOM     14  C   UNL     1      -0.013   1.086   0.008  0.00  0.00    +0.054 C 
BRANCH  14  20
ATOM     15  C   UNL     1      -0.692   4.584  -3.505  0.00  0.00    +0.044 C 
ATOM     16  C   UNL     1      -1.067   3.259  -2.894  0.00  0.00    -0.050 A 
ATOM     17  C   UNL     1      -2.078   2.501  -3.453  0.00  0.00    +0.003 A 
ATOM     18  C   UNL     1      -2.421   1.284  -2.893  0.00  0.00    +0.001 A 
ATOM     19  C   UNL     1      -1.750   0.825  -1.775  0.00  0.00    +0.004 A 
ATOM     20  C   UNL     1      -0.742   1.585  -1.213  0.00  0.00    -0.046 A 
ATOM     21  C   UNL     1      -0.398   2.801  -1.774  0.00  0.00    +0.007 A 
ENDBRANCH  14  20
ENDBRANCH  13  14
ENDBRANCH   1  13
BRANCH   1  22
ATOM     22  C   UNL     1       1.052   1.897   3.046  0.00  0.00    +0.147 C 
BRANCH  22  23
ATOM     23  C   UNL     1       0.472   2.825   4.082  0.00  0.00    +0.035 A 
ATOM     24  C   UNL     1       0.459   2.456   5.388  0.00  0.00    +0.020 A 
ATOM     25  C   UNL     1      -0.106   3.381   6.370  0.00  0.00    +0.003 A 
ATOM     26  C   UNL     1      -0.142   3.056   7.732  0.00  0.00    +0.059 A 
ATOM     27  C   UNL     1      -0.686   3.946   8.634  0.00  0.00    +0.163 A 
ATOM     28  C   UNL     1      -1.200   5.169   8.194  0.00  0.00    +0.164 A 
ATOM     29  C   UNL     1      -1.169   5.498   6.849  0.00  0.00    +0.075 A 
ATOM     30  C   UNL     1      -0.626   4.613   5.928  0.00  0.00    +0.053 A 
ATOM     31  N   UNL     1      -0.588   4.925   4.583  0.00  0.00    -0.322 N 
ATOM     32  H   UNL     1      -0.946   5.773   4.279  0.00  0.00    +0.169 HD
ATOM     33  C   UNL     1      -0.061   4.069   3.690  0.00  0.00    +0.254 A 
ATOM     34  O   UNL     1      -0.044   4.378   2.510  0.00  0.00    -0.268 OA
ATOM     35  O   UNL     1      -1.734   6.054   9.078  0.00  0.00    -0.485 OA
ATOM     36  C   UNL     1      -2.092   5.542  10.366  0.00  0.00    +0.270 C 
ATOM     37  C   UNL     1      -0.929   4.684  10.882  0.00  0.00    +0.270 C 
ATOM     38  O   UNL     1      -0.716   3.614   9.955  0.00  0.00    -0.485 OA
ENDBRANCH  22  23
ENDBRANCH   1  22
TORSDOF 11
