REMARK  Name = ZINC20883556
REMARK  10 active torsions:
REMARK  status: ('A' for Active; 'I' for Inactive)
REMARK    1  A    between atoms: C_1  and  C_2
REMARK    2  A    between atoms: C_2  and  O_3
REMARK    3  A    between atoms: O_3  and  C_4
REMARK    4  A    between atoms: C_6  and  C_14
REMARK    5  A    between atoms: C_9  and  O_10
REMARK    6  A    between atoms: O_10  and  C_11
REMARK    7  A    between atoms: C_11  and  C_13
REMARK    8  A    between atoms: C_19  and  C_24
REMARK    9  A    between atoms: C_29  and  O_30
REMARK   10  A    between atoms: O_30  and  C_31
REMARK                            x       y       z     vdW  Elec       q    Type
REMARK                         _______ _______ _______ _____ _____    ______ ____
ROOT
ATOM      1  C   UNL     1      -0.953   9.540   0.123  0.00  0.00    +0.136 C 
ATOM      2  C   UNL     1      -0.897   8.042  -0.050  0.00  0.00    +0.036 C 
ATOM      3  C   UNL     1      -0.857   7.383  -1.221  0.00  0.00    +0.017 C 
ATOM      4  C   UNL     1      -0.803   5.865  -1.250  0.00  0.00    +0.060 C 
ATOM      5  C   UNL     1      -0.044   5.346  -0.031  0.00  0.00    +0.035 C 
ATOM      6  C   UNL     1      -0.784   5.830   1.222  0.00  0.00    +0.088 C 
ATOM      7  C   UNL     1      -0.880   7.325   1.171  0.00  0.00    +0.163 C 
ATOM      8  O   UNL     1      -0.944   7.944   2.215  0.00  0.00    -0.292 OA
ATOM      9  N   UNL     1      -0.870   7.976  -2.442  0.00  0.00    -0.316 N 
ATOM     10  C   UNL     1      -0.086   9.065  -2.807  0.00  0.00    +0.052 A 
ATOM     11  C   UNL     1       0.852   8.993  -3.822  0.00  0.00    +0.025 A 
ATOM     12  C   UNL     1       1.518  10.142  -4.213  0.00  0.00    +0.002 A 
ATOM     13  C   UNL     1       1.251  11.349  -3.592  0.00  0.00    +0.002 A 
ATOM     14  C   UNL     1       0.330  11.418  -2.561  0.00  0.00    +0.025 A 
ATOM     15  C   UNL     1      -0.326  10.266  -2.157  0.00  0.00    +0.049 A 
ATOM     16  N   UNL     1      -1.227  10.276  -1.093  0.00  0.00    -0.331 N 
ATOM     17  H   UNL     1      -1.538   7.598  -3.229  0.00  0.00    +0.152 HD
ATOM     18  H   UNL     1      -2.158  10.854  -1.188  0.00  0.00    +0.147 HD
ENDROOT
BRANCH   1  21
ATOM     19  C   UNL     1       1.641  11.018   2.438  0.00  0.00    +0.163 A 
ATOM     20  C   UNL     1       0.426  10.588   1.929  0.00  0.00    +0.055 A 
ATOM     21  C   UNL     1       0.369  10.007   0.676  0.00  0.00    -0.019 A 
ATOM     22  C   UNL     1       1.523   9.849  -0.070  0.00  0.00    +0.009 A 
ATOM     23  C   UNL     1       2.737  10.280   0.430  0.00  0.00    +0.050 A 
ATOM     24  C   UNL     1       2.802  10.863   1.686  0.00  0.00    +0.173 A 
BRANCH  19  25
ATOM     25  O   UNL     1       1.700  11.589   3.671  0.00  0.00    -0.489 OA
BRANCH  25  27
ATOM     26  C   UNL     1       0.732  12.377   5.740  0.00  0.00    +0.048 C 
ATOM     27  C   UNL     1       0.469  11.716   4.386  0.00  0.00    +0.226 C 
ENDBRANCH  25  27
ENDBRANCH  19  25
BRANCH  24  28
ATOM     28  O   UNL     1       3.996  11.284   2.181  0.00  0.00    -0.422 OA
BRANCH  28  29
ATOM     29  C   UNL     1       4.616  10.470   3.051  0.00  0.00    +0.309 C 
ATOM     30  O   UNL     1       4.152   9.382   3.295  0.00  0.00    -0.251 OA
ATOM     31  C   UNL     1       5.889  10.915   3.722  0.00  0.00    +0.136 C 
ENDBRANCH  28  29
ENDBRANCH  24  28
ENDBRANCH   1  21
BRANCH   5  32
ATOM     32  C   UNL     1      -0.010   3.840  -0.054  0.00  0.00    -0.002 A 
ATOM     33  C   UNL     1      -1.190   3.121  -0.054  0.00  0.00    +0.007 A 
ATOM     34  C   UNL     1      -1.159   1.739  -0.082  0.00  0.00    +0.001 A 
ATOM     35  C   UNL     1       0.052   1.072  -0.097  0.00  0.00    +0.004 A 
ATOM     36  C   UNL     1       1.234   1.786  -0.096  0.00  0.00    +0.046 A 
ATOM     37  C   UNL     1       1.206   3.173  -0.075  0.00  0.00    +0.124 A 
BRANCH  37  38
ATOM     38  O   UNL     1       2.369   3.877  -0.075  0.00  0.00    -0.495 OA
ATOM     39  C   UNL     1       3.583   3.125  -0.098  0.00  0.00    +0.277 C 
ENDBRANCH  37  38
ENDBRANCH   5  32
TORSDOF 7
