REMARK  Name = ZINC14270367
REMARK  7 active torsions:
REMARK  status: ('A' for Active; 'I' for Inactive)
REMARK    1  A    between atoms: C_4  and  N_27
REMARK    2  A    between atoms: C_5  and  C_7
REMARK    3  A    between atoms: C_10  and  C_12
REMARK    4  A    between atoms: N_14  and  C_15
REMARK    5  A    between atoms: C_15  and  N_17
REMARK    6  A    between atoms: N_17  and  C_18
REMARK    7  A    between atoms: C_21  and  O_25
REMARK                            x       y       z     vdW  Elec       q    Type
REMARK                         _______ _______ _______ _____ _____    ______ ____
ROOT
ATOM      1  C   UNL     1       2.786  -5.263  -0.989  0.00  0.00    +0.285 C 
ATOM      2  O   UNL     1       2.690  -6.371  -0.494  0.00  0.00    -0.266 OA
ATOM      3  N   UNL     1       3.421  -5.104  -2.167  0.00  0.00    -0.261 N 
ATOM      4  H   UNL     1       3.497  -4.221  -2.561  0.00  0.00    +0.157 HD
ENDROOT
BRANCH   1   8
ATOM      5  C   UNL     1       1.622  -2.035   0.146  0.00  0.00    +0.138 A 
ATOM      6  C   UNL     1       1.169  -2.806   1.178  0.00  0.00    +0.051 A 
ATOM      7  C   UNL     1       1.540  -4.125   0.900  0.00  0.00    +0.055 A 
ATOM      8  C   UNL     1       2.212  -4.103  -0.304  0.00  0.00    +0.190 A 
ATOM      9  O   UNL     1       2.244  -2.827  -0.743  0.00  0.00    -0.450 OA
BRANCH   5  14
ATOM     10  C   UNL     1       0.038   1.369   0.083  0.00  0.00    +0.001 A 
ATOM     11  C   UNL     1       1.131   2.168  -0.205  0.00  0.00    +0.002 A 
ATOM     12  C   UNL     1       2.382   1.604  -0.380  0.00  0.00    +0.033 A 
ATOM     13  C   UNL     1       2.549   0.239  -0.267  0.00  0.00    +0.137 A 
ATOM     14  C   UNL     1       1.451  -0.573   0.024  0.00  0.00    +0.047 A 
ATOM     15  C   UNL     1       0.191   0.003   0.199  0.00  0.00    +0.014 A 
BRANCH  13  16
ATOM     16  N   UNL     1       3.888  -0.362  -0.455  0.00  0.00    +0.057 N 
ATOM     17  O   UNL     1       4.837   0.342  -0.708  0.00  0.00    -0.126 OA
ATOM     18  O   UNL     1       4.032  -1.558  -0.356  0.00  0.00    -0.126 OA
ENDBRANCH  13  16
ENDBRANCH   5  14
ENDBRANCH   1   8
BRANCH   3  19
ATOM     19  C   UNL     1       3.949  -6.171  -2.797  0.00  0.00    +0.141 C 
ATOM     20  S   UNL     1       3.814  -7.729  -2.102  0.00  0.00    -0.018 S 
BRANCH  19  21
ATOM     21  N   UNL     1       4.584  -6.011  -3.976  0.00  0.00    -0.296 N 
ATOM     22  H   UNL     1       4.591  -5.144  -4.409  0.00  0.00    +0.154 HD
BRANCH  21  23
ATOM     23  C   UNL     1       5.234  -7.099  -4.574  0.00  0.00    +0.036 A 
ATOM     24  C   UNL     1       5.131  -7.300  -5.944  0.00  0.00    +0.047 A 
ATOM     25  C   UNL     1       5.773  -8.373  -6.534  0.00  0.00    +0.085 A 
ATOM     26  C   UNL     1       6.519  -9.248  -5.758  0.00  0.00    +0.153 A 
ATOM     27  C   UNL     1       6.621  -9.047  -4.388  0.00  0.00    +0.085 A 
ATOM     28  C   UNL     1       5.984  -7.972  -3.798  0.00  0.00    +0.047 A 
ATOM     29 CL   UNL     1       7.554 -10.143  -3.417  0.00  0.00    -0.080 Cl
ATOM     30 CL   UNL     1       5.644  -8.626  -8.247  0.00  0.00    -0.080 Cl
BRANCH  26  31
ATOM     31  O   UNL     1       7.150 -10.304  -6.339  0.00  0.00    -0.504 OA
ATOM     32  H   UNL     1       8.050 -10.110  -6.634  0.00  0.00    +0.292 HD
ENDBRANCH  26  31
ENDBRANCH  21  23
ENDBRANCH  19  21
ENDBRANCH   3  19
TORSDOF 7
