REMARK  Name = ZINC42407594
REMARK  4 active torsions:
REMARK  status: ('A' for Active; 'I' for Inactive)
REMARK    1  A    between atoms: C_3  and  N_11
REMARK    2  A    between atoms: C_4  and  N_10
REMARK    3  A    between atoms: C_6  and  C_7
REMARK    4  A    between atoms: C_16  and  C_18
REMARK                            x       y       z     vdW  Elec       q    Type
REMARK                         _______ _______ _______ _____ _____    ______ ____
ROOT
ATOM      1  C   UNL     1      -0.216   3.088   0.381  0.00  0.00    +0.017 A 
ATOM      2  C   UNL     1       1.130   3.380   0.370  0.00  0.00    +0.026 A 
ATOM      3  C   UNL     1       2.055   2.397   0.037  0.00  0.00    +0.051 A 
ATOM      4  C   UNL     1       1.623   1.108  -0.290  0.00  0.00    +0.047 A 
ATOM      5  C   UNL     1       0.275   0.810  -0.282  0.00  0.00    +0.039 A 
ATOM      6  C   UNL     1      -0.656   1.800   0.054  0.00  0.00    +0.065 A 
ENDROOT
BRANCH   3   7
ATOM      7  N   UNL     1       3.414   2.698   0.028  0.00  0.00    -0.317 N 
ATOM      8  C   UNL     1       4.061   3.200  -1.192  0.00  0.00    +0.106 C 
ATOM      9  C   UNL     1       4.791   4.506  -0.860  0.00  0.00    +0.019 C 
ATOM     10  C   UNL     1       5.750   4.267   0.308  0.00  0.00    +0.004 C 
ATOM     11  C   UNL     1       4.956   3.831   1.542  0.00  0.00    +0.032 C 
ATOM     12  C   UNL     1       4.227   2.523   1.239  0.00  0.00    +0.159 C 
BRANCH  12  13
ATOM     13  C   UNL     1       3.335   2.164   2.399  0.00  0.00    +0.231 C 
ATOM     14  O   UNL     1       2.266   2.720   2.536  0.00  0.00    -0.274 OA
ATOM     15  N   UNL     1       3.726   1.226   3.284  0.00  0.00    -0.328 N 
ATOM     16  H   UNL     1       4.581   0.782   3.175  0.00  0.00    +0.145 HD
ATOM     17  H   UNL     1       3.152   0.995   4.031  0.00  0.00    +0.145 HD
ENDBRANCH  12  13
ENDBRANCH   3   7
BRANCH   6  18
ATOM     18  C   UNL     1      -2.094   1.488   0.065  0.00  0.00    +0.387 C 
ATOM     19  O   UNL     1      -2.906   2.355   0.359  0.00  0.00    -0.241 OA
ATOM     20  O   UNL     1      -2.477   0.362  -0.220  0.00  0.00    -0.241 OA
ENDBRANCH   6  18
BRANCH   4  21
ATOM     21  N   UNL     1       2.557   0.120  -0.627  0.00  0.00    -0.357 N 
ATOM     22  H   UNL     1       3.504   0.330  -0.633  0.00  0.00    +0.142 HD
ATOM     23  H   UNL     1       2.257  -0.774  -0.854  0.00  0.00    +0.142 HD
ENDBRANCH   4  21
TORSDOF 4
