REMARK  Name = ZINC12465944
REMARK  4 active torsions:
REMARK  status: ('A' for Active; 'I' for Inactive)
REMARK    1  A    between atoms: C_3  and  N_8
REMARK    2  A    between atoms: C_14  and  C_16
REMARK    3  A    between atoms: C_22  and  C_31
REMARK    4  A    between atoms: C_25  and  C_27
REMARK                            x       y       z     vdW  Elec       q    Type
REMARK                         _______ _______ _______ _____ _____    ______ ____
ROOT
ATOM      1  C   UNL     1       8.084   3.412   1.174  0.00  0.00    +0.096 A 
ATOM      2  C   UNL     1       8.267   2.011   1.054  0.00  0.00    +0.149 A 
ATOM      3  N   UNL     1       9.549   1.763   1.074  0.00  0.00    -0.177 NA
ATOM      4  N   UNL     1      10.246   2.963   1.204  0.00  0.00    -0.238 N 
ATOM      5  C   UNL     1       9.345   3.972   1.260  0.00  0.00    +0.130 A 
ATOM      6  N   UNL     1       9.710   5.300   1.388  0.00  0.00    -0.319 N 
ATOM      7  C   UNL     1      11.120   5.557   1.745  0.00  0.00    +0.140 C 
ATOM      8  C   UNL     1      12.008   4.626   0.913  0.00  0.00    +0.066 C 
ATOM      9  C   UNL     1      11.697   3.164   1.268  0.00  0.00    +0.215 C 
ATOM     10  H   UNL     1       9.076   6.022   1.251  0.00  0.00    +0.148 HD
ENDROOT
BRANCH   1  17
ATOM     11  N   UNL     1       4.822   4.443  -2.252  0.00  0.00    -0.327 N 
ATOM     12  C   UNL     1       4.567   5.426  -1.190  0.00  0.00    +0.124 C 
ATOM     13  C   UNL     1       4.662   4.717   0.167  0.00  0.00    +0.127 C 
ATOM     14  N   UNL     1       5.910   3.942   0.205  0.00  0.00    -0.294 N 
ATOM     15  C   UNL     1       6.165   2.959  -0.858  0.00  0.00    +0.127 C 
ATOM     16  C   UNL     1       6.067   3.663  -2.211  0.00  0.00    +0.124 C 
ATOM     17  C   UNL     1       6.804   4.129   1.196  0.00  0.00    +0.252 C 
ATOM     18  O   UNL     1       6.549   4.892   2.108  0.00  0.00    -0.270 OA
BRANCH  11  21
ATOM     19  C   UNL     1       3.281   3.214  -5.354  0.00  0.00    +0.003 A 
ATOM     20  C   UNL     1       4.199   3.405  -4.340  0.00  0.00    +0.023 A 
ATOM     21  C   UNL     1       3.896   4.249  -3.280  0.00  0.00    +0.031 A 
ATOM     22  C   UNL     1       2.669   4.900  -3.243  0.00  0.00    +0.043 A 
ATOM     23  C   UNL     1       1.755   4.706  -4.260  0.00  0.00    +0.043 A 
ATOM     24  C   UNL     1       2.061   3.863  -5.315  0.00  0.00    +0.020 A 
ATOM     25 CL   UNL     1       0.221   5.518  -4.215  0.00  0.00    -0.083 Cl
ENDBRANCH  11  21
ENDBRANCH   1  17
BRANCH   7  26
ATOM     26  C   UNL     1      11.464   6.994   1.445  0.00  0.00    +0.125 A 
ATOM     27  C   UNL     1      12.230   7.794   2.208  0.00  0.00    +0.046 A 
ATOM     28  C   UNL     1      12.289   9.047   1.556  0.00  0.00    +0.041 A 
ATOM     29  C   UNL     1      11.555   8.937   0.433  0.00  0.00    +0.195 A 
ATOM     30  O   UNL     1      11.062   7.689   0.369  0.00  0.00    -0.466 OA
ENDBRANCH   7  26
BRANCH   9  31
ATOM     31  C   UNL     1      12.387   2.246   0.257  0.00  0.00    +0.412 C 
ATOM     32  F   UNL     1      11.932   2.545  -1.032  0.00  0.00    -0.168 F 
ATOM     33  F   UNL     1      13.771   2.440   0.319  0.00  0.00    -0.168 F 
ATOM     34  F   UNL     1      12.089   0.913   0.560  0.00  0.00    -0.168 F 
ENDBRANCH   9  31
TORSDOF 4
