REMARK  Name = ZINC09836203
REMARK  9 active torsions:
REMARK  status: ('A' for Active; 'I' for Inactive)
REMARK    1  A    between atoms: C_1  and  C_2
REMARK    2  A    between atoms: C_2  and  O_3
REMARK    3  A    between atoms: O_3  and  C_4
REMARK    4  A    between atoms: C_7  and  N_10
REMARK    5  A    between atoms: C_20  and  C_21
REMARK    6  A    between atoms: C_20  and  O_35
REMARK    7  A    between atoms: N_23  and  C_24
REMARK    8  A    between atoms: C_29  and  C_34
REMARK    9  A    between atoms: C_31  and  C_33
REMARK                            x       y       z     vdW  Elec       q    Type
REMARK                         _______ _______ _______ _____ _____    ______ ____
ROOT
ATOM      1  N   UNL     1       2.403   1.103  -0.015  0.00  0.00    -0.214 N 
ATOM      2  C   UNL     1       2.435  -0.238   0.083  0.00  0.00    +0.314 C 
ATOM      3  O   UNL     1       1.382  -0.837   0.185  0.00  0.00    -0.252 OA
ATOM      4  N   UNL     1       3.573  -0.945   0.068  0.00  0.00    -0.269 N 
ATOM      5  C   UNL     1       4.832  -0.355  -0.039  0.00  0.00    +0.043 A 
ATOM      6  C   UNL     1       5.982  -1.133  -0.044  0.00  0.00    +0.025 A 
ATOM      7  C   UNL     1       7.220  -0.530  -0.152  0.00  0.00    +0.017 A 
ATOM      8  C   UNL     1       7.320   0.847  -0.255  0.00  0.00    +0.018 A 
ATOM      9  C   UNL     1       6.176   1.627  -0.250  0.00  0.00    +0.025 A 
ATOM     10  C   UNL     1       4.942   1.028  -0.143  0.00  0.00    +0.034 A 
ATOM     11  C   UNL     1       3.670   1.844  -0.134  0.00  0.00    +0.247 C 
ATOM     12 BR   UNL     1       9.020   1.662  -0.402  0.00  0.00    -0.050 Br
ATOM     13  H   UNL     1       3.518  -1.911   0.140  0.00  0.00    +0.156 HD
ENDROOT
BRANCH   1  17
ATOM     14  C   UNL     1      -1.237   3.137   0.032  0.00  0.00    +0.121 A 
ATOM     15  C   UNL     1      -0.298   3.373   1.025  0.00  0.00    +0.047 A 
ATOM     16  C   UNL     1       0.910   2.704   1.007  0.00  0.00    +0.027 A 
ATOM     17  C   UNL     1       1.180   1.786   0.000  0.00  0.00    +0.042 A 
ATOM     18  C   UNL     1       0.237   1.546  -0.990  0.00  0.00    +0.027 A 
ATOM     19  C   UNL     1      -0.968   2.220  -0.974  0.00  0.00    +0.047 A 
BRANCH  14  20
ATOM     20  O   UNL     1      -2.424   3.800   0.047  0.00  0.00    -0.492 OA
BRANCH  20  22
ATOM     21  C   UNL     1      -4.013   5.374   0.962  0.00  0.00    +0.048 C 
ATOM     22  C   UNL     1      -2.633   4.730   1.112  0.00  0.00    +0.225 C 
ENDBRANCH  20  22
ENDBRANCH  14  20
ENDBRANCH   1  17
BRANCH  11  23
ATOM     23  C   UNL     1       3.623   2.644  -1.411  0.00  0.00    +0.269 C 
ATOM     24  O   UNL     1       3.808   3.842  -1.383  0.00  0.00    -0.270 OA
ATOM     25  N   UNL     1       3.375   2.028  -2.583  0.00  0.00    -0.308 N 
ATOM     26  H   UNL     1       3.227   1.069  -2.606  0.00  0.00    +0.149 HD
BRANCH  25  27
ATOM     27  C   UNL     1       3.329   2.805  -3.824  0.00  0.00    +0.076 C 
ATOM     28  C   UNL     1       4.746   2.967  -4.377  0.00  0.00    +0.022 C 
ATOM     29  C   UNL     1       4.698   3.779  -5.673  0.00  0.00    +0.002 C 
ATOM     30  C   UNL     1       3.830   3.050  -6.700  0.00  0.00    +0.003 C 
ATOM     31  C   UNL     1       2.413   2.887  -6.147  0.00  0.00    -0.009 C 
ATOM     32  C   UNL     1       2.461   2.075  -4.851  0.00  0.00    +0.009 C 
ATOM     33  C   UNL     1       1.044   1.913  -4.298  0.00  0.00    +0.009 C 
ATOM     34  C   UNL     1       1.815   4.266  -5.863  0.00  0.00    +0.008 C 
ENDBRANCH  25  27
ENDBRANCH  11  23
BRANCH  11  35
ATOM     35  O   UNL     1       3.746   2.766   0.955  0.00  0.00    -0.360 OA
ATOM     36  H   UNL     1       4.550   3.302   0.962  0.00  0.00    +0.213 HD
ENDBRANCH  11  35
TORSDOF 6
