REMARK  Name = ZINC67490514
REMARK  7 active torsions:
REMARK  status: ('A' for Active; 'I' for Inactive)
REMARK    1  A    between atoms: C_1  and  C_2
REMARK    2  A    between atoms: C_7  and  C_8
REMARK    3  A    between atoms: C_11  and  C_13
REMARK    4  A    between atoms: C_13  and  N_14
REMARK    5  A    between atoms: N_14  and  C_15
REMARK    6  A    between atoms: C_15  and  C_16
REMARK    7  A    between atoms: C_16  and  C_21
REMARK                            x       y       z     vdW  Elec       q    Type
REMARK                         _______ _______ _______ _____ _____    ______ ____
ROOT
ATOM      1  N   UNL     1      -1.278  -6.179   2.251  0.00  0.00    +0.384 N 
ATOM      2  H   UNL     1      -1.909  -5.481   2.615  0.00  0.00    -0.085 HD
ATOM      3  H   UNL     1      -1.583  -6.462   1.332  0.00  0.00    -0.085 HD
ENDROOT
BRANCH   1   4
ATOM      4  C   UNL     1       0.077  -5.616   2.166  0.00  0.00    -0.007 C 
BRANCH   4  15
ATOM      5  C   UNL     1      -0.117   1.000  -1.235  0.00  0.00    +0.044 C 
ATOM      6  C   UNL     1      -0.030  -0.484  -0.988  0.00  0.00    -0.045 A 
ATOM      7  C   UNL     1       0.127  -1.353  -2.058  0.00  0.00    +0.006 A 
ATOM      8  C   UNL     1       0.208  -2.701  -1.855  0.00  0.00    +0.030 A 
ATOM      9  C   UNL     1       0.135  -3.216  -0.558  0.00  0.00    +0.089 A 
ATOM     10  C   UNL     1      -0.023  -2.336   0.526  0.00  0.00    +0.069 A 
ATOM     11  C   UNL     1      -0.100  -0.968   0.301  0.00  0.00    -0.022 A 
ATOM     12  C   UNL     1      -0.264  -0.018   1.459  0.00  0.00    +0.046 C 
ATOM     13  N   UNL     1      -0.062  -3.128   1.656  0.00  0.00    -0.343 N 
ATOM     14  H   UNL     1      -0.164  -2.820   2.571  0.00  0.00    +0.167 HD
ATOM     15  C   UNL     1       0.067  -4.420   1.250  0.00  0.00    +0.091 A 
ATOM     16  N   UNL     1       0.183  -4.472  -0.045  0.00  0.00    -0.234 NA
ENDBRANCH   4  15
ENDBRANCH   1   4
BRANCH   1  17
ATOM     17  C   UNL     1      -1.268  -7.345   3.144  0.00  0.00    -0.068 C 
BRANCH  17  18
ATOM     18  C   UNL     1      -2.695  -7.872   3.310  0.00  0.00    +0.006 C 
ATOM     19  C   UNL     1      -3.609  -6.781   3.912  0.00  0.00    +0.040 C 
ATOM     20  C   UNL     1      -4.683  -6.550   2.826  0.00  0.00    +0.160 C 
ATOM     21  O   UNL     1      -4.059  -6.973   1.594  0.00  0.00    -0.379 OA
ATOM     22  C   UNL     1      -3.325  -8.170   1.931  0.00  0.00    +0.169 C 
BRANCH  18  23
ATOM     23  C   UNL     1      -2.704  -9.107   4.173  0.00  0.00    -0.041 A 
ATOM     24  C   UNL     1      -1.522  -9.584   4.709  0.00  0.00    +0.007 A 
ATOM     25  C   UNL     1      -1.528 -10.716   5.500  0.00  0.00    +0.038 A 
ATOM     26  C   UNL     1      -2.719 -11.374   5.757  0.00  0.00    +0.123 A 
ATOM     27  C   UNL     1      -3.902 -10.896   5.220  0.00  0.00    +0.038 A 
ATOM     28  C   UNL     1      -3.894  -9.760   4.432  0.00  0.00    +0.007 A 
ATOM     29  F   UNL     1      -2.727 -12.482   6.531  0.00  0.00    -0.205 F 
ENDBRANCH  18  23
ENDBRANCH  17  18
ENDBRANCH   1  17
TORSDOF 5
