REMARK  Name = ZINC09293355
REMARK  6 active torsions:
REMARK  status: ('A' for Active; 'I' for Inactive)
REMARK    1  A    between atoms: C_1  and  O_2
REMARK    2  A    between atoms: O_2  and  C_3
REMARK    3  A    between atoms: C_6  and  C_11
REMARK    4  A    between atoms: C_7  and  O_9
REMARK    5  A    between atoms: O_9  and  C_10
REMARK    6  A    between atoms: C_29  and  C_31
REMARK                            x       y       z     vdW  Elec       q    Type
REMARK                         _______ _______ _______ _____ _____    ______ ____
ROOT
ATOM      1  C   UNL     1       2.507  -2.495  -4.390  0.00  0.00    +0.238 C 
ATOM      2  C   UNL     1       3.957  -2.716  -4.075  0.00  0.00    +0.027 C 
ATOM      3  C   UNL     1       4.877  -1.775  -4.372  0.00  0.00    +0.083 C 
ATOM      4  C   UNL     1       4.396  -0.532  -5.026  0.00  0.00    +0.044 A 
ATOM      5  C   UNL     1       5.182   0.611  -5.077  0.00  0.00    +0.033 A 
ATOM      6  C   UNL     1       4.694   1.748  -5.695  0.00  0.00    +0.042 A 
ATOM      7  C   UNL     1       3.430   1.746  -6.260  0.00  0.00    +0.023 A 
ATOM      8  C   UNL     1       2.642   0.611  -6.214  0.00  0.00    +0.048 A 
ATOM      9  C   UNL     1       3.118  -0.534  -5.599  0.00  0.00    +0.131 A 
ATOM     10  O   UNL     1       2.372  -1.662  -5.543  0.00  0.00    -0.479 OA
ATOM     11 CL   UNL     1       5.670   3.182  -5.764  0.00  0.00    -0.084 Cl
ATOM     12  N   UNL     1       6.191  -1.953  -4.088  0.00  0.00    -0.213 NA
ATOM     13  C   UNL     1       6.686  -3.028  -3.521  0.00  0.00    +0.237 C 
ATOM     14  N   UNL     1       7.949  -3.366  -3.176  0.00  0.00    -0.205 NA
ATOM     15  C   UNL     1       7.969  -4.552  -2.634  0.00  0.00    +0.203 C 
ATOM     16  N   UNL     1       6.705  -5.056  -2.595  0.00  0.00    -0.251 N 
ATOM     17  N   UNL     1       5.875  -4.085  -3.161  0.00  0.00    -0.208 N 
ATOM     18  C   UNL     1       4.433  -3.993  -3.418  0.00  0.00    +0.160 C 
ATOM     19  H   UNL     1       6.434  -5.919  -2.245  0.00  0.00    +0.171 HD
ENDROOT
BRANCH   1  23
ATOM     20  C   UNL     1       0.606  -0.607  -1.056  0.00  0.00    +0.124 A 
ATOM     21  C   UNL     1       1.088   0.158  -2.109  0.00  0.00    +0.046 A 
ATOM     22  C   UNL     1       1.702  -0.455  -3.184  0.00  0.00    +0.015 A 
ATOM     23  C   UNL     1       1.837  -1.830  -3.215  0.00  0.00    +0.039 A 
ATOM     24  C   UNL     1       1.357  -2.599  -2.164  0.00  0.00    +0.131 A 
ATOM     25  C   UNL     1       0.746  -1.986  -1.081  0.00  0.00    +0.091 A 
BRANCH  20  27
ATOM     26  C   UNL     1      -0.108   1.420  -0.039  0.00  0.00    +0.277 C 
ATOM     27  O   UNL     1       0.002  -0.004   0.002  0.00  0.00    -0.495 OA
ENDBRANCH  20  27
BRANCH  24  28
ATOM     28  O   UNL     1       1.490  -3.951  -2.195  0.00  0.00    -0.495 OA
ATOM     29  C   UNL     1       0.972  -4.679  -1.080  0.00  0.00    +0.277 C 
ENDBRANCH  24  28
ENDBRANCH   1  23
BRANCH  18  30
ATOM     30  C   UNL     1       4.037  -5.150  -4.299  0.00  0.00    -0.003 A 
ATOM     31  C   UNL     1       2.911  -5.904  -4.004  0.00  0.00    +0.009 A 
ATOM     32  C   UNL     1       2.586  -6.959  -4.842  0.00  0.00    +0.020 A 
ATOM     33  C   UNL     1       3.388  -7.223  -5.936  0.00  0.00    +0.111 A 
ATOM     34  N   UNL     1       4.452  -6.484  -6.186  0.00  0.00    -0.263 NA
ATOM     35  C   UNL     1       4.788  -5.470  -5.414  0.00  0.00    +0.116 A 
ENDBRANCH  18  30
TORSDOF 4
