REMARK  Name = ZINC16920379
REMARK  6 active torsions:
REMARK  status: ('A' for Active; 'I' for Inactive)
REMARK    1  A    between atoms: C_6  and  C_7
REMARK    2  A    between atoms: N_11  and  C_15
REMARK    3  A    between atoms: C_15  and  C_16
REMARK    4  A    between atoms: N_18  and  C_19
REMARK    5  A    between atoms: C_21  and  N_26
REMARK    6  A    between atoms: C_24  and  O_25
REMARK                            x       y       z     vdW  Elec       q    Type
REMARK                         _______ _______ _______ _____ _____    ______ ____
ROOT
ATOM      1  C   UNL     1      -3.101  -5.357  -0.435  0.00  0.00    +0.213 C 
ENDROOT
BRANCH   1   6
ATOM      2  C   UNL     1      -1.229  -0.788   0.041  0.00  0.00    +0.028 C 
ATOM      3  C   UNL     1      -1.214  -2.138  -0.083  0.00  0.00    +0.080 C 
ATOM      4  C   UNL     1      -2.341  -3.086  -0.203  0.00  0.00    +0.261 C 
ATOM      5  O   UNL     1      -3.497  -2.708  -0.202  0.00  0.00    -0.269 OA
ATOM      6  N   UNL     1      -2.028  -4.367  -0.312  0.00  0.00    -0.219 N 
ATOM      7  C   UNL     1      -0.745  -4.781  -0.313  0.00  0.00    +0.286 C 
ATOM      8  O   UNL     1      -0.318  -5.917  -0.405  0.00  0.00    -0.262 OA
ATOM      9  S   UNL     1       0.176  -3.260  -0.154  0.00  0.00    -0.026 S 
BRANCH   2  15
ATOM     10  C   UNL     1       1.156  -0.568  -0.627  0.00  0.00    +0.011 A 
ATOM     11  C   UNL     1       2.334   0.146  -0.652  0.00  0.00    +0.039 A 
ATOM     12  C   UNL     1       2.407   1.392  -0.047  0.00  0.00    +0.123 A 
ATOM     13  C   UNL     1       1.296   1.929   0.586  0.00  0.00    +0.039 A 
ATOM     14  C   UNL     1       0.111   1.226   0.619  0.00  0.00    +0.011 A 
ATOM     15  C   UNL     1       0.031  -0.032   0.011  0.00  0.00    -0.024 A 
ATOM     16  F   UNL     1       3.565   2.086  -0.075  0.00  0.00    -0.205 F 
ENDBRANCH   2  15
ENDBRANCH   1   6
BRANCH   1  17
ATOM     17  C   UNL     1      -3.427  -5.566  -1.891  0.00  0.00    +0.235 C 
ATOM     18  O   UNL     1      -2.824  -4.949  -2.743  0.00  0.00    -0.274 OA
ATOM     19  N   UNL     1      -4.390  -6.439  -2.247  0.00  0.00    -0.281 N 
ATOM     20  H   UNL     1      -4.931  -6.869  -1.566  0.00  0.00    +0.155 HD
BRANCH  19  21
ATOM     21  C   UNL     1      -4.610  -6.727  -3.601  0.00  0.00    +0.078 A 
ATOM     22  C   UNL     1      -3.587  -6.558  -4.522  0.00  0.00    +0.059 A 
ATOM     23  C   UNL     1      -3.807  -6.842  -5.857  0.00  0.00    +0.128 A 
ATOM     24  C   UNL     1      -5.044  -7.294  -6.277  0.00  0.00    +0.036 A 
ATOM     25  C   UNL     1      -6.068  -7.465  -5.364  0.00  0.00    +0.049 A 
ATOM     26  C   UNL     1      -5.854  -7.188  -4.023  0.00  0.00    +0.138 A 
BRANCH  23  27
ATOM     27  N   UNL     1      -2.714  -6.660  -6.839  0.00  0.00    +0.056 N 
ATOM     28  O   UNL     1      -1.632  -6.264  -6.474  0.00  0.00    -0.126 OA
ATOM     29  O   UNL     1      -2.904  -6.908  -8.007  0.00  0.00    -0.126 OA
ENDBRANCH  23  27
BRANCH  26  30
ATOM     30  O   UNL     1      -6.859  -7.361  -3.124  0.00  0.00    -0.505 OA
ATOM     31  H   UNL     1      -7.413  -6.579  -2.997  0.00  0.00    +0.292 HD
ENDBRANCH  26  30
ENDBRANCH  19  21
ENDBRANCH   1  17
TORSDOF 6
