REMARK  Name = ZINC36892312
REMARK  11 active torsions:
REMARK  status: ('A' for Active; 'I' for Inactive)
REMARK    1  A    between atoms: C_1  and  C_2
REMARK    2  A    between atoms: C_7  and  C_9
REMARK    3  A    between atoms: C_7  and  C_10
REMARK    4  A    between atoms: N_13  and  C_17
REMARK    5  A    between atoms: C_17  and  C_18
REMARK    6  A    between atoms: N_20  and  C_21
REMARK    7  A    between atoms: C_21  and  C_23
REMARK    8  A    between atoms: C_21  and  C_27
REMARK    9  A    between atoms: C_23  and  C_24
REMARK   10  A    between atoms: C_24  and  S_25
REMARK   11  A    between atoms: S_25  and  C_26
REMARK                            x       y       z     vdW  Elec       q    Type
REMARK                         _______ _______ _______ _____ _____    ______ ____
ROOT
ATOM      1  C   UNL     1      -2.295  -3.328  -4.359  0.00  0.00    +0.232 C 
ATOM      2  O   UNL     1      -1.953  -2.188  -4.591  0.00  0.00    -0.274 OA
ATOM      3  N   UNL     1      -3.321  -3.876  -5.040  0.00  0.00    -0.304 N 
ATOM      4  H   UNL     1      -3.595  -4.788  -4.855  0.00  0.00    +0.149 HD
ENDROOT
BRANCH   1   5
ATOM      5  C   UNL     1      -1.572  -4.133  -3.310  0.00  0.00    +0.213 C 
BRANCH   5  17
ATOM      6  C   UNL     1      -0.019   1.528   0.010  0.00  0.00    +0.007 C 
ATOM      7  C   UNL     1       0.002  -0.004   0.002  0.00  0.00    -0.011 C 
ATOM      8  C   UNL     1       0.727  -0.492  -1.254  0.00  0.00    +0.038 C 
ATOM      9  C   UNL     1       0.711  -2.014  -1.298  0.00  0.00    +0.113 C 
ATOM     10  C   UNL     1       1.263  -2.646  -0.036  0.00  0.00    +0.041 C 
ATOM     11  C   UNL     1       0.787  -2.030   1.268  0.00  0.00    -0.032 C 
ATOM     12  C   UNL     1       0.763  -0.507   1.227  0.00  0.00    +0.009 C 
ATOM     13  C   UNL     1       1.769  -2.455   2.382  0.00  0.00    +0.011 C 
ATOM     14  C   UNL     1      -0.596  -2.567   1.648  0.00  0.00    +0.011 C 
ATOM     15  C   UNL     1      -0.666  -2.529  -1.638  0.00  0.00    +0.247 C 
ATOM     16  O   UNL     1      -1.717  -2.280  -1.086  0.00  0.00    -0.273 OA
ATOM     17  N   UNL     1      -0.505  -3.321  -2.720  0.00  0.00    -0.215 N 
ATOM     18  C   UNL     1       0.748  -3.270  -3.183  0.00  0.00    +0.310 C 
ATOM     19  O   UNL     1       1.136  -3.886  -4.157  0.00  0.00    -0.252 OA
ATOM     20  N   UNL     1       1.531  -2.463  -2.446  0.00  0.00    -0.285 N 
ATOM     21  H   UNL     1       2.451  -2.215  -2.619  0.00  0.00    +0.151 HD
ENDBRANCH   5  17
ENDBRANCH   1   5
BRANCH   3  22
ATOM     22  C   UNL     1      -4.024  -3.093  -6.060  0.00  0.00    +0.140 C 
BRANCH  22  23
ATOM     23  C   UNL     1      -5.423  -3.626  -6.226  0.00  0.00    +0.129 A 
ATOM     24  N   UNL     1      -5.980  -4.605  -5.463  0.00  0.00    -0.340 N 
ATOM     25  H   UNL     1      -5.554  -5.074  -4.729  0.00  0.00    +0.167 HD
ATOM     26  C   UNL     1      -7.265  -4.806  -5.926  0.00  0.00    +0.066 A 
ATOM     27  C   UNL     1      -8.303  -5.653  -5.561  0.00  0.00    +0.028 A 
ATOM     28  C   UNL     1      -9.498  -5.604  -6.248  0.00  0.00    +0.002 A 
ATOM     29  C   UNL     1      -9.668  -4.715  -7.300  0.00  0.00    +0.002 A 
ATOM     30  C   UNL     1      -8.658  -3.874  -7.673  0.00  0.00    +0.030 A 
ATOM     31  C   UNL     1      -7.439  -3.906  -6.991  0.00  0.00    +0.089 A 
ATOM     32  N   UNL     1      -6.278  -3.213  -7.116  0.00  0.00    -0.231 NA
ENDBRANCH  22  23
BRANCH  22  33
ATOM     33  C   UNL     1      -3.276  -3.201  -7.390  0.00  0.00    +0.041 C 
BRANCH  33  34
ATOM     34  C   UNL     1      -1.899  -2.547  -7.256  0.00  0.00    +0.071 C 
BRANCH  34  35
ATOM     35  S   UNL     1      -1.013  -2.674  -8.833  0.00  0.00    -0.164 S 
ATOM     36  C   UNL     1       0.578  -1.864  -8.510  0.00  0.00    +0.084 C 
ENDBRANCH  34  35
ENDBRANCH  33  34
ENDBRANCH  22  33
ENDBRANCH   3  22
TORSDOF 7
