REMARK  Name = ZINC20917555
REMARK  12 active torsions:
REMARK  status: ('A' for Active; 'I' for Inactive)
REMARK    1  A    between atoms: C_1  and  C_2
REMARK    2  A    between atoms: C_2  and  C_3
REMARK    3  A    between atoms: C_3  and  S_4
REMARK    4  A    between atoms: S_4  and  C_5
REMARK    5  A    between atoms: C_10  and  N_11
REMARK    6  A    between atoms: C_12  and  C_14
REMARK    7  A    between atoms: C_14  and  S_15
REMARK    8  A    between atoms: S_15  and  C_16
REMARK    9  A    between atoms: N_20  and  N_21
REMARK   10  A    between atoms: N_22  and  N_23
REMARK   11  A    between atoms: C_24  and  C_25
REMARK   12  A    between atoms: C_28  and  C_31
REMARK                            x       y       z     vdW  Elec       q    Type
REMARK                         _______ _______ _______ _____ _____    ______ ____
ROOT
ATOM      1  C   UNL     1       0.717  -2.098   0.024  0.00  0.00    +0.210 A 
ATOM      2  N   UNL     1      -0.594  -2.115   0.041  0.00  0.00    -0.119 NA
ATOM      3  N   UNL     1      -1.045  -0.789   0.068  0.00  0.00    -0.109 NA
ATOM      4  C   UNL     1       0.006  -0.004   0.059  0.00  0.00    +0.254 A 
ATOM      5  N   UNL     1       1.122  -0.793   0.035  0.00  0.00    -0.211 N 
ATOM      6  N   UNL     1      -0.012   1.383   0.077  0.00  0.00    -0.204 N 
ATOM      7  H   UNL     1       0.933   1.945   0.076  0.00  0.00    +0.177 HD
ENDROOT
BRANCH   5   8
ATOM      8  N   UNL     1       2.416  -0.354   0.023  0.00  0.00    -0.294 N 
ATOM      9  H   UNL     1       2.630   0.725   0.033  0.00  0.00    +0.163 HD
ATOM     10  H   UNL     1       3.243  -1.079   0.003  0.00  0.00    +0.163 HD
ENDBRANCH   5   8
BRANCH   6  11
ATOM     11  N   UNL     1      -1.235   2.067   0.095  0.00  0.00    -0.188 NA
ATOM     12  C   UNL     1      -1.252   3.366   0.112  0.00  0.00    +0.138 C 
BRANCH  12  13
ATOM     13  C   UNL     1      -2.538   4.086   0.131  0.00  0.00    -0.005 A 
ATOM     14  C   UNL     1      -3.741   3.375   0.126  0.00  0.00    +0.010 A 
ATOM     15  C   UNL     1      -4.940   4.056   0.148  0.00  0.00    +0.004 A 
ATOM     16  C   UNL     1      -4.954   5.439   0.166  0.00  0.00    -0.050 A 
ATOM     17  C   UNL     1      -3.767   6.150   0.167  0.00  0.00    +0.004 A 
ATOM     18  C   UNL     1      -2.560   5.483   0.149  0.00  0.00    +0.010 A 
ATOM     19  C   UNL     1      -6.269   6.175   0.184  0.00  0.00    +0.044 C 
ENDBRANCH  12  13
ENDBRANCH   6  11
BRANCH   1  20
ATOM     20  S   UNL     1       1.772  -3.509  -0.007  0.00  0.00    -0.075 S 
BRANCH  20  21
ATOM     21  C   UNL     1       0.624  -4.914  -0.009  0.00  0.00    +0.173 C 
BRANCH  21  23
ATOM     22  N   UNL     1       0.759  -7.384  -0.041  0.00  0.00    -0.284 N 
ATOM     23  C   UNL     1       1.407  -6.202  -0.035  0.00  0.00    +0.228 C 
ATOM     24  O   UNL     1       2.619  -6.174  -0.050  0.00  0.00    -0.275 OA
ATOM     25  H   UNL     1      -0.337  -7.411   0.047  0.00  0.00    +0.155 HD
BRANCH  22  31
ATOM     26  C   UNL     1       0.944  -9.655  -0.863  0.00  0.00    +0.029 A 
ATOM     27  C   UNL     1       1.666 -10.835  -0.977  0.00  0.00    +0.016 A 
ATOM     28  C   UNL     1       2.914 -10.940  -0.393  0.00  0.00    +0.001 A 
ATOM     29  C   UNL     1       3.448  -9.872   0.305  0.00  0.00    +0.002 A 
ATOM     30  C   UNL     1       2.738  -8.691   0.418  0.00  0.00    +0.024 A 
ATOM     31  C   UNL     1       1.483  -8.578  -0.159  0.00  0.00    +0.047 A 
BRANCH  26  32
ATOM     32  S   UNL     1      -0.647  -9.518  -1.607  0.00  0.00    -0.123 S 
BRANCH  32  33
ATOM     33  C   UNL     1      -0.907 -11.134  -2.389  0.00  0.00    +0.074 C 
BRANCH  33  35
ATOM     34  C   UNL     1      -2.491 -12.515  -3.740  0.00  0.00    +0.004 C 
ATOM     35  C   UNL     1      -2.272 -11.152  -3.081  0.00  0.00    +0.008 C 
ENDBRANCH  33  35
ENDBRANCH  32  33
ENDBRANCH  26  32
ENDBRANCH  22  31
ENDBRANCH  21  23
ENDBRANCH  20  21
ENDBRANCH   1  20
TORSDOF 10
