REMARK  Name = ZINC66938977
REMARK  8 active torsions:
REMARK  status: ('A' for Active; 'I' for Inactive)
REMARK    1  A    between atoms: C_4  and  C_7
REMARK    2  A    between atoms: C_12  and  O_13
REMARK    3  A    between atoms: O_13  and  C_14
REMARK    4  A    between atoms: C_14  and  C_15
REMARK    5  A    between atoms: N_17  and  N_18
REMARK    6  A    between atoms: N_18  and  C_19
REMARK    7  A    between atoms: C_19  and  C_21
REMARK    8  A    between atoms: C_19  and  C_28
REMARK                            x       y       z     vdW  Elec       q    Type
REMARK                         _______ _______ _______ _____ _____    ______ ____
ROOT
ATOM      1  C   UNL     1       2.154  -3.345   3.627  0.00  0.00    +0.264 C 
ATOM      2  O   UNL     1       1.149  -2.674   3.524  0.00  0.00    -0.271 OA
ATOM      3  N   UNL     1       2.230  -4.302   4.574  0.00  0.00    -0.247 N 
ATOM      4  H   UNL     1       3.034  -4.839   4.657  0.00  0.00    +0.169 HD
ENDROOT
BRANCH   3   5
ATOM      5  N   UNL     1       1.176  -4.515   5.417  0.00  0.00    -0.224 NA
ATOM      6  H   UNL     1       0.925  -3.667   5.902  0.00  0.00    +0.145 HD
BRANCH   5   7
ATOM      7  C   UNL     1       1.471  -5.598   6.365  0.00  0.00    +0.188 C 
BRANCH   7   8
ATOM      8  C   UNL     1       0.729  -5.352   7.654  0.00  0.00    -0.020 A 
ATOM      9  C   UNL     1      -0.568  -4.874   7.624  0.00  0.00    +0.008 A 
ATOM     10  C   UNL     1      -1.249  -4.649   8.805  0.00  0.00    +0.038 A 
ATOM     11  C   UNL     1      -0.631  -4.902  10.019  0.00  0.00    +0.123 A 
ATOM     12  C   UNL     1       0.667  -5.381  10.047  0.00  0.00    +0.038 A 
ATOM     13  C   UNL     1       1.345  -5.610   8.864  0.00  0.00    +0.008 A 
ATOM     14  F   UNL     1      -1.296  -4.682  11.174  0.00  0.00    -0.205 F 
ENDBRANCH   7   8
BRANCH   7  15
ATOM     15  C   UNL     1       1.033  -6.914   5.776  0.00  0.00    +0.234 C 
ATOM     16  O   UNL     1       0.525  -6.947   4.675  0.00  0.00    -0.274 OA
ATOM     17  N   UNL     1       1.205  -8.054   6.473  0.00  0.00    -0.328 N 
ATOM     18  H   UNL     1       1.611  -8.028   7.354  0.00  0.00    +0.145 HD
ATOM     19  H   UNL     1       0.923  -8.902   6.095  0.00  0.00    +0.145 HD
ENDBRANCH   7  15
ENDBRANCH   5   7
ENDBRANCH   3   5
BRANCH   1  20
ATOM     20  C   UNL     1       3.316  -3.111   2.698  0.00  0.00    +0.325 C 
BRANCH  20  21
ATOM     21  O   UNL     1       2.995  -2.054   1.792  0.00  0.00    -0.482 OA
BRANCH  21  27
ATOM     22  C   UNL     1       3.698  -0.688  -0.038  0.00  0.00    +0.024 A 
ATOM     23  C   UNL     1       4.679  -0.343  -0.966  0.00  0.00    +0.012 A 
ATOM     24  C   UNL     1       5.883  -1.017  -0.978  0.00  0.00    +0.001 A 
ATOM     25  C   UNL     1       6.121  -2.036  -0.071  0.00  0.00    +0.004 A 
ATOM     26  C   UNL     1       5.155  -2.386   0.853  0.00  0.00    +0.046 A 
ATOM     27  C   UNL     1       3.943  -1.714   0.880  0.00  0.00    +0.129 A 
BRANCH  22  31
ATOM     28  C   UNL     1      -0.017   1.379   0.010  0.00  0.00    +0.000 A 
ATOM     29  C   UNL     1       1.169   2.092   0.002  0.00  0.00    +0.001 A 
ATOM     30  C   UNL     1       2.377   1.426  -0.013  0.00  0.00    +0.008 A 
ATOM     31  C   UNL     1       2.402   0.033  -0.021  0.00  0.00    -0.014 A 
ATOM     32  C   UNL     1       1.205  -0.680  -0.013  0.00  0.00    +0.008 A 
ATOM     33  C   UNL     1       0.002  -0.004   0.002  0.00  0.00    +0.001 A 
ENDBRANCH  22  31
ENDBRANCH  21  27
ENDBRANCH  20  21
ENDBRANCH   1  20
TORSDOF 8
