REMARK  Name = ZINC58850233
REMARK  4 active torsions:
REMARK  status: ('A' for Active; 'I' for Inactive)
REMARK    1  A    between atoms: C_5  and  N_7
REMARK    2  A    between atoms: N_7  and  S_8
REMARK    3  A    between atoms: S_8  and  C_11
REMARK    4  A    between atoms: C_24  and  C_27
REMARK                            x       y       z     vdW  Elec       q    Type
REMARK                         _______ _______ _______ _____ _____    ______ ____
ROOT
ATOM      1  C   UNL     1       0.130  -2.671  -2.471  0.00  0.00    +0.109 A 
ATOM      2  C   UNL     1      -0.522  -1.605  -3.064  0.00  0.00    +0.030 A 
ATOM      3  C   UNL     1      -0.425  -1.415  -4.428  0.00  0.00    +0.025 A 
ATOM      4  C   UNL     1       0.329  -2.291  -5.202  0.00  0.00    +0.031 A 
ATOM      5  C   UNL     1       0.994  -3.352  -4.608  0.00  0.00    -0.018 A 
ATOM      6  C   UNL     1       0.887  -3.535  -3.236  0.00  0.00    +0.034 A 
ATOM      7  C   UNL     1       1.844  -4.288  -5.399  0.00  0.00    +0.049 C 
ATOM      8  C   UNL     1       1.164  -5.613  -5.631  0.00  0.00    -0.023 C 
ATOM      9  C   UNL     1       1.464  -6.074  -6.820  0.00  0.00    -0.030 C 
ATOM     10  C   UNL     1       2.382  -5.120  -7.553  0.00  0.00    +0.033 C 
ATOM     11  C   UNL     1       2.211  -3.784  -6.794  0.00  0.00    +0.029 C 
ATOM     12  C   UNL     1       1.107  -2.996  -7.468  0.00  0.00    +0.109 C 
ATOM     13  N   UNL     1       0.402  -2.098  -6.577  0.00  0.00    -0.336 N 
ATOM     14  H   UNL     1      -0.061  -1.337  -6.960  0.00  0.00    +0.147 HD
ENDROOT
BRANCH  12  15
ATOM     15  C   UNL     1       0.133  -3.967  -8.084  0.00  0.00    +0.026 A 
ATOM     16  C   UNL     1      -0.758  -4.658  -7.280  0.00  0.00    +0.130 A 
ATOM     17  C   UNL     1      -1.653  -5.550  -7.847  0.00  0.00    +0.039 A 
ATOM     18  C   UNL     1      -1.656  -5.749  -9.215  0.00  0.00    +0.004 A 
ATOM     19  C   UNL     1      -0.768  -5.059 -10.017  0.00  0.00    +0.020 A 
ATOM     20  C   UNL     1       0.123  -4.163  -9.453  0.00  0.00    +0.049 A 
ATOM     21 CL   UNL     1       1.235  -3.291 -10.462  0.00  0.00    -0.083 Cl
ATOM     22  F   UNL     1      -0.753  -4.463  -5.943  0.00  0.00    -0.205 F 
ENDBRANCH  12  15
BRANCH   1  23
ATOM     23  S   UNL     1       0.001  -2.921  -0.732  0.00  0.00    +0.072 S 
ATOM     24  O   UNL     1       0.264  -4.299  -0.499  0.00  0.00    -0.150 OA
ATOM     25  O   UNL     1      -1.206  -2.296  -0.320  0.00  0.00    -0.150 OA
BRANCH  23  26
ATOM     26  N   UNL     1       1.237  -2.078  -0.022  0.00  0.00    -0.215 N 
ATOM     27  H   UNL     1       1.903  -2.546   0.506  0.00  0.00    +0.174 HD
BRANCH  26  32
ATOM     28  C   UNL     1       0.248   1.442  -0.402  0.00  0.00    +0.002 A 
ATOM     29  C   UNL     1       1.485   2.052  -0.505  0.00  0.00    +0.002 A 
ATOM     30  C   UNL     1       2.640   1.294  -0.449  0.00  0.00    +0.022 A 
ATOM     31  C   UNL     1       2.562  -0.077  -0.288  0.00  0.00    +0.063 A 
ATOM     32  C   UNL     1       1.321  -0.692  -0.184  0.00  0.00    +0.066 A 
ATOM     33  C   UNL     1       0.163   0.072  -0.241  0.00  0.00    +0.026 A 
ATOM     34 CL   UNL     1       4.013  -1.028  -0.218  0.00  0.00    -0.082 Cl
ENDBRANCH  26  32
ENDBRANCH  23  26
ENDBRANCH   1  23
TORSDOF 4
