REMARK  Name = ZINC17182868
REMARK  8 active torsions:
REMARK  status: ('A' for Active; 'I' for Inactive)
REMARK    1  A    between atoms: C_1  and  C_2
REMARK    2  A    between atoms: C_2  and  C_4
REMARK    3  A    between atoms: C_2  and  O_17
REMARK    4  A    between atoms: N_6  and  C_7
REMARK    5  A    between atoms: C_9  and  N_14
REMARK    6  A    between atoms: O_17  and  C_18
REMARK    7  A    between atoms: C_18  and  C_20
REMARK    8  A    between atoms: C_23  and  N_26
REMARK                            x       y       z     vdW  Elec       q    Type
REMARK                         _______ _______ _______ _____ _____    ______ ____
ROOT
ATOM      1  C   UNL     1       4.310   5.646  -1.537  0.00  0.00    +0.062 C 
ATOM      2  C   UNL     1       3.627   6.002  -0.215  0.00  0.00    +0.259 C 
ENDROOT
BRANCH   2   3
ATOM      3  C   UNL     1       2.336   5.236  -0.093  0.00  0.00    +0.258 C 
ATOM      4  O   UNL     1       1.278   5.829  -0.081  0.00  0.00    -0.271 OA
ATOM      5  N   UNL     1       2.356   3.891   0.001  0.00  0.00    -0.281 N 
ATOM      6  H   UNL     1       3.202   3.423   0.072  0.00  0.00    +0.155 HD
BRANCH   5   7
ATOM      7  C   UNL     1       1.155   3.171  -0.003  0.00  0.00    +0.054 A 
ATOM      8  C   UNL     1       0.022   3.711  -0.598  0.00  0.00    +0.057 A 
ATOM      9  C   UNL     1      -1.161   2.998  -0.600  0.00  0.00    +0.128 A 
ATOM     10  C   UNL     1      -1.217   1.746  -0.015  0.00  0.00    +0.034 A 
ATOM     11  C   UNL     1      -0.093   1.208   0.583  0.00  0.00    +0.024 A 
ATOM     12  C   UNL     1       1.095   1.915   0.588  0.00  0.00    +0.062 A 
ATOM     13 CL   UNL     1       2.508   1.236   1.334  0.00  0.00    -0.082 Cl
BRANCH   9  14
ATOM     14  N   UNL     1      -2.369   3.573  -1.234  0.00  0.00    +0.056 N 
ATOM     15  O   UNL     1      -2.319   4.673  -1.753  0.00  0.00    -0.126 OA
ATOM     16  O   UNL     1      -3.412   2.945  -1.236  0.00  0.00    -0.126 OA
ENDBRANCH   9  14
ENDBRANCH   5   7
ENDBRANCH   2   3
BRANCH   2  17
ATOM     17  O   UNL     1       3.350   7.427  -0.182  0.00  0.00    -0.449 OA
BRANCH  17  18
ATOM     18  C   UNL     1       4.306   8.224   0.333  0.00  0.00    +0.340 C 
ATOM     19  O   UNL     1       5.344   7.743   0.742  0.00  0.00    -0.245 OA
BRANCH  18  20
ATOM     20  C   UNL     1       4.094   9.683   0.399  0.00  0.00    +0.059 A 
ATOM     21  C   UNL     1       2.904  10.239  -0.078  0.00  0.00    +0.017 A 
ATOM     22  C   UNL     1       2.706  11.600  -0.009  0.00  0.00    +0.027 A 
ATOM     23  C   UNL     1       3.695  12.422   0.522  0.00  0.00    +0.046 A 
ATOM     24  C   UNL     1       4.883  11.872   0.991  0.00  0.00    +0.027 A 
ATOM     25  C   UNL     1       5.085  10.512   0.932  0.00  0.00    +0.017 A 
BRANCH  23  26
ATOM     26  N   UNL     1       3.493  13.804   0.585  0.00  0.00    -0.323 N 
ATOM     27  C   UNL     1       4.378  14.716   1.087  0.00  0.00    +0.091 A 
ATOM     28  C   UNL     1       3.829  15.942   0.972  0.00  0.00    +0.019 A 
ATOM     29  C   UNL     1       2.556  15.783   0.387  0.00  0.00    +0.019 A 
ATOM     30  C   UNL     1       2.376  14.466   0.161  0.00  0.00    +0.091 A 
ENDBRANCH  23  26
ENDBRANCH  18  20
ENDBRANCH  17  18
ENDBRANCH   2  17
TORSDOF 7
