REMARK  Name = ZINC03376105
REMARK  10 active torsions:
REMARK  status: ('A' for Active; 'I' for Inactive)
REMARK    1  A    between atoms: C_1  and  C_2
REMARK    2  A    between atoms: N_13  and  C_34
REMARK    3  A    between atoms: C_14  and  S_16
REMARK    4  A    between atoms: S_16  and  C_17
REMARK    5  A    between atoms: C_17  and  C_18
REMARK    6  A    between atoms: C_22  and  C_25
REMARK    7  A    between atoms: C_28  and  N_31
REMARK    8  A    between atoms: N_31  and  C_32
REMARK    9  A    between atoms: N_31  and  C_33
REMARK   10  A    between atoms: C_34  and  C_35
REMARK                            x       y       z     vdW  Elec       q    Type
REMARK                         _______ _______ _______ _____ _____    ______ ____
ROOT
ATOM      1  C   UNL     1      -0.019   1.526   0.010  0.00  0.00    +0.008 C 
ATOM      2  C   UNL     1       0.002  -0.004   0.002  0.00  0.00    -0.009 C 
ATOM      3  C   UNL     1      -1.433  -0.538   0.021  0.00  0.00    +0.008 C 
ATOM      4  C   UNL     1      -1.430  -2.045  -0.236  0.00  0.00    +0.037 C 
ATOM      5  C   UNL     1      -0.471  -2.712   0.746  0.00  0.00    -0.023 A 
ATOM      6  C   UNL     1       0.475  -1.986   1.383  0.00  0.00    -0.004 A 
ATOM      7  S   UNL     1       1.343  -3.147   2.407  0.00  0.00    -0.073 S 
ATOM      8  C   UNL     1       0.438  -4.601   1.981  0.00  0.00    +0.117 A 
ATOM      9  C   UNL     1      -0.517  -4.133   1.050  0.00  0.00    +0.076 A 
ATOM     10  C   UNL     1      -1.426  -5.096   0.503  0.00  0.00    +0.263 A 
ATOM     11  O   UNL     1      -2.284  -4.789  -0.307  0.00  0.00    -0.267 OA
ATOM     12  N   UNL     1      -1.274  -6.368   0.941  0.00  0.00    -0.283 N 
ATOM     13  C   UNL     1      -0.322  -6.731   1.845  0.00  0.00    +0.173 A 
ATOM     14  N   UNL     1       0.535  -5.866   2.370  0.00  0.00    -0.216 NA
ATOM     15  C   UNL     1       0.737  -0.516   1.249  0.00  0.00    +0.046 C 
ENDROOT
BRANCH  13  16
ATOM     16  S   UNL     1      -0.225  -8.421   2.336  0.00  0.00    -0.085 S 
BRANCH  16  17
ATOM     17  C   UNL     1       1.147  -8.455   3.522  0.00  0.00    +0.107 C 
BRANCH  17  18
ATOM     18  C   UNL     1       1.343  -9.883   4.034  0.00  0.00    +0.110 C 
ATOM     19  C   UNL     1       2.472  -9.938   5.094  0.00  0.00    -0.046 C 
ATOM     20  N   UNL     1       2.946 -11.341   4.994  0.00  0.00    +0.401 N 
ATOM     21  C   UNL     1       2.524 -11.819   3.662  0.00  0.00    +0.094 C 
ATOM     22  O   UNL     1       1.851 -10.741   2.986  0.00  0.00    -0.388 OA
ATOM     23  H   UNL     1       3.951 -11.374   5.072  0.00  0.00    -0.081 HD
ATOM     24  H   UNL     1       2.521 -11.903   5.715  0.00  0.00    -0.081 HD
BRANCH  21  25
ATOM     25  C   UNL     1       3.732 -12.244   2.868  0.00  0.00    -0.036 A 
ATOM     26  C   UNL     1       4.953 -11.634   3.090  0.00  0.00    +0.006 A 
ATOM     27  C   UNL     1       6.062 -12.021   2.364  0.00  0.00    +0.023 A 
ATOM     28  C   UNL     1       5.950 -13.024   1.410  0.00  0.00    +0.029 A 
ATOM     29  C   UNL     1       4.722 -13.635   1.189  0.00  0.00    +0.023 A 
ATOM     30  C   UNL     1       3.618 -13.247   1.923  0.00  0.00    +0.006 A 
BRANCH  28  31
ATOM     31  N   UNL     1       7.070 -13.418   0.674  0.00  0.00    -0.336 N 
ATOM     32  C   UNL     1       8.364 -12.773   0.907  0.00  0.00    +0.129 C 
ATOM     33  C   UNL     1       6.950 -14.476  -0.333  0.00  0.00    +0.129 C 
ENDBRANCH  28  31
ENDBRANCH  21  25
ENDBRANCH  17  18
ENDBRANCH  16  17
ENDBRANCH  13  16
BRANCH  12  34
ATOM     34  C   UNL     1      -2.174  -7.400   0.420  0.00  0.00    +0.154 C 
BRANCH  34  35
ATOM     35  C   UNL     1      -1.573  -8.010  -0.820  0.00  0.00    -0.013 C 
ATOM     36  C   UNL     1      -1.399  -9.306  -0.893  0.00  0.00    +0.005 C 
ENDBRANCH  34  35
ENDBRANCH  12  34
TORSDOF 7
