REMARK  Name = ZINC39550995
REMARK  9 active torsions:
REMARK  status: ('A' for Active; 'I' for Inactive)
REMARK    1  A    between atoms: C_1  and  O_2
REMARK    2  A    between atoms: O_2  and  C_3
REMARK    3  A    between atoms: C_6  and  C_9
REMARK    4  A    between atoms: C_10  and  C_19
REMARK    5  A    between atoms: C_14  and  C_15
REMARK    6  A    between atoms: C_22  and  O_26
REMARK    7  A    between atoms: C_24  and  O_25
REMARK    8  A    between atoms: O_26  and  C_27
REMARK    9  A    between atoms: C_27  and  C_28
REMARK                            x       y       z     vdW  Elec       q    Type
REMARK                         _______ _______ _______ _____ _____    ______ ____
ROOT
ATOM      1  C   UNL     1       2.348  -3.331   4.337  0.00  0.00    +0.039 A 
ATOM      2  C   UNL     1       3.760  -3.422   4.249  0.00  0.00    +0.104 A 
ATOM      3  N   UNL     1       4.260  -3.070   5.414  0.00  0.00    -0.173 NA
ATOM      4  N   UNL     1       3.200  -2.748   6.270  0.00  0.00    -0.272 N 
ATOM      5  H   UNL     1       3.283  -2.456   7.191  0.00  0.00    +0.189 HD
ATOM      6  C   UNL     1       2.042  -2.908   5.595  0.00  0.00    +0.147 A 
ENDROOT
BRANCH   1  10
ATOM      7  C   UNL     1      -0.425  -4.202   1.231  0.00  0.00    +0.120 A 
ATOM      8  C   UNL     1      -0.270  -2.896   1.675  0.00  0.00    +0.046 A 
ATOM      9  C   UNL     1       0.628  -2.610   2.682  0.00  0.00    +0.012 A 
ATOM     10  C   UNL     1       1.381  -3.635   3.253  0.00  0.00    -0.014 A 
ATOM     11  C   UNL     1       1.223  -4.945   2.805  0.00  0.00    +0.012 A 
ATOM     12  C   UNL     1       0.319  -5.225   1.802  0.00  0.00    +0.046 A 
BRANCH   7  14
ATOM     13  C   UNL     1      -2.043  -3.379  -0.305  0.00  0.00    +0.277 C 
ATOM     14  O   UNL     1      -1.311  -4.480   0.238  0.00  0.00    -0.495 OA
ENDBRANCH   7  14
ENDBRANCH   1  10
BRANCH   2  15
ATOM     15  C   UNL     1       4.536  -3.840   3.057  0.00  0.00    +0.044 A 
ATOM     16  C   UNL     1       4.246  -3.294   1.808  0.00  0.00    +0.017 A 
ATOM     17  C   UNL     1       4.969  -3.684   0.700  0.00  0.00    +0.046 A 
ATOM     18  C   UNL     1       5.987  -4.621   0.826  0.00  0.00    +0.124 A 
ATOM     19  C   UNL     1       6.283  -5.168   2.065  0.00  0.00    +0.091 A 
ATOM     20  C   UNL     1       5.566  -4.778   3.183  0.00  0.00    +0.130 A 
BRANCH  20  21
ATOM     21  O   UNL     1       5.858  -5.309   4.399  0.00  0.00    -0.506 OA
ATOM     22  H   UNL     1       5.365  -6.116   4.604  0.00  0.00    +0.292 HD
ENDBRANCH  20  21
BRANCH  18  23
ATOM     23  O   UNL     1       6.696  -5.002  -0.270  0.00  0.00    -0.487 OA
BRANCH  23  24
ATOM     24  C   UNL     1       6.339  -4.399  -1.515  0.00  0.00    +0.266 C 
BRANCH  24  25
ATOM     25  C   UNL     1       7.226  -4.939  -2.607  0.00  0.00    +0.008 A 
ATOM     26  C   UNL     1       8.194  -5.879  -2.309  0.00  0.00    +0.008 A 
ATOM     27  C   UNL     1       9.008  -6.375  -3.311  0.00  0.00    +0.000 A 
ATOM     28  C   UNL     1       8.853  -5.931  -4.611  0.00  0.00    +0.001 A 
ATOM     29  C   UNL     1       7.885  -4.992  -4.910  0.00  0.00    +0.020 A 
ATOM     30  C   UNL     1       7.066  -4.499  -3.909  0.00  0.00    +0.047 A 
ATOM     31 CL   UNL     1       5.845  -3.324  -4.285  0.00  0.00    -0.083 Cl
ENDBRANCH  24  25
ENDBRANCH  23  24
ENDBRANCH  18  23
ENDBRANCH   2  15
BRANCH   6  32
ATOM     32  C   UNL     1       0.658  -2.664   6.138  0.00  0.00    +0.434 C 
ATOM     33  F   UNL     1       0.746  -2.237   7.467  0.00  0.00    -0.164 F 
ATOM     34  F   UNL     1       0.024  -1.679   5.373  0.00  0.00    -0.164 F 
ATOM     35  F   UNL     1      -0.082  -3.850   6.077  0.00  0.00    -0.164 F 
ENDBRANCH   6  32
TORSDOF 8
