REMARK  Name = ZINC16041861
REMARK  7 active torsions:
REMARK  status: ('A' for Active; 'I' for Inactive)
REMARK    1  A    between atoms: C_10  and  C_11
REMARK    2  A    between atoms: C_11  and  C_12
REMARK    3  A    between atoms: N_14  and  C_15
REMARK    4  A    between atoms: C_15  and  C_17
REMARK    5  A    between atoms: C_15  and  O_21
REMARK    6  A    between atoms: O_21  and  C_22
REMARK    7  A    between atoms: C_22  and  C_23
REMARK                            x       y       z     vdW  Elec       q    Type
REMARK                         _______ _______ _______ _____ _____    ______ ____
ROOT
ATOM      1  C   UNL     1       2.062   1.824  -3.668  0.00  0.00    +0.257 C 
ENDROOT
BRANCH   1   4
ATOM      2  C   UNL     1       2.442  -0.582  -3.713  0.00  0.00    +0.219 C 
ATOM      3  O   UNL     1       3.501  -0.396  -3.151  0.00  0.00    -0.275 OA
ATOM      4  N   UNL     1       1.647   0.463  -4.016  0.00  0.00    -0.286 N 
ATOM      5  H   UNL     1       0.800   0.314  -4.465  0.00  0.00    +0.151 HD
BRANCH   2   6
ATOM      6  C   UNL     1       2.015  -1.982  -4.071  0.00  0.00    +0.131 C 
BRANCH   6  16
ATOM      7  C   UNL     1       3.135  -4.416   0.290  0.00  0.00    +0.001 A 
ATOM      8  C   UNL     1       2.150  -3.513  -0.103  0.00  0.00    +0.001 A 
ATOM      9  C   UNL     1       2.111  -3.027  -1.374  0.00  0.00    +0.009 A 
ATOM     10  C   UNL     1       3.079  -3.440  -2.306  0.00  0.00    -0.014 A 
ATOM     11  C   UNL     1       4.079  -4.362  -1.907  0.00  0.00    -0.018 A 
ATOM     12  C   UNL     1       4.083  -4.846  -0.587  0.00  0.00    +0.008 A 
ATOM     13  C   UNL     1       5.050  -4.770  -2.837  0.00  0.00    +0.008 A 
ATOM     14  C   UNL     1       5.015  -4.280  -4.106  0.00  0.00    +0.001 A 
ATOM     15  C   UNL     1       4.029  -3.377  -4.500  0.00  0.00    +0.005 A 
ATOM     16  C   UNL     1       3.072  -2.960  -3.626  0.00  0.00    -0.031 A 
ENDBRANCH   6  16
ENDBRANCH   2   6
ENDBRANCH   1   4
BRANCH   1  17
ATOM     17  C   UNL     1       1.585   2.796  -4.749  0.00  0.00    +0.233 C 
ATOM     18 CL   UNL     1       2.096   4.471  -4.321  0.00  0.00    -0.079 Cl
ATOM     19 CL   UNL     1       2.310   2.333  -6.334  0.00  0.00    -0.079 Cl
ATOM     20 CL   UNL     1      -0.212   2.727  -4.868  0.00  0.00    -0.079 Cl
ENDBRANCH   1  17
BRANCH   1  21
ATOM     21  O   UNL     1       1.488   2.191  -2.412  0.00  0.00    -0.354 OA
BRANCH  21  22
ATOM     22  C   UNL     1       2.116   1.576  -1.284  0.00  0.00    +0.164 C 
BRANCH  22  23
ATOM     23  C   UNL     1       1.423   2.038  -0.001  0.00  0.00    +0.001 C 
ATOM     24  C   UNL     1      -0.019   1.528   0.010  0.00  0.00    +0.002 C 
ATOM     25  C   UNL     1       0.002  -0.004   0.002  0.00  0.00    -0.018 C 
ATOM     26  C   UNL     1       0.771  -0.493   1.229  0.00  0.00    -0.078 C 
ATOM     27  C   UNL     1       2.179   1.486   1.213  0.00  0.00    -0.063 C 
ATOM     28  C   UNL     1       3.627   1.983   1.137  0.00  0.00    -0.015 C 
ATOM     29  C   UNL     1       4.432   1.418   2.308  0.00  0.00    -0.003 C 
ATOM     30  C   UNL     1       4.367  -0.112   2.256  0.00  0.00    -0.019 C 
ATOM     31  C   UNL     1       2.903  -0.546   2.330  0.00  0.00    -0.078 C 
ATOM     32  N   UNL     1       2.158   0.002   1.181  0.00  0.00    +0.382 N 
ATOM     33  H   UNL     1       2.599  -0.318   0.310  0.00  0.00    -0.081 HD
ENDBRANCH  22  23
ENDBRANCH  21  22
ENDBRANCH   1  21
TORSDOF 7
