REMARK  Name = ZINC09670834
REMARK  9 active torsions:
REMARK  status: ('A' for Active; 'I' for Inactive)
REMARK    1  A    between atoms: C_1  and  N_51
REMARK    2  A    between atoms: C_2  and  C_3
REMARK    3  A    between atoms: C_2  and  N_51
REMARK    4  A    between atoms: C_6  and  C_8
REMARK    5  A    between atoms: C_15  and  C_16
REMARK    6  A    between atoms: C_15  and  N_51
REMARK    7  A    between atoms: N_18  and  C_19
REMARK    8  A    between atoms: C_19  and  C_20
REMARK    9  A    between atoms: N_22  and  C_23
REMARK                            x       y       z     vdW  Elec       q    Type
REMARK                         _______ _______ _______ _____ _____    ______ ____
ROOT
ATOM      1  C   UNL     1      -0.876   3.296   1.421  0.00  0.00    +0.197 C 
ATOM      2  O   UNL     1      -0.438   4.095   0.620  0.00  0.00    -0.278 OA
ATOM      3  N   UNL     1      -0.727   1.974   1.204  0.00  0.00    -0.308 N 
ATOM      4  H   UNL     1      -1.077   1.335   1.844  0.00  0.00    +0.149 HD
ENDROOT
BRANCH   1   5
ATOM      5  C   UNL     1      -1.587   3.781   2.658  0.00  0.00    +0.019 C 
BRANCH   5   7
ATOM      6  C   UNL     1      -2.445   5.761   1.559  0.00  0.00    -0.095 C 
ATOM      7  N   UNL     1      -1.591   5.259   2.656  0.00  0.00    +0.388 N 
ATOM      8  H   UNL     1      -0.631   5.595   2.513  0.00  0.00    -0.081 HD
BRANCH   7   9
ATOM      9  C   UNL     1      -2.088   5.764   3.954  0.00  0.00    -0.003 C 
BRANCH   9  10
ATOM     10  C   UNL     1      -1.875   7.255   4.008  0.00  0.00    +0.089 A 
ATOM     11  C   UNL     1      -2.761   8.189   3.612  0.00  0.00    +0.043 A 
ATOM     12  C   UNL     1      -2.163   9.446   3.836  0.00  0.00    +0.050 A 
ATOM     13  C   UNL     1      -0.933   9.206   4.361  0.00  0.00    +0.135 A 
ATOM     14  O   UNL     1      -0.774   7.873   4.465  0.00  0.00    -0.462 OA
BRANCH  13  15
ATOM     15  C   UNL     1       0.057  10.231   4.755  0.00  0.00    +0.017 A 
ATOM     16  C   UNL     1      -0.236  11.586   4.593  0.00  0.00    +0.013 A 
ATOM     17  C   UNL     1       0.690  12.538   4.967  0.00  0.00    +0.021 A 
ATOM     18  C   UNL     1       1.911  12.151   5.492  0.00  0.00    +0.041 A 
ATOM     19  C   UNL     1       2.210  10.808   5.650  0.00  0.00    +0.021 A 
ATOM     20  C   UNL     1       1.290   9.847   5.284  0.00  0.00    +0.013 A 
ATOM     21 CL   UNL     1       3.074  13.355   5.954  0.00  0.00    -0.084 Cl
ENDBRANCH  13  15
ENDBRANCH   9  10
ENDBRANCH   7   9
ENDBRANCH   5   7
ENDBRANCH   1   5
BRANCH   3  22
ATOM     22  C   UNL     1      -0.036   1.502   0.002  0.00  0.00    +0.200 C 
BRANCH  22  23
ATOM     23  C   UNL     1      -0.004  -0.005  -0.001  0.00  0.00    +0.234 C 
ATOM     24  O   UNL     1      -0.509  -0.624   0.911  0.00  0.00    -0.274 OA
ATOM     25  N   UNL     1       0.585  -0.664  -1.018  0.00  0.00    -0.282 N 
ATOM     26  H   UNL     1       0.932  -0.173  -1.779  0.00  0.00    +0.155 HD
BRANCH  25  27
ATOM     27  C   UNL     1       0.697  -2.061  -0.976  0.00  0.00    +0.072 A 
ATOM     28  C   UNL     1      -0.305  -2.821  -0.389  0.00  0.00    +0.029 A 
ATOM     29  C   UNL     1      -0.196  -4.198  -0.351  0.00  0.00    +0.043 A 
ATOM     30  C   UNL     1       0.917  -4.821  -0.890  0.00  0.00    +0.161 A 
ATOM     31  C   UNL     1       1.923  -4.066  -1.472  0.00  0.00    +0.195 A 
ATOM     32  C   UNL     1       1.815  -2.686  -1.516  0.00  0.00    +0.182 A 
ATOM     33  F   UNL     1       2.795  -1.948  -2.083  0.00  0.00    -0.200 F 
ATOM     34  F   UNL     1       3.009  -4.676  -1.996  0.00  0.00    -0.199 F 
ATOM     35  F   UNL     1       1.023  -6.167  -0.847  0.00  0.00    -0.202 F 
ENDBRANCH  25  27
ENDBRANCH  22  23
ENDBRANCH   3  22
TORSDOF 8
