REMARK  Name = ZINC39605244
REMARK  10 active torsions:
REMARK  status: ('A' for Active; 'I' for Inactive)
REMARK    1  A    between atoms: C_1  and  C_2
REMARK    2  A    between atoms: C_2  and  C_3
REMARK    3  A    between atoms: C_2  and  O_4
REMARK    4  A    between atoms: O_4  and  C_5
REMARK    5  A    between atoms: C_5  and  C_6
REMARK    6  A    between atoms: C_6  and  C_7
REMARK    7  A    between atoms: C_7  and  N_8
REMARK    8  A    between atoms: C_9  and  C_11
REMARK    9  A    between atoms: C_22  and  C_24
REMARK   10  A    between atoms: C_27  and  C_29
REMARK                            x       y       z     vdW  Elec       q    Type
REMARK                         _______ _______ _______ _____ _____    ______ ____
ROOT
ATOM      1  C   UNL     1      -6.375  -5.533  -1.696  0.00  0.00    +0.100 C 
ATOM      2  C   UNL     1      -6.767  -5.867  -0.239  0.00  0.00    +0.121 C 
ATOM      3  N   UNL     1      -7.682  -7.027  -0.354  0.00  0.00    -0.294 N 
ATOM      4  C   UNL     1      -7.089  -7.860  -1.427  0.00  0.00    +0.115 C 
ATOM      5  C   UNL     1      -6.587  -6.844  -2.472  0.00  0.00    -0.004 C 
ATOM      6  C   UNL     1      -7.636  -6.648  -3.563  0.00  0.00    -0.010 C 
ATOM      7  C   UNL     1      -7.788  -7.948  -4.357  0.00  0.00    -0.082 C 
ATOM      8  N   UNL     1      -6.497  -8.315  -4.951  0.00  0.00    +0.379 N 
ATOM      9  C   UNL     1      -5.519  -8.592  -3.893  0.00  0.00    -0.082 C 
ATOM     10  C   UNL     1      -5.271  -7.319  -3.079  0.00  0.00    -0.010 C 
ATOM     11  C   UNL     1      -8.801  -7.269   0.357  0.00  0.00    +0.282 C 
ATOM     12  O   UNL     1      -9.452  -8.276   0.144  0.00  0.00    -0.267 OA
ATOM     13  H   UNL     1      -6.613  -9.138  -5.524  0.00  0.00    -0.086 HD
ATOM     14  H   UNL     1      -6.164  -7.554  -5.525  0.00  0.00    -0.086 HD
ENDROOT
BRANCH  11  15
ATOM     15  C   UNL     1      -9.235  -6.321   1.386  0.00  0.00    +0.190 A 
ATOM     16  C   UNL     1     -10.350  -6.448   2.185  0.00  0.00    +0.055 A 
ATOM     17  C   UNL     1     -10.381  -5.325   3.018  0.00  0.00    +0.050 A 
ATOM     18  C   UNL     1      -9.294  -4.561   2.701  0.00  0.00    +0.136 A 
ATOM     19  O   UNL     1      -8.609  -5.173   1.721  0.00  0.00    -0.450 OA
BRANCH  18  20
ATOM     20  C   UNL     1      -8.931  -3.278   3.334  0.00  0.00    +0.017 A 
ATOM     21  C   UNL     1      -9.724  -2.750   4.355  0.00  0.00    +0.014 A 
ATOM     22  C   UNL     1      -9.380  -1.552   4.943  0.00  0.00    +0.039 A 
ATOM     23  C   UNL     1      -8.248  -0.870   4.522  0.00  0.00    +0.123 A 
ATOM     24  C   UNL     1      -7.457  -1.389   3.509  0.00  0.00    +0.039 A 
ATOM     25  C   UNL     1      -7.789  -2.589   2.918  0.00  0.00    +0.014 A 
ATOM     26  F   UNL     1      -7.915   0.304   5.102  0.00  0.00    -0.205 F 
ENDBRANCH  18  20
ENDBRANCH  11  15
BRANCH   1  28
ATOM     27  N   UNL     1      -4.524  -4.261  -2.732  0.00  0.00    -0.315 N 
ATOM     28  C   UNL     1      -4.930  -5.110  -1.767  0.00  0.00    +0.218 C 
ATOM     29  O   UNL     1      -4.134  -5.532  -0.956  0.00  0.00    -0.275 OA
ATOM     30  H   UNL     1      -5.161  -3.923  -3.380  0.00  0.00    +0.149 HD
BRANCH  27  31
ATOM     31  C   UNL     1      -3.119  -3.849  -2.801  0.00  0.00    +0.106 C 
BRANCH  31  32
ATOM     32  C   UNL     1      -2.926  -2.891  -3.978  0.00  0.00    +0.047 C 
BRANCH  32  33
ATOM     33  C   UNL     1      -1.460  -2.461  -4.050  0.00  0.00    +0.161 C 
BRANCH  33  34
ATOM     34  O   UNL     1      -1.279  -1.566  -5.149  0.00  0.00    -0.377 OA
BRANCH  34  36
ATOM     35  C   UNL     1       0.335  -0.821  -6.786  0.00  0.00    +0.037 C 
ATOM     36  C   UNL     1       0.063  -1.102  -5.307  0.00  0.00    +0.112 C 
ATOM     37  C   UNL     1       0.256   0.183  -4.499  0.00  0.00    +0.037 C 
ENDBRANCH  34  36
ENDBRANCH  33  34
ENDBRANCH  32  33
ENDBRANCH  31  32
ENDBRANCH  27  31
ENDBRANCH   1  28
TORSDOF 8
