REMARK  Name = ZINC08791226
REMARK  8 active torsions:
REMARK  status: ('A' for Active; 'I' for Inactive)
REMARK    1  A    between atoms: C_1  and  C_2
REMARK    2  A    between atoms: C_2  and  C_3
REMARK    3  A    between atoms: C_3  and  C_5
REMARK    4  A    between atoms: C_3  and  N_6
REMARK    5  A    between atoms: C_7  and  C_9
REMARK    6  A    between atoms: C_12  and  N_15
REMARK    7  A    between atoms: C_31  and  C_36
REMARK    8  A    between atoms: C_39  and  C_42
REMARK                            x       y       z     vdW  Elec       q    Type
REMARK                         _______ _______ _______ _____ _____    ______ ____
ROOT
ATOM      1  N   UNL     1      -7.346  -2.599  -1.105  0.00  0.00    -0.193 N 
ATOM      2  C   UNL     1      -7.977  -3.054  -0.003  0.00  0.00    +0.248 C 
ATOM      3  O   UNL     1      -7.524  -3.132   1.119  0.00  0.00    -0.273 OA
ATOM      4  C   UNL     1      -9.369  -3.447  -0.456  0.00  0.00    +0.170 C 
ATOM      5  C   UNL     1      -9.570  -4.952  -0.240  0.00  0.00    +0.069 C 
ATOM      6  C   UNL     1     -10.605  -5.463  -1.211  0.00  0.00    -0.015 A 
ATOM      7  C   UNL     1     -11.370  -6.692  -1.117  0.00  0.00    +0.003 A 
ATOM      8  C   UNL     1     -11.397  -7.718  -0.168  0.00  0.00    +0.010 A 
ATOM      9  C   UNL     1     -12.262  -8.758  -0.403  0.00  0.00    +0.001 A 
ATOM     10  C   UNL     1     -13.075  -8.800  -1.524  0.00  0.00    +0.002 A 
ATOM     11  C   UNL     1     -13.069  -7.797  -2.478  0.00  0.00    +0.026 A 
ATOM     12  C   UNL     1     -12.200  -6.729  -2.266  0.00  0.00    +0.047 A 
ATOM     13  N   UNL     1     -11.944  -5.599  -2.987  0.00  0.00    -0.356 N 
ATOM     14  H   UNL     1     -12.371  -5.363  -3.826  0.00  0.00    +0.166 HD
ATOM     15  C   UNL     1     -10.993  -4.849  -2.348  0.00  0.00    +0.046 A 
ATOM     16  C   UNL     1     -10.435  -3.520  -2.818  0.00  0.00    +0.155 C 
ATOM     17  N   UNL     1      -9.325  -3.197  -1.913  0.00  0.00    -0.260 N 
ATOM     18  C   UNL     1      -8.129  -2.673  -2.191  0.00  0.00    +0.317 C 
ATOM     19  O   UNL     1      -7.790  -2.307  -3.298  0.00  0.00    -0.252 OA
ENDROOT
BRANCH  16  20
ATOM     20  C   UNL     1      -9.932  -3.640  -4.233  0.00  0.00    -0.021 A 
ATOM     21  C   UNL     1      -8.719  -4.253  -4.485  0.00  0.00    +0.006 A 
ATOM     22  C   UNL     1      -8.260  -4.368  -5.784  0.00  0.00    +0.004 A 
ATOM     23  C   UNL     1      -9.008  -3.861  -6.830  0.00  0.00    -0.050 A 
ATOM     24  C   UNL     1     -10.219  -3.243  -6.577  0.00  0.00    +0.004 A 
ATOM     25  C   UNL     1     -10.681  -3.133  -5.279  0.00  0.00    +0.006 A 
ATOM     26  C   UNL     1      -8.504  -3.981  -8.245  0.00  0.00    +0.044 C 
ENDBRANCH  16  20
BRANCH   1  30
ATOM     27  C   UNL     1      -3.436  -1.154  -1.134  0.00  0.00    +0.037 A 
ATOM     28  C   UNL     1      -4.052  -1.483   0.076  0.00  0.00    +0.015 A 
ATOM     29  C   UNL     1      -5.345  -1.956   0.082  0.00  0.00    +0.025 A 
ATOM     30  C   UNL     1      -6.035  -2.114  -1.115  0.00  0.00    +0.045 A 
ATOM     31  C   UNL     1      -5.424  -1.792  -2.321  0.00  0.00    +0.025 A 
ATOM     32  C   UNL     1      -4.132  -1.314  -2.335  0.00  0.00    +0.015 A 
BRANCH  27  34
ATOM     33  N   UNL     1      -1.381  -0.488   0.015  0.00  0.00    -0.309 N 
ATOM     34  C   UNL     1      -2.051  -0.643  -1.145  0.00  0.00    +0.244 C 
ATOM     35  O   UNL     1      -1.515  -0.361  -2.199  0.00  0.00    -0.270 OA
ATOM     36  H   UNL     1      -1.808  -0.713   0.856  0.00  0.00    +0.149 HD
BRANCH  33  37
ATOM     37  C   UNL     1      -0.006   0.019   0.004  0.00  0.00    +0.070 C 
ATOM     38  C   UNL     1      -0.027   1.548  -0.018  0.00  0.00    +0.028 C 
BRANCH  37  40
ATOM     39  C   UNL     1       0.855  -1.987   1.219  0.00  0.00    +0.005 C 
ATOM     40  C   UNL     1       0.725  -0.464   1.259  0.00  0.00    +0.018 C 
ENDBRANCH  37  40
ENDBRANCH  33  37
ENDBRANCH  27  34
ENDBRANCH   1  30
TORSDOF 5
