REMARK  Name = ZINC67549763
REMARK  9 active torsions:
REMARK  status: ('A' for Active; 'I' for Inactive)
REMARK    1  A    between atoms: C_1  and  C_2
REMARK    2  A    between atoms: C_2  and  O_3
REMARK    3  A    between atoms: O_3  and  C_4
REMARK    4  A    between atoms: C_7  and  C_28
REMARK    5  A    between atoms: C_9  and  N_10
REMARK    6  A    between atoms: N_13  and  C_14
REMARK    7  A    between atoms: C_14  and  C_15
REMARK    8  A    between atoms: C_15  and  C_17
REMARK    9  A    between atoms: C_15  and  O_27
REMARK                            x       y       z     vdW  Elec       q    Type
REMARK                         _______ _______ _______ _____ _____    ______ ____
ROOT
ATOM      1  N   UNL     1       1.953  -1.458  -3.425  0.00  0.00    -0.266 N 
ATOM      2  C   UNL     1       2.659  -1.954  -4.460  0.00  0.00    +0.304 C 
ATOM      3  O   UNL     1       2.757  -3.156  -4.609  0.00  0.00    -0.253 OA
ATOM      4  N   UNL     1       3.258  -1.116  -5.329  0.00  0.00    -0.296 N 
ATOM      5  H   UNL     1       1.806  -0.502  -3.350  0.00  0.00    +0.156 HD
ATOM      6  H   UNL     1       3.181  -0.156  -5.210  0.00  0.00    +0.150 HD
ENDROOT
BRANCH   1  12
ATOM      7  C   UNL     1       0.318  -1.942  -1.703  0.00  0.00    +0.142 A 
ATOM      8  C   UNL     1      -0.205  -2.800  -0.747  0.00  0.00    +0.049 A 
ATOM      9  C   UNL     1       0.373  -4.032  -0.530  0.00  0.00    +0.022 A 
ATOM     10  C   UNL     1       1.490  -4.421  -1.275  0.00  0.00    +0.054 A 
ATOM     11  C   UNL     1       2.018  -3.558  -2.239  0.00  0.00    +0.046 A 
ATOM     12  C   UNL     1       1.429  -2.325  -2.455  0.00  0.00    +0.078 A 
BRANCH  10  13
ATOM     13  C   UNL     1       2.091  -5.701  -1.051  0.00  0.00    +0.099 C 
ATOM     14  N   UNL     1       2.569  -6.716  -0.873  0.00  0.00    -0.191 NA
ENDBRANCH  10  13
BRANCH   7  15
ATOM     15  O   UNL     1      -0.256  -0.729  -1.912  0.00  0.00    -0.490 OA
BRANCH  15  17
ATOM     16  C   UNL     1      -1.895   0.994  -1.484  0.00  0.00    +0.048 C 
ATOM     17  C   UNL     1      -1.390  -0.400  -1.108  0.00  0.00    +0.226 C 
ENDBRANCH  15  17
ENDBRANCH   7  15
ENDBRANCH   1  12
BRANCH   4  18
ATOM     18  C   UNL     1       4.027  -1.654  -6.454  0.00  0.00    +0.141 C 
BRANCH  18  19
ATOM     19  C   UNL     1       4.597  -0.500  -7.281  0.00  0.00    +0.162 C 
BRANCH  19  20
ATOM     20  C   UNL     1       5.283  -1.049  -8.505  0.00  0.00    -0.017 A 
ATOM     21  C   UNL     1       6.570  -1.573  -8.394  0.00  0.00    +0.007 A 
ATOM     22  C   UNL     1       7.218  -2.077  -9.480  0.00  0.00    +0.009 A 
ATOM     23  C   UNL     1       6.582  -2.071 -10.733  0.00  0.00    -0.018 A 
ATOM     24  C   UNL     1       7.218  -2.583 -11.877  0.00  0.00    +0.008 A 
ATOM     25  C   UNL     1       6.572  -2.561 -13.074  0.00  0.00    +0.001 A 
ATOM     26  C   UNL     1       5.285  -2.037 -13.185  0.00  0.00    +0.001 A 
ATOM     27  C   UNL     1       4.638  -1.533 -12.099  0.00  0.00    +0.008 A 
ATOM     28  C   UNL     1       5.273  -1.539 -10.846  0.00  0.00    -0.018 A 
ATOM     29  C   UNL     1       4.635  -1.032  -9.701  0.00  0.00    +0.014 A 
ENDBRANCH  19  20
BRANCH  19  30
ATOM     30  O   UNL     1       5.541   0.229  -6.493  0.00  0.00    -0.386 OA
ATOM     31  H   UNL     1       6.290  -0.300  -6.187  0.00  0.00    +0.210 HD
ENDBRANCH  19  30
ENDBRANCH  18  19
ENDBRANCH   4  18
TORSDOF 8
