REMARK  Name = ZINC62473858
REMARK  11 active torsions:
REMARK  status: ('A' for Active; 'I' for Inactive)
REMARK    1  A    between atoms: C_1  and  N_2
REMARK    2  A    between atoms: N_2  and  C_3
REMARK    3  A    between atoms: N_2  and  C_4
REMARK    4  A    between atoms: C_4  and  C_5
REMARK    5  A    between atoms: C_5  and  N_6
REMARK    6  A    between atoms: N_6  and  C_7
REMARK    7  A    between atoms: C_7  and  C_8
REMARK    8  A    between atoms: C_12  and  C_14
REMARK    9  A    between atoms: N_18  and  C_19
REMARK   10  A    between atoms: C_19  and  C_20
REMARK   11  A    between atoms: C_20  and  C_21
REMARK                            x       y       z     vdW  Elec       q    Type
REMARK                         _______ _______ _______ _____ _____    ______ ____
ROOT
ATOM      1  N   UNL     1       0.637  -0.589   3.635  0.00  0.00    -0.283 N 
ATOM      2  C   UNL     1       0.373  -1.817   4.122  0.00  0.00    +0.302 C 
ATOM      3  O   UNL     1       0.961  -2.220   5.107  0.00  0.00    -0.253 OA
ATOM      4  N   UNL     1      -0.543  -2.599   3.518  0.00  0.00    -0.299 N 
ATOM      5  H   UNL     1      -1.013  -2.278   2.732  0.00  0.00    +0.150 HD
ENDROOT
BRANCH   1   6
ATOM      6  C   UNL     1      -0.071  -0.103   2.448  0.00  0.00    +0.091 C 
BRANCH   6   7
ATOM      7  C   UNL     1       0.713  -0.491   1.192  0.00  0.00    -0.060 C 
BRANCH   7   9
ATOM      8  C   UNL     1      -0.018   1.465   0.010  0.00  0.00    -0.097 C 
ATOM      9  N   UNL     1       0.002  -0.004   0.002  0.00  0.00    +0.377 N 
ATOM     10  C   UNL     1       0.690  -0.478  -1.207  0.00  0.00    -0.097 C 
ATOM     11  H   UNL     1      -0.945  -0.353   0.009  0.00  0.00    -0.083 HD
ENDBRANCH   7   9
ENDBRANCH   6   7
ENDBRANCH   1   6
BRANCH   1  12
ATOM     12  C   UNL     1       1.634   0.261   4.292  0.00  0.00    +0.144 C 
BRANCH  12  13
ATOM     13  C   UNL     1       0.960   1.101   5.347  0.00  0.00    -0.029 A 
ATOM     14  C   UNL     1       0.448   2.343   5.018  0.00  0.00    +0.005 A 
ATOM     15  C   UNL     1      -0.172   3.120   5.980  0.00  0.00    +0.002 A 
ATOM     16  C   UNL     1      -0.283   2.660   7.276  0.00  0.00    +0.019 A 
ATOM     17  C   UNL     1       0.231   1.407   7.615  0.00  0.00    +0.052 A 
ATOM     18  C   UNL     1       0.851   0.626   6.637  0.00  0.00    +0.024 A 
BRANCH  17  19
ATOM     19  C   UNL     1       0.119   0.923   8.958  0.00  0.00    +0.099 C 
ATOM     20  N   UNL     1       0.030   0.539  10.024  0.00  0.00    -0.191 NA
ENDBRANCH  17  19
ENDBRANCH  12  13
ENDBRANCH   1  12
BRANCH   4  21
ATOM     21  C   UNL     1      -0.831  -3.934   4.048  0.00  0.00    +0.110 C 
BRANCH  21  22
ATOM     22  C   UNL     1      -1.900  -4.606   3.184  0.00  0.00    +0.056 C 
BRANCH  22  23
ATOM     23  C   UNL     1      -2.196  -5.980   3.729  0.00  0.00    -0.021 A 
ATOM     24  C   UNL     1      -1.644  -7.135   3.325  0.00  0.00    +0.087 A 
ATOM     25  N   UNL     1      -2.157  -8.176   4.050  0.00  0.00    -0.360 N 
ATOM     26  H   UNL     1      -1.911  -9.107   3.939  0.00  0.00    +0.165 HD
ATOM     27  C   UNL     1      -3.076  -7.704   4.961  0.00  0.00    +0.047 A 
ATOM     28  C   UNL     1      -3.136  -6.307   4.804  0.00  0.00    +0.003 A 
ATOM     29  C   UNL     1      -3.990  -5.552   5.609  0.00  0.00    +0.010 A 
ATOM     30  C   UNL     1      -4.763  -6.174   6.549  0.00  0.00    +0.001 A 
ATOM     31  C   UNL     1      -4.704  -7.551   6.710  0.00  0.00    +0.002 A 
ATOM     32  C   UNL     1      -3.875  -8.317   5.920  0.00  0.00    +0.026 A 
ENDBRANCH  22  23
ENDBRANCH  21  22
ENDBRANCH   4  21
TORSDOF 9
