REMARK  Name = ZINC67260327
REMARK  11 active torsions:
REMARK  status: ('A' for Active; 'I' for Inactive)
REMARK    1  A    between atoms: C_1  and  C_2
REMARK    2  A    between atoms: C_2  and  N_3
REMARK    3  A    between atoms: N_3  and  C_4
REMARK    4  A    between atoms: C_4  and  C_5
REMARK    5  A    between atoms: C_8  and  C_11
REMARK    6  A    between atoms: C_11  and  N_12
REMARK    7  A    between atoms: N_12  and  C_13
REMARK    8  A    between atoms: N_12  and  C_14
REMARK    9  A    between atoms: N_17  and  C_18
REMARK   10  A    between atoms: C_23  and  C_24
REMARK   11  A    between atoms: C_24  and  C_25
REMARK                            x       y       z     vdW  Elec       q    Type
REMARK                         _______ _______ _______ _____ _____    ______ ____
ROOT
ATOM      1  N   UNL     1       0.713  -0.474   1.193  0.00  0.00    -0.281 N 
ATOM      2  C   UNL     1       2.042  -0.692   1.143  0.00  0.00    +0.307 C 
ATOM      3  O   UNL     1       2.628  -1.102   2.126  0.00  0.00    -0.252 OA
ATOM      4  N   UNL     1       2.721  -0.456   0.003  0.00  0.00    -0.269 N 
ATOM      5  H   UNL     1       2.243  -0.207  -0.804  0.00  0.00    +0.156 HD
ENDROOT
BRANCH   4   6
ATOM      6  C   UNL     1       4.115  -0.569  -0.018  0.00  0.00    +0.038 A 
ATOM      7  C   UNL     1       4.844  -0.410   1.155  0.00  0.00    +0.023 A 
ATOM      8  C   UNL     1       6.220  -0.523   1.131  0.00  0.00    +0.002 A 
ATOM      9  C   UNL     1       6.873  -0.793  -0.057  0.00  0.00    +0.000 A 
ATOM     10  C   UNL     1       6.151  -0.951  -1.226  0.00  0.00    +0.006 A 
ATOM     11  C   UNL     1       4.774  -0.846  -1.208  0.00  0.00    -0.017 A 
BRANCH  11  12
ATOM     12  C   UNL     1       3.987  -1.024  -2.481  0.00  0.00    +0.132 C 
BRANCH  12  13
ATOM     13  C   UNL     1       3.729   0.323  -3.105  0.00  0.00    +0.215 C 
ATOM     14  O   UNL     1       4.143   1.329  -2.569  0.00  0.00    -0.276 OA
ATOM     15  N   UNL     1       3.038   0.410  -4.259  0.00  0.00    -0.329 N 
ATOM     16  H   UNL     1       2.707  -0.394  -4.688  0.00  0.00    +0.145 HD
ATOM     17  H   UNL     1       2.872   1.278  -4.661  0.00  0.00    +0.145 HD
ENDBRANCH  12  13
ENDBRANCH  11  12
ENDBRANCH   4   6
BRANCH   1  19
ATOM     18  C   UNL     1      -0.001   1.550   0.020  0.00  0.00    +0.024 C 
ATOM     19  C   UNL     1       0.006   0.021   0.009  0.00  0.00    +0.106 C 
ENDBRANCH   1  19
BRANCH   1  20
ATOM     20  C   UNL     1      -0.025  -0.730   2.433  0.00  0.00    +0.144 C 
BRANCH  20  21
ATOM     21  C   UNL     1      -0.513  -2.156   2.440  0.00  0.00    -0.030 A 
ATOM     22  C   UNL     1      -1.750  -2.466   1.905  0.00  0.00    +0.005 A 
ATOM     23  C   UNL     1      -2.198  -3.773   1.912  0.00  0.00    +0.002 A 
ATOM     24  C   UNL     1      -1.410  -4.771   2.453  0.00  0.00    -0.064 A 
ATOM     25  C   UNL     1      -0.172  -4.462   2.987  0.00  0.00    +0.002 A 
ATOM     26  C   UNL     1       0.277  -3.155   2.976  0.00  0.00    +0.005 A 
BRANCH  24  27
ATOM     27  C   UNL     1      -1.899  -6.197   2.462  0.00  0.00    -0.044 C 
BRANCH  27  28
ATOM     28  N   UNL     1      -1.472  -6.868   1.227  0.00  0.00    +0.379 N 
ATOM     29  C   UNL     1      -0.006  -6.960   1.201  0.00  0.00    -0.096 C 
ATOM     30  C   UNL     1      -2.048  -8.219   1.179  0.00  0.00    -0.096 C 
ATOM     31  H   UNL     1      -1.790  -6.338   0.429  0.00  0.00    -0.082 HD
ENDBRANCH  27  28
ENDBRANCH  24  27
ENDBRANCH  20  21
ENDBRANCH   1  20
TORSDOF 8
