REMARK  Name = ZINC08742452
REMARK  8 active torsions:
REMARK  status: ('A' for Active; 'I' for Inactive)
REMARK    1  A    between atoms: C_1  and  N_54
REMARK    2  A    between atoms: C_2  and  N_54
REMARK    3  A    between atoms: C_3  and  C_4
REMARK    4  A    between atoms: C_3  and  N_54
REMARK    5  A    between atoms: C_4  and  N_5
REMARK    6  A    between atoms: C_6  and  C_25
REMARK    7  A    between atoms: C_9  and  C_10
REMARK    8  A    between atoms: C_9  and  O_20
REMARK                            x       y       z     vdW  Elec       q    Type
REMARK                         _______ _______ _______ _____ _____    ______ ____
ROOT
ATOM      1  N   UNL     1       4.439  -4.335   0.227  0.00  0.00    -0.285 N 
ATOM      2  C   UNL     1       4.927  -2.956   0.141  0.00  0.00    +0.144 C 
ATOM      3  C   UNL     1       3.707  -2.070   0.048  0.00  0.00    +0.071 C 
ATOM      4  C   UNL     1       3.687  -0.691  -0.047  0.00  0.00    +0.133 C 
ATOM      5  C   UNL     1       2.598  -2.928   0.071  0.00  0.00    +0.249 C 
ATOM      6  O   UNL     1       1.430  -2.588   0.010  0.00  0.00    -0.282 OA
ATOM      7  C   UNL     1       3.096  -4.326   0.183  0.00  0.00    +0.288 C 
ATOM      8  O   UNL     1       2.391  -5.314   0.227  0.00  0.00    -0.266 OA
ENDROOT
BRANCH   4   9
ATOM      9  C   UNL     1       2.419   0.011  -0.297  0.00  0.00    +0.021 A 
ATOM     10  C   UNL     1       1.590  -0.390  -1.351  0.00  0.00    +0.015 A 
ATOM     11  C   UNL     1       0.405   0.271  -1.583  0.00  0.00    +0.050 A 
ATOM     12  C   UNL     1       0.026   1.337  -0.773  0.00  0.00    +0.162 A 
ATOM     13  C   UNL     1       0.845   1.739   0.280  0.00  0.00    +0.163 A 
ATOM     14  C   UNL     1       2.037   1.082   0.518  0.00  0.00    +0.061 A 
ATOM     15  O   UNL     1       0.483   2.775   1.087  0.00  0.00    -0.485 OA
ATOM     16  C   UNL     1      -0.537   3.649   0.593  0.00  0.00    +0.270 C 
ATOM     17  C   UNL     1      -1.676   2.788   0.029  0.00  0.00    +0.270 C 
ATOM     18  O   UNL     1      -1.145   1.979  -1.026  0.00  0.00    -0.485 OA
ENDBRANCH   4   9
BRANCH   2  19
ATOM     19  C   UNL     1       5.785  -2.784  -1.086  0.00  0.00    -0.021 A 
ATOM     20  C   UNL     1       5.439  -3.417  -2.265  0.00  0.00    +0.006 A 
ATOM     21  C   UNL     1       6.223  -3.255  -3.392  0.00  0.00    +0.001 A 
ATOM     22  C   UNL     1       7.359  -2.469  -3.338  0.00  0.00    +0.015 A 
ATOM     23  C   UNL     1       7.709  -1.841  -2.156  0.00  0.00    +0.018 A 
ATOM     24  C   UNL     1       6.921  -1.998  -1.030  0.00  0.00    +0.021 A 
ATOM     25 BR   UNL     1       9.263  -0.767  -2.081  0.00  0.00    -0.050 Br
ENDBRANCH   2  19
BRANCH   4  26
ATOM     26  O   UNL     1       4.832   0.011   0.089  0.00  0.00    -0.506 OA
ATOM     27  H   UNL     1       4.638   0.987  -0.007  0.00  0.00    +0.292 HD
ENDBRANCH   4  26
BRANCH   1  28
ATOM     28  C   UNL     1       5.278  -5.530   0.337  0.00  0.00    +0.090 C 
BRANCH  28  29
ATOM     29  C   UNL     1       5.618  -6.046  -1.063  0.00  0.00    -0.060 C 
BRANCH  29  32
ATOM     30  C   UNL     1       5.717  -8.355  -0.342  0.00  0.00    -0.097 C 
ATOM     31  C   UNL     1       7.001  -7.630  -2.263  0.00  0.00    -0.097 C 
ATOM     32  N   UNL     1       6.482  -7.238  -0.936  0.00  0.00    +0.377 N 
ATOM     33  H   UNL     1       7.273  -7.012  -0.322  0.00  0.00    -0.083 HD
ENDBRANCH  29  32
ENDBRANCH  28  29
ENDBRANCH   1  28
TORSDOF 6
