REMARK  Name = ZINC39580041
REMARK  9 active torsions:
REMARK  status: ('A' for Active; 'I' for Inactive)
REMARK    1  A    between atoms: C_1  and  C_2
REMARK    2  A    between atoms: C_3  and  O_28
REMARK    3  A    between atoms: C_4  and  C_8
REMARK    4  A    between atoms: C_11  and  O_15
REMARK    5  A    between atoms: C_13  and  O_14
REMARK    6  A    between atoms: O_15  and  C_16
REMARK    7  A    between atoms: C_16  and  C_17
REMARK    8  A    between atoms: N_20  and  C_22
REMARK    9  A    between atoms: O_28  and  C_29
REMARK                            x       y       z     vdW  Elec       q    Type
REMARK                         _______ _______ _______ _____ _____    ______ ____
ROOT
ATOM      1  C   UNL     1      -1.205  -2.841   1.864  0.00  0.00    +0.025 A 
ATOM      2  C   UNL     1      -0.301  -2.783   2.908  0.00  0.00    +0.013 A 
ATOM      3  C   UNL     1      -0.683  -3.171   4.178  0.00  0.00    +0.046 A 
ATOM      4  C   UNL     1      -1.976  -3.620   4.408  0.00  0.00    +0.124 A 
ATOM      5  C   UNL     1      -2.884  -3.680   3.363  0.00  0.00    +0.091 A 
ATOM      6  C   UNL     1      -2.500  -3.285   2.090  0.00  0.00    +0.126 A 
ENDROOT
BRANCH   1  10
ATOM      7  C   UNL     1       0.216   1.097  -0.290  0.00  0.00    +0.071 C 
ATOM      8  C   UNL     1       0.036  -0.368   0.012  0.00  0.00    +0.098 C 
ATOM      9  C   UNL     1      -1.153  -0.965   0.228  0.00  0.00    +0.156 C 
ATOM     10  C   UNL     1      -0.785  -2.417   0.480  0.00  0.00    +0.200 C 
ATOM     11  N   UNL     1       0.683  -2.408   0.356  0.00  0.00    -0.294 N 
ATOM     12  N   UNL     1       1.034  -1.255   0.097  0.00  0.00    -0.179 NA
ATOM     13  H   UNL     1       1.269  -3.174   0.458  0.00  0.00    +0.184 HD
BRANCH   9  14
ATOM     14  O   UNL     1      -2.382  -0.405   0.221  0.00  0.00    -0.453 OA
BRANCH  14  15
ATOM     15  C   UNL     1      -3.256  -0.796  -0.743  0.00  0.00    +0.163 A 
ATOM     16  C   UNL     1      -2.841  -1.652  -1.753  0.00  0.00    +0.049 A 
ATOM     17  C   UNL     1      -3.732  -2.048  -2.732  0.00  0.00    +0.004 A 
ATOM     18  C   UNL     1      -5.037  -1.591  -2.708  0.00  0.00    +0.003 A 
ATOM     19  C   UNL     1      -5.455  -0.738  -1.704  0.00  0.00    +0.042 A 
ATOM     20  C   UNL     1      -4.569  -0.343  -0.717  0.00  0.00    +0.165 A 
ATOM     21  F   UNL     1      -4.980   0.487   0.267  0.00  0.00    -0.202 F 
ENDBRANCH  14  15
ENDBRANCH   9  14
ENDBRANCH   1  10
BRANCH   6  22
ATOM     22  O   UNL     1      -3.390  -3.337   1.064  0.00  0.00    -0.506 OA
ATOM     23  H   UNL     1      -3.395  -4.179   0.590  0.00  0.00    +0.292 HD
ENDBRANCH   6  22
BRANCH   4  24
ATOM     24  O   UNL     1      -2.351  -4.002   5.657  0.00  0.00    -0.487 OA
BRANCH  24  25
ATOM     25  C   UNL     1      -1.363  -3.915   6.686  0.00  0.00    +0.267 C 
BRANCH  25  26
ATOM     26  C   UNL     1      -1.957  -4.377   7.992  0.00  0.00    +0.027 A 
ATOM     27  C   UNL     1      -2.614  -3.571   8.928  0.00  0.00    +0.141 A 
ATOM     28  N   UNL     1      -2.987  -4.327   9.930  0.00  0.00    -0.174 NA
ATOM     29  N   UNL     1      -2.578  -5.639   9.663  0.00  0.00    -0.239 N 
ATOM     30  C   UNL     1      -1.952  -5.645   8.465  0.00  0.00    +0.121 A 
BRANCH  29  31
ATOM     31  C   UNL     1      -2.785  -6.752  10.491  0.00  0.00    +0.065 A 
ATOM     32  C   UNL     1      -2.319  -8.002  10.105  0.00  0.00    +0.028 A 
ATOM     33  C   UNL     1      -2.524  -9.096  10.923  0.00  0.00    +0.002 A 
ATOM     34  C   UNL     1      -3.192  -8.948  12.124  0.00  0.00    +0.000 A 
ATOM     35  C   UNL     1      -3.658  -7.704  12.511  0.00  0.00    +0.002 A 
ATOM     36  C   UNL     1      -3.451  -6.605  11.700  0.00  0.00    +0.028 A 
ENDBRANCH  29  31
ENDBRANCH  25  26
ENDBRANCH  24  25
ENDBRANCH   4  24
TORSDOF 8
