REMARK  Name = ZINC00065569
REMARK  6 active torsions:
REMARK  status: ('A' for Active; 'I' for Inactive)
REMARK    1  A    between atoms: C_1  and  C_2
REMARK    2  A    between atoms: C_5  and  N_9
REMARK    3  A    between atoms: C_7  and  C_8
REMARK    4  A    between atoms: C_10  and  C_11
REMARK    5  A    between atoms: C_15  and  O_18
REMARK    6  A    between atoms: C_16  and  O_17
REMARK                            x       y       z     vdW  Elec       q    Type
REMARK                         _______ _______ _______ _____ _____    ______ ____
ROOT
ATOM      1  N   UNL     1      -0.017   1.364   0.009  0.00  0.00    -0.255 NA
ATOM      2  C   UNL     1       1.104   2.032   0.002  0.00  0.00    +0.123 C 
ENDROOT
BRANCH   1   7
ATOM      3  C   UNL     1       0.060  -4.280  -0.022  0.00  0.00    +0.044 C 
ATOM      4  C   UNL     1       0.040  -2.773  -0.013  0.00  0.00    -0.047 A 
ATOM      5  C   UNL     1       0.871  -2.068  -0.866  0.00  0.00    +0.006 A 
ATOM      6  C   UNL     1       0.853  -0.690  -0.868  0.00  0.00    +0.028 A 
ATOM      7  C   UNL     1       0.002  -0.004   0.002  0.00  0.00    +0.064 A 
ATOM      8  C   UNL     1      -0.834  -0.722   0.860  0.00  0.00    +0.031 A 
ATOM      9  C   UNL     1      -0.810  -2.101   0.847  0.00  0.00    -0.046 A 
ATOM     10  C   UNL     1      -1.711  -2.877   1.773  0.00  0.00    +0.044 C 
ENDBRANCH   1   7
BRANCH   2  11
ATOM     11  C   UNL     1       1.084   3.502   0.011  0.00  0.00    +0.038 A 
ATOM     12  C   UNL     1       2.284   4.222   0.003  0.00  0.00    +0.013 A 
ATOM     13  C   UNL     1       2.260   5.599   0.011  0.00  0.00    +0.004 A 
ATOM     14  C   UNL     1       1.053   6.279   0.026  0.00  0.00    +0.049 A 
ATOM     15  C   UNL     1      -0.143   5.580   0.034  0.00  0.00    +0.159 A 
ATOM     16  C   UNL     1      -0.137   4.190   0.020  0.00  0.00    +0.167 A 
BRANCH  16  17
ATOM     17  O   UNL     1      -1.308   3.502   0.022  0.00  0.00    -0.503 OA
ATOM     18  H   UNL     1      -1.643   3.298   0.906  0.00  0.00    +0.292 HD
ENDBRANCH  16  17
BRANCH  15  19
ATOM     19  O   UNL     1      -1.324   6.255   0.049  0.00  0.00    -0.503 OA
ATOM     20  H   UNL     1      -1.674   6.455  -0.830  0.00  0.00    +0.292 HD
ENDBRANCH  15  19
ENDBRANCH   2  11
TORSDOF 4
