REMARK  Name = ZINC21866148
REMARK  12 active torsions:
REMARK  status: ('A' for Active; 'I' for Inactive)
REMARK    1  A    between atoms: C_1  and  C_2
REMARK    2  A    between atoms: C_2  and  C_3
REMARK    3  A    between atoms: C_2  and  C_4
REMARK    4  A    between atoms: C_4  and  C_5
REMARK    5  A    between atoms: C_5  and  N_6
REMARK    6  A    between atoms: C_7  and  C_9
REMARK    7  A    between atoms: C_9  and  C_36
REMARK    8  A    between atoms: C_18  and  N_31
REMARK    9  A    between atoms: N_22  and  C_23
REMARK   10  A    between atoms: C_23  and  C_24
REMARK   11  A    between atoms: C_24  and  C_25
REMARK   12  A    between atoms: C_32  and  C_34
REMARK                            x       y       z     vdW  Elec       q    Type
REMARK                         _______ _______ _______ _____ _____    ______ ____
ROOT
ATOM      1  C   UNL     1      -1.189   3.417   0.537  0.00  0.00    +0.128 C 
ATOM      2  C   UNL     1      -2.515   4.130   0.797  0.00  0.00    +0.157 C 
ATOM      3  N   UNL     1      -2.276   5.578   0.872  0.00  0.00    -0.332 N 
ATOM      4  C   UNL     1      -3.101   6.608   0.553  0.00  0.00    +0.052 A 
ATOM      5  C   UNL     1      -4.399   6.632   0.039  0.00  0.00    +0.029 A 
ATOM      6  C   UNL     1      -4.972   7.872  -0.172  0.00  0.00    +0.040 A 
ATOM      7  C   UNL     1      -4.304   9.056   0.107  0.00  0.00    +0.124 A 
ATOM      8  C   UNL     1      -3.017   9.065   0.616  0.00  0.00    +0.050 A 
ATOM      9  C   UNL     1      -2.418   7.820   0.837  0.00  0.00    +0.025 A 
ATOM     10  C   UNL     1      -1.105   7.454   1.348  0.00  0.00    +0.072 A 
ATOM     11  C   UNL     1      -1.054   6.087   1.335  0.00  0.00    +0.127 A 
ATOM     12  C   UNL     1       0.029   5.183   1.736  0.00  0.00    +0.266 C 
ATOM     13  O   UNL     1       1.017   5.588   2.322  0.00  0.00    -0.268 OA
ATOM     14  N   UNL     1      -0.125   3.876   1.422  0.00  0.00    -0.280 N 
ATOM     15  F   UNL     1      -4.928  10.233  -0.123  0.00  0.00    -0.205 F 
ATOM     16  C   UNL     1      -0.770   3.668  -0.912  0.00  0.00    +0.043 C 
ENDROOT
BRANCH  10  17
ATOM     17  N   UNL     1      -0.101   8.323   1.767  0.00  0.00    -0.283 N 
ATOM     18  C   UNL     1      -0.423   9.516   2.304  0.00  0.00    +0.214 C 
ATOM     19  O   UNL     1      -1.586   9.800   2.497  0.00  0.00    -0.276 OA
ATOM     20  C   UNL     1       0.662  10.497   2.666  0.00  0.00    +0.109 C 
ATOM     21  H   UNL     1       0.956   8.036   1.659  0.00  0.00    +0.155 HD
ENDBRANCH  10  17
BRANCH   1  23
ATOM     22  N   UNL     1      -1.470   1.430   1.984  0.00  0.00    -0.313 N 
ATOM     23  C   UNL     1      -1.385   1.936   0.738  0.00  0.00    +0.238 C 
ATOM     24  O   UNL     1      -1.465   1.200  -0.222  0.00  0.00    -0.273 OA
ATOM     25  H   UNL     1      -1.482   2.106   2.852  0.00  0.00    +0.149 HD
BRANCH  22  26
ATOM     26  C   UNL     1      -1.548  -0.019   2.183  0.00  0.00    +0.104 C 
BRANCH  26  27
ATOM     27  C   UNL     1      -1.508  -0.332   3.680  0.00  0.00    +0.022 C 
BRANCH  27  29
ATOM     28  C   UNL     1      -1.292  -2.156   5.373  0.00  0.00    +0.007 C 
ATOM     29  C   UNL     1      -1.458  -1.847   3.883  0.00  0.00    -0.016 C 
ATOM     30  C   UNL     1      -2.757  -2.474   3.373  0.00  0.00    +0.007 C 
ENDBRANCH  27  29
ENDBRANCH  26  27
ENDBRANCH  22  26
ENDBRANCH   1  23
BRANCH  14  31
ATOM     31  C   UNL     1       0.804   2.894   1.987  0.00  0.00    +0.114 C 
BRANCH  31  32
ATOM     32  C   UNL     1       2.065   2.830   1.123  0.00  0.00    +0.054 C 
BRANCH  32  33
ATOM     33  C   UNL     1       2.969   1.737   1.634  0.00  0.00    -0.046 A 
ATOM     34  C   UNL     1       3.855   1.998   2.662  0.00  0.00    +0.004 A 
ATOM     35  C   UNL     1       4.681   0.994   3.134  0.00  0.00    +0.000 A 
ATOM     36  C   UNL     1       4.627  -0.267   2.571  0.00  0.00    +0.000 A 
ATOM     37  C   UNL     1       3.744  -0.526   1.540  0.00  0.00    +0.000 A 
ATOM     38  C   UNL     1       2.915   0.476   1.071  0.00  0.00    +0.004 A 
ENDBRANCH  32  33
ENDBRANCH  31  32
ENDBRANCH  14  31
TORSDOF 8
