REMARK  Name = ZINC36634215
REMARK  4 active torsions:
REMARK  status: ('A' for Active; 'I' for Inactive)
REMARK    1  A    between atoms: C_1  and  C_2
REMARK    2  A    between atoms: C_2  and  N_3
REMARK    3  A    between atoms: N_12  and  C_13
REMARK    4  A    between atoms: C_13  and  C_15
REMARK                            x       y       z     vdW  Elec       q    Type
REMARK                         _______ _______ _______ _____ _____    ______ ____
ROOT
ATOM      1  N   UNL     1      -1.372  -0.511   0.012  0.00  0.00    -0.321 N 
ATOM      2  C   UNL     1      -2.010  -0.751   1.219  0.00  0.00    +0.061 A 
ATOM      3  C   UNL     1      -1.490  -0.567   2.511  0.00  0.00    +0.076 A 
ATOM      4  C   UNL     1      -2.245  -0.850   3.632  0.00  0.00    +0.164 A 
ATOM      5  C   UNL     1      -3.547  -1.326   3.508  0.00  0.00    +0.163 A 
ATOM      6  C   UNL     1      -4.082  -1.518   2.244  0.00  0.00    +0.066 A 
ATOM      7  C   UNL     1      -3.323  -1.234   1.133  0.00  0.00    +0.043 A 
ATOM      8  S   UNL     1      -3.612  -1.333  -0.617  0.00  0.00    -0.052 S 
ATOM      9  C   UNL     1      -2.020  -0.739  -1.165  0.00  0.00    +0.167 A 
ATOM     10  N   UNL     1      -1.579  -0.565  -2.405  0.00  0.00    -0.152 NA
ATOM     11  O   UNL     1      -4.302  -1.602   4.605  0.00  0.00    -0.485 OA
ATOM     12  C   UNL     1      -3.603  -1.746   5.847  0.00  0.00    +0.270 C 
ATOM     13  C   UNL     1      -2.603  -0.589   5.971  0.00  0.00    +0.270 C 
ATOM     14  O   UNL     1      -1.696  -0.659   4.866  0.00  0.00    -0.485 OA
ENDROOT
BRANCH   1  16
ATOM     15  C   UNL     1      -0.019   1.526   0.010  0.00  0.00    +0.027 C 
ATOM     16  C   UNL     1       0.002  -0.004   0.002  0.00  0.00    +0.121 C 
ENDBRANCH   1  16
BRANCH  10  17
ATOM     17  C   UNL     1      -2.374  -0.849  -3.445  0.00  0.00    +0.271 C 
ATOM     18  O   UNL     1      -3.503  -1.266  -3.252  0.00  0.00    -0.268 OA
BRANCH  17  19
ATOM     19  C   UNL     1      -1.883  -0.656  -4.821  0.00  0.00    +0.064 A 
ATOM     20  C   UNL     1      -0.653  -0.205  -5.192  0.00  0.00    +0.096 A 
ATOM     21  N   UNL     1      -0.569  -0.160  -6.545  0.00  0.00    -0.360 N 
ATOM     22  H   UNL     1       0.212   0.128  -7.042  0.00  0.00    +0.165 HD
ATOM     23  C   UNL     1      -1.753  -0.584  -7.114  0.00  0.00    +0.047 A 
ATOM     24  C   UNL     1      -2.627  -0.918  -6.066  0.00  0.00    +0.012 A 
ATOM     25  C   UNL     1      -3.908  -1.386  -6.348  0.00  0.00    +0.011 A 
ATOM     26  C   UNL     1      -4.311  -1.522  -7.659  0.00  0.00    +0.001 A 
ATOM     27  C   UNL     1      -3.448  -1.195  -8.694  0.00  0.00    +0.002 A 
ATOM     28  C   UNL     1      -2.180  -0.724  -8.430  0.00  0.00    +0.026 A 
ENDBRANCH  17  19
ENDBRANCH  10  17
TORSDOF 3
