REMARK  Name = ZINC43093108
REMARK  12 active torsions:
REMARK  status: ('A' for Active; 'I' for Inactive)
REMARK    1  A    between atoms: C_1  and  C_2
REMARK    2  A    between atoms: C_2  and  C_3
REMARK    3  A    between atoms: C_3  and  N_4
REMARK    4  A    between atoms: N_4  and  C_5
REMARK    5  A    between atoms: N_4  and  C_10
REMARK    6  A    between atoms: C_5  and  C_6
REMARK    7  A    between atoms: N_8  and  C_9
REMARK    8  A    between atoms: C_10  and  C_12
REMARK    9  A    between atoms: C_10  and  C_19
REMARK   10  A    between atoms: C_19  and  C_21
REMARK   11  A    between atoms: C_19  and  N_23
REMARK   12  A    between atoms: C_21  and  C_22
REMARK                            x       y       z     vdW  Elec       q    Type
REMARK                         _______ _______ _______ _____ _____    ______ ____
ROOT
ATOM      1  C   UNL     1      -0.894  -2.102  -0.944  0.00  0.00    -0.051 C 
ENDROOT
BRANCH   1   2
ATOM      2  C   UNL     1      -0.849  -3.607  -1.014  0.00  0.00    -0.048 A 
ATOM      3  C   UNL     1       0.342  -4.274  -0.791  0.00  0.00    +0.003 A 
ATOM      4  C   UNL     1       0.383  -5.654  -0.854  0.00  0.00    +0.000 A 
ATOM      5  C   UNL     1      -0.765  -6.368  -1.141  0.00  0.00    +0.001 A 
ATOM      6  C   UNL     1      -1.956  -5.702  -1.364  0.00  0.00    +0.015 A 
ATOM      7  C   UNL     1      -1.999  -4.321  -1.295  0.00  0.00    +0.019 A 
ATOM      8 BR   UNL     1      -3.629  -3.410  -1.593  0.00  0.00    -0.050 Br
ENDBRANCH   1   2
BRANCH   1   9
ATOM      9  N   UNL     1      -0.046  -1.537  -2.002  0.00  0.00    +0.389 N 
ATOM     10  H   UNL     1      -0.228  -0.548  -2.087  0.00  0.00    -0.080 HD
BRANCH   9  11
ATOM     11  C   UNL     1      -0.345  -2.202  -3.277  0.00  0.00    -0.078 C 
BRANCH  11  13
ATOM     12  C   UNL     1      -2.028  -2.432  -5.109  0.00  0.00    +0.002 C 
ATOM     13  C   UNL     1      -1.750  -1.810  -3.739  0.00  0.00    -0.022 C 
ENDBRANCH  11  13
ENDBRANCH   9  11
BRANCH   9  14
ATOM     14  C   UNL     1       1.367  -1.746  -1.660  0.00  0.00    +0.019 C 
BRANCH  14  15
ATOM     15  C   UNL     1       2.220  -0.767  -2.425  0.00  0.00    +0.196 C 
ATOM     16  O   UNL     1       1.701   0.027  -3.181  0.00  0.00    -0.278 OA
ATOM     17  N   UNL     1       3.558  -0.774  -2.270  0.00  0.00    -0.320 N 
ATOM     18  C   UNL     1       4.387   0.178  -3.014  0.00  0.00    +0.128 C 
ATOM     19  H   UNL     1       3.973  -1.409  -1.665  0.00  0.00    +0.148 HD
ENDBRANCH  14  15
ENDBRANCH   9  14
ENDBRANCH   1   9
BRANCH   1  20
ATOM     20  C   UNL     1      -0.383  -1.639   0.422  0.00  0.00    -0.085 C 
BRANCH  20  21
ATOM     21  N   UNL     1      -1.325  -2.064   1.467  0.00  0.00    +0.379 N 
ATOM     22  H   UNL     1      -0.987  -1.758   2.367  0.00  0.00    -0.090 HD
ATOM     23  H   UNL     1      -2.230  -1.655   1.290  0.00  0.00    -0.090 HD
ATOM     24  H   UNL     1      -1.403  -3.070   1.460  0.00  0.00    -0.090 HD
ENDBRANCH  20  21
BRANCH  20  25
ATOM     25  C   UNL     1      -0.264  -0.114   0.432  0.00  0.00    -0.021 C 
ATOM     26  C   UNL     1       0.243   0.349   1.799  0.00  0.00    +0.002 C 
ENDBRANCH  20  25
ENDBRANCH   1  20
TORSDOF 9
