REMARK  Name = ZINC09581878
REMARK  6 active torsions:
REMARK  status: ('A' for Active; 'I' for Inactive)
REMARK    1  A    between atoms: C_1  and  C_2
REMARK    2  A    between atoms: C_3  and  C_12
REMARK    3  A    between atoms: N_22  and  C_23
REMARK    4  A    between atoms: C_23  and  C_24
REMARK    5  A    between atoms: N_26  and  C_27
REMARK    6  A    between atoms: C_27  and  C_28
REMARK                            x       y       z     vdW  Elec       q    Type
REMARK                         _______ _______ _______ _____ _____    ______ ____
ROOT
ATOM      1  C   UNL     1       0.002  -0.004   0.002  0.00  0.00    +0.140 C 
ATOM      2  C   UNL     1      -0.018   1.504   0.010  0.00  0.00    -0.010 A 
ATOM      3  C   UNL     1      -1.033   2.433   0.030  0.00  0.00    +0.006 A 
ATOM      4  C   UNL     1      -0.733   3.785   0.031  0.00  0.00    +0.000 A 
ATOM      5  C   UNL     1       0.585   4.205   0.020  0.00  0.00    +0.001 A 
ATOM      6  C   UNL     1       1.610   3.282   0.005  0.00  0.00    +0.013 A 
ATOM      7  C   UNL     1       1.316   1.917  -0.000  0.00  0.00    +0.042 A 
ATOM      8  C   UNL     1       2.172   0.716  -0.015  0.00  0.00    +0.248 C 
ATOM      9  O   UNL     1       3.388   0.729  -0.027  0.00  0.00    -0.270 OA
ATOM     10  N   UNL     1       1.416  -0.396  -0.014  0.00  0.00    -0.278 N 
ENDROOT
BRANCH   1  13
ATOM     11  C   UNL     1       1.172   0.036   2.877  0.00  0.00    +0.063 C 
ATOM     12  C   UNL     1      -0.172  -0.525   2.488  0.00  0.00    +0.019 A 
ATOM     13  C   UNL     1      -0.669  -0.538   1.241  0.00  0.00    +0.005 A 
ATOM     14  C   UNL     1      -1.992  -1.164   1.315  0.00  0.00    +0.005 A 
ATOM     15  C   UNL     1      -2.977  -1.465   0.372  0.00  0.00    +0.010 A 
ATOM     16  C   UNL     1      -4.132  -2.077   0.769  0.00  0.00    +0.001 A 
ATOM     17  C   UNL     1      -4.332  -2.406   2.103  0.00  0.00    +0.002 A 
ATOM     18  C   UNL     1      -3.371  -2.124   3.049  0.00  0.00    +0.026 A 
ATOM     19  C   UNL     1      -2.187  -1.501   2.666  0.00  0.00    +0.047 A 
ATOM     20  N   UNL     1      -1.065  -1.097   3.353  0.00  0.00    -0.358 N 
ATOM     21  H   UNL     1      -0.927  -1.200   4.307  0.00  0.00    +0.166 HD
ENDBRANCH   1  13
BRANCH  10  22
ATOM     22  C   UNL     1       1.921  -1.771  -0.026  0.00  0.00    +0.204 C 
BRANCH  22  23
ATOM     23  C   UNL     1       2.080  -2.235  -1.451  0.00  0.00    +0.231 C 
ATOM     24  O   UNL     1       1.800  -1.490  -2.366  0.00  0.00    -0.274 OA
ATOM     25  N   UNL     1       2.534  -3.477  -1.708  0.00  0.00    -0.305 N 
ATOM     26  H   UNL     1       2.758  -4.073  -0.976  0.00  0.00    +0.149 HD
BRANCH  25  27
ATOM     27  C   UNL     1       2.689  -3.928  -3.093  0.00  0.00    +0.199 C 
BRANCH  27  28
ATOM     28  C   UNL     1       3.208  -5.343  -3.106  0.00  0.00    +0.228 C 
ATOM     29  O   UNL     1       3.427  -5.918  -2.061  0.00  0.00    -0.274 OA
ATOM     30  N   UNL     1       3.429  -5.970  -4.279  0.00  0.00    -0.328 N 
ATOM     31  H   UNL     1       3.254  -5.510  -5.114  0.00  0.00    +0.145 HD
ATOM     32  H   UNL     1       3.763  -6.880  -4.287  0.00  0.00    +0.145 HD
ENDBRANCH  27  28
ENDBRANCH  25  27
ENDBRANCH  22  23
ENDBRANCH  10  22
TORSDOF 5
