REMARK  Name = ZINC36597634
REMARK  10 active torsions:
REMARK  status: ('A' for Active; 'I' for Inactive)
REMARK    1  A    between atoms: C_1  and  C_2
REMARK    2  A    between atoms: C_5  and  C_7
REMARK    3  A    between atoms: C_7  and  N_8
REMARK    4  A    between atoms: N_8  and  C_9
REMARK    5  A    between atoms: C_9  and  C_11
REMARK    6  A    between atoms: C_9  and  C_20
REMARK    7  A    between atoms: N_22  and  C_23
REMARK    8  A    between atoms: C_29  and  C_31
REMARK    9  A    between atoms: C_32  and  O_38
REMARK   10  A    between atoms: C_36  and  O_37
REMARK                            x       y       z     vdW  Elec       q    Type
REMARK                         _______ _______ _______ _____ _____    ______ ____
ROOT
ATOM      1  N   UNL     1       1.946  -3.590  -1.402  0.00  0.00    -0.274 N 
ATOM      2  C   UNL     1       1.033  -4.460  -1.875  0.00  0.00    +0.255 C 
ATOM      3  O   UNL     1       1.164  -4.935  -2.988  0.00  0.00    -0.270 OA
ENDROOT
BRANCH   2   4
ATOM      4  C   UNL     1      -0.124  -4.836  -1.046  0.00  0.00    +0.119 A 
ATOM      5  C   UNL     1      -1.316  -4.100  -1.121  0.00  0.00    +0.133 A 
ATOM      6  C   UNL     1      -2.399  -4.463  -0.337  0.00  0.00    +0.046 A 
ATOM      7  C   UNL     1      -2.308  -5.547   0.517  0.00  0.00    +0.007 A 
ATOM      8  C   UNL     1      -1.138  -6.279   0.598  0.00  0.00    +0.046 A 
ATOM      9  C   UNL     1      -0.045  -5.937  -0.181  0.00  0.00    +0.133 A 
BRANCH   9  10
ATOM     10  O   UNL     1       1.099  -6.661  -0.104  0.00  0.00    -0.506 OA
ATOM     11  H   UNL     1       1.722  -6.343   0.564  0.00  0.00    +0.292 HD
ENDBRANCH   9  10
BRANCH   5  12
ATOM     12  O   UNL     1      -1.407  -3.036  -1.957  0.00  0.00    -0.506 OA
ATOM     13  H   UNL     1      -1.722  -3.259  -2.844  0.00  0.00    +0.292 HD
ENDBRANCH   5  12
ENDBRANCH   2   4
BRANCH   1  14
ATOM     14  C   UNL     1       1.861  -3.119  -0.017  0.00  0.00    +0.183 C 
BRANCH  14  19
ATOM     15  C   UNL     1       0.522   1.744  -0.069  0.00  0.00    +0.086 C 
ATOM     16  C   UNL     1       0.433   0.242   0.016  0.00  0.00    +0.102 A 
ATOM     17  C   UNL     1      -0.692  -0.470   0.206  0.00  0.00    +0.045 A 
ATOM     18  C   UNL     1      -0.317  -1.833   0.220  0.00  0.00    +0.046 A 
ATOM     19  C   UNL     1       1.015  -1.873   0.038  0.00  0.00    +0.122 A 
ATOM     20  O   UNL     1       1.464  -0.613  -0.090  0.00  0.00    -0.463 OA
ENDBRANCH  14  19
ENDBRANCH   1  14
BRANCH   1  21
ATOM     21  C   UNL     1       3.025  -3.114  -2.272  0.00  0.00    +0.193 C 
BRANCH  21  22
ATOM     22  C   UNL     1       3.908  -4.274  -2.657  0.00  0.00    -0.014 A 
ATOM     23  C   UNL     1       4.143  -4.548  -3.991  0.00  0.00    +0.010 A 
ATOM     24  C   UNL     1       4.953  -5.609  -4.350  0.00  0.00    +0.050 A 
ATOM     25  C   UNL     1       5.529  -6.403  -3.371  0.00  0.00    +0.166 A 
ATOM     26  C   UNL     1       5.292  -6.127  -2.027  0.00  0.00    +0.167 A 
ATOM     27  C   UNL     1       4.484  -5.057  -1.675  0.00  0.00    +0.055 A 
ATOM     28  O   UNL     1       5.964  -7.041  -1.268  0.00  0.00    -0.453 OA
ATOM     29  C   UNL     1       6.283  -8.123  -2.163  0.00  0.00    +0.466 C 
ATOM     30  O   UNL     1       6.351  -7.490  -3.455  0.00  0.00    -0.453 OA
ENDBRANCH  21  22
BRANCH  21  31
ATOM     31  C   UNL     1       2.434  -2.499  -3.514  0.00  0.00    +0.238 C 
ATOM     32  O   UNL     1       1.230  -2.461  -3.658  0.00  0.00    -0.273 OA
ATOM     33  N   UNL     1       3.243  -1.990  -4.465  0.00  0.00    -0.311 N 
ATOM     34  H   UNL     1       4.206  -2.021  -4.349  0.00  0.00    +0.149 HD
BRANCH  33  35
ATOM     35  C   UNL     1       2.669  -1.392  -5.672  0.00  0.00    +0.073 C 
ATOM     36  C   UNL     1       2.391  -2.488  -6.702  0.00  0.00    +0.022 C 
ATOM     37  C   UNL     1       1.791  -1.863  -7.963  0.00  0.00    +0.002 C 
ATOM     38  C   UNL     1       2.777  -0.851  -8.549  0.00  0.00    +0.000 C 
ATOM     39  C   UNL     1       3.055   0.246  -7.519  0.00  0.00    +0.002 C 
ATOM     40  C   UNL     1       3.655  -0.379  -6.258  0.00  0.00    +0.022 C 
ENDBRANCH  33  35
ENDBRANCH  21  31
ENDBRANCH   1  21
TORSDOF 9
