REMARK  Name = ZINC39467663
REMARK  10 active torsions:
REMARK  status: ('A' for Active; 'I' for Inactive)
REMARK    1  A    between atoms: C_1  and  C_2
REMARK    2  A    between atoms: C_2  and  C_3
REMARK    3  A    between atoms: C_2  and  S_4
REMARK    4  A    between atoms: S_4  and  C_7
REMARK    5  A    between atoms: P_16  and  C_31
REMARK    6  A    between atoms: C_24  and  S_25
REMARK    7  A    between atoms: S_25  and  C_28
REMARK    8  A    between atoms: C_28  and  C_29
REMARK    9  A    between atoms: C_28  and  C_30
REMARK   10  A    between atoms: C_36  and  O_37
REMARK                            x       y       z     vdW  Elec       q    Type
REMARK                         _______ _______ _______ _____ _____    ______ ____
ROOT
ATOM      1  C   UNL     1       2.424   0.025  -1.685  0.00  0.00    +0.109 C 
ATOM      2  C   UNL     1       3.473  -0.792  -1.755  0.00  0.00    +0.006 C 
ATOM      3  C   UNL     1       4.859  -0.229  -1.600  0.00  0.00    +0.023 C 
ATOM      4  C   UNL     1       5.834  -1.310  -1.156  0.00  0.00    +0.031 C 
ATOM      5  C   UNL     1       5.474  -1.829   0.242  0.00  0.00    +0.100 C 
ATOM      6  C   UNL     1       6.537  -2.868   0.623  0.00  0.00    +0.189 C 
ATOM      7  O   UNL     1       6.239  -3.413   1.920  0.00  0.00    -0.311 OA
ATOM      8  P   UNL     1       5.962  -2.367   3.136  0.00  0.00    +0.318 P 
ATOM      9  O   UNL     1       7.242  -1.849   3.669  0.00  0.00    -0.266 OA
ATOM     10  N   UNL     1       5.085  -1.143   2.462  0.00  0.00    -0.175 NA
ATOM     11  N   UNL     1       5.445  -0.719   1.198  0.00  0.00    -0.229 NA
ATOM     12  C   UNL     1       4.479   0.318   0.797  0.00  0.00    +0.111 C 
ATOM     13  C   UNL     1       4.844   0.887  -0.552  0.00  0.00    +0.036 C 
ATOM     14  C   UNL     1       3.779   1.890  -0.929  0.00  0.00    +0.007 C 
ATOM     15  C   UNL     1       2.641   1.466  -1.475  0.00  0.00    +0.109 C 
ATOM     16  H   UNL     1       4.344  -0.736   2.937  0.00  0.00    +0.151 HD
ENDROOT
BRANCH   8  17
ATOM     17  C   UNL     1       5.013  -3.174   4.455  0.00  0.00    +0.094 A 
ATOM     18  C   UNL     1       3.632  -3.145   4.430  0.00  0.00    +0.018 A 
ATOM     19  C   UNL     1       2.909  -3.759   5.435  0.00  0.00    +0.001 A 
ATOM     20  C   UNL     1       3.565  -4.403   6.468  0.00  0.00    +0.004 A 
ATOM     21  C   UNL     1       4.945  -4.435   6.498  0.00  0.00    +0.046 A 
ATOM     22  C   UNL     1       5.674  -3.824   5.487  0.00  0.00    +0.131 A 
BRANCH  22  23
ATOM     23  O   UNL     1       7.032  -3.858   5.511  0.00  0.00    -0.506 OA
ATOM     24  H   UNL     1       7.436  -3.118   5.984  0.00  0.00    +0.292 HD
ENDBRANCH  22  23
ENDBRANCH   8  17
BRANCH   1  25
ATOM     25  S   UNL     1       0.789  -0.613  -1.849  0.00  0.00    +0.001 S 
ATOM     26  O   UNL     1       0.955  -1.881  -2.469  0.00  0.00    -0.169 OA
ATOM     27  O   UNL     1       0.060   0.421  -2.498  0.00  0.00    -0.169 OA
BRANCH  25  29
ATOM     28  C   UNL     1       0.190   0.535   0.560  0.00  0.00    +0.032 C 
ATOM     29  C   UNL     1       0.197  -0.822  -0.147  0.00  0.00    +0.130 C 
ATOM     30  C   UNL     1      -1.222  -1.394  -0.168  0.00  0.00    +0.032 C 
ENDBRANCH  25  29
ENDBRANCH   1  25
BRANCH  15  31
ATOM     31  S   UNL     1       1.395   2.624  -1.939  0.00  0.00    +0.001 S 
ATOM     32  O   UNL     1       0.213   2.159  -1.301  0.00  0.00    -0.169 OA
ATOM     33  O   UNL     1       1.942   3.894  -1.615  0.00  0.00    -0.169 OA
BRANCH  31  34
ATOM     34  C   UNL     1       1.244   2.449  -3.738  0.00  0.00    +0.130 C 
ATOM     35  C   UNL     1       0.271   3.502  -4.272  0.00  0.00    +0.032 C 
ATOM     36  C   UNL     1       2.615   2.647  -4.387  0.00  0.00    +0.032 C 
ENDBRANCH  31  34
ENDBRANCH  15  31
TORSDOF 6
