REMARK  Name = ZINC41004921
REMARK  13 active torsions:
REMARK  status: ('A' for Active; 'I' for Inactive)
REMARK    1  A    between atoms: C_1  and  C_2
REMARK    2  A    between atoms: C_2  and  O_3
REMARK    3  A    between atoms: O_3  and  C_4
REMARK    4  A    between atoms: C_6  and  C_19
REMARK    5  A    between atoms: C_9  and  O_10
REMARK    6  A    between atoms: O_10  and  C_11
REMARK    7  A    between atoms: C_11  and  C_12
REMARK    8  A    between atoms: C_15  and  C_18
REMARK    9  A    between atoms: C_21  and  C_33
REMARK   10  A    between atoms: C_22  and  C_32
REMARK   11  A    between atoms: C_27  and  S_29
REMARK   12  A    between atoms: S_29  and  C_30
REMARK   13  A    between atoms: C_30  and  C_31
REMARK                            x       y       z     vdW  Elec       q    Type
REMARK                         _______ _______ _______ _____ _____    ______ ____
ROOT
ATOM      1  C   UNL     1      -0.172  -4.978  -0.635  0.00  0.00    +0.177 C 
ATOM      2  C   UNL     1      -1.288  -5.832  -0.096  0.00  0.00    +0.060 C 
ATOM      3  C   UNL     1      -1.132  -7.124   0.224  0.00  0.00    +0.018 C 
ATOM      4  N   UNL     1       0.068  -7.776   0.071  0.00  0.00    -0.287 N 
ATOM      5  C   UNL     1       1.052  -7.138  -0.670  0.00  0.00    +0.219 A 
ATOM      6  N   UNL     1       0.953  -5.830  -1.014  0.00  0.00    -0.220 N 
ATOM      7  N   UNL     1       2.095  -5.522  -1.752  0.00  0.00    -0.141 NA
ATOM      8  C   UNL     1       2.812  -6.624  -1.815  0.00  0.00    +0.210 A 
ATOM      9  N   UNL     1       2.173  -7.600  -1.154  0.00  0.00    -0.187 NA
ATOM     10  C   UNL     1      -2.311  -7.888   0.770  0.00  0.00    +0.061 C 
ATOM     11  H   UNL     1       0.221  -8.649   0.466  0.00  0.00    +0.155 HD
ENDROOT
BRANCH   1  14
ATOM     12  C   UNL     1       0.596  -1.743   1.159  0.00  0.00    +0.162 A 
ATOM     13  C   UNL     1       0.189  -2.642   0.187  0.00  0.00    +0.055 A 
ATOM     14  C   UNL     1       0.272  -4.002   0.424  0.00  0.00    -0.015 A 
ATOM     15  C   UNL     1       0.759  -4.468   1.631  0.00  0.00    +0.010 A 
ATOM     16  C   UNL     1       1.167  -3.576   2.605  0.00  0.00    +0.050 A 
ATOM     17  C   UNL     1       1.092  -2.212   2.372  0.00  0.00    +0.162 A 
BRANCH  12  18
ATOM     18  O   UNL     1       0.516  -0.406   0.928  0.00  0.00    -0.489 OA
BRANCH  18  20
ATOM     19  C   UNL     1      -0.017   1.531  -0.416  0.00  0.00    +0.048 C 
ATOM     20  C   UNL     1      -0.004   0.003  -0.339  0.00  0.00    +0.226 C 
ENDBRANCH  18  20
ENDBRANCH  12  18
BRANCH  17  21
ATOM     21  O   UNL     1       1.498  -1.334   3.328  0.00  0.00    -0.484 OA
BRANCH  21  22
ATOM     22  C   UNL     1       1.997  -1.887   4.547  0.00  0.00    +0.264 C 
BRANCH  22  23
ATOM     23  C   UNL     1       2.395  -0.772   5.479  0.00  0.00    -0.010 A 
ATOM     24  C   UNL     1       3.683  -0.269   5.444  0.00  0.00    +0.007 A 
ATOM     25  C   UNL     1       4.048   0.754   6.299  0.00  0.00    +0.004 A 
ATOM     26  C   UNL     1       3.127   1.275   7.187  0.00  0.00    -0.050 A 
ATOM     27  C   UNL     1       1.839   0.773   7.221  0.00  0.00    +0.004 A 
ATOM     28  C   UNL     1       1.472  -0.247   6.364  0.00  0.00    +0.007 A 
ATOM     29  C   UNL     1       3.526   2.390   8.120  0.00  0.00    +0.044 C 
ENDBRANCH  22  23
ENDBRANCH  21  22
ENDBRANCH  17  21
ENDBRANCH   1  14
BRANCH   2  30
ATOM     30  C   UNL     1      -2.562  -5.242   0.084  0.00  0.00    +0.241 C 
ATOM     31  O   UNL     1      -3.313  -5.116  -0.866  0.00  0.00    -0.271 OA
ATOM     32  N   UNL     1      -2.943  -4.820   1.305  0.00  0.00    -0.325 N 
ATOM     33  H   UNL     1      -2.345  -4.921   2.062  0.00  0.00    +0.145 HD
ATOM     34  H   UNL     1      -3.817  -4.416   1.428  0.00  0.00    +0.145 HD
ENDBRANCH   2  30
BRANCH   8  35
ATOM     35  S   UNL     1       4.363  -6.789  -2.636  0.00  0.00    -0.085 S 
BRANCH  35  36
ATOM     36  C   UNL     1       4.823  -8.522  -2.359  0.00  0.00    +0.074 C 
ATOM     37  C   UNL     1       6.169  -8.805  -3.028  0.00  0.00    +0.016 C 
ENDBRANCH  35  36
ENDBRANCH   8  35
TORSDOF 9
