REMARK  Name = ZINC66267635
REMARK  6 active torsions:
REMARK  status: ('A' for Active; 'I' for Inactive)
REMARK    1  A    between atoms: C_1  and  C_2
REMARK    2  A    between atoms: C_5  and  C_12
REMARK    3  A    between atoms: C_8  and  C_10
REMARK    4  A    between atoms: C_8  and  C_11
REMARK    5  A    between atoms: C_12  and  C_13
REMARK    6  A    between atoms: N_15  and  N_16
REMARK                            x       y       z     vdW  Elec       q    Type
REMARK                         _______ _______ _______ _____ _____    ______ ____
ROOT
ATOM      1  C   UNL     1      -4.342  -0.151   0.136  0.00  0.00    +0.230 C 
ATOM      2  O   UNL     1      -3.824   0.803  -0.404  0.00  0.00    -0.274 OA
ATOM      3  N   UNL     1      -5.622  -0.469  -0.141  0.00  0.00    -0.224 N 
ATOM      4  H   UNL     1      -6.037  -1.232   0.291  0.00  0.00    +0.174 HD
ENDROOT
BRANCH   3   5
ATOM      5  N   UNL     1      -6.354   0.304  -1.052  0.00  0.00    -0.147 N 
ATOM      6  C   UNL     1      -6.848   1.527  -0.788  0.00  0.00    +0.271 C 
ATOM      7  O   UNL     1      -6.732   2.127   0.262  0.00  0.00    -0.268 OA
ATOM      8  C   UNL     1      -7.555   2.019  -1.989  0.00  0.00    +0.051 A 
ATOM      9  C   UNL     1      -8.243   3.181  -2.300  0.00  0.00    +0.014 A 
ATOM     10  C   UNL     1      -8.806   3.331  -3.557  0.00  0.00    +0.001 A 
ATOM     11  C   UNL     1      -8.686   2.330  -4.503  0.00  0.00    +0.001 A 
ATOM     12  C   UNL     1      -8.001   1.162  -4.207  0.00  0.00    +0.014 A 
ATOM     13  C   UNL     1      -7.433   0.998  -2.954  0.00  0.00    +0.051 A 
ATOM     14  C   UNL     1      -6.651  -0.077  -2.307  0.00  0.00    +0.271 C 
ATOM     15  O   UNL     1      -6.332  -1.130  -2.822  0.00  0.00    -0.268 OA
ENDBRANCH   3   5
BRANCH   1  16
ATOM     16  C   UNL     1      -3.555  -0.983   1.116  0.00  0.00    +0.101 C 
BRANCH  16  20
ATOM     17  C   UNL     1      -0.019   1.524   0.010  0.00  0.00    +0.007 C 
ATOM     18  C   UNL     1       0.002  -0.004   0.002  0.00  0.00    -0.013 C 
ATOM     19  C   UNL     1      -1.412  -0.559  -0.088  0.00  0.00    +0.007 C 
ATOM     20  C   UNL     1      -2.138  -0.411   1.248  0.00  0.00    -0.001 C 
ATOM     21  C   UNL     1      -1.378  -1.199   2.313  0.00  0.00    +0.010 C 
ATOM     22  C   UNL     1       0.034  -0.651   2.488  0.00  0.00    -0.034 C 
ATOM     23  C   UNL     1       0.787  -0.560   1.172  0.00  0.00    +0.009 C 
ATOM     24  C   UNL     1      -0.015   0.710   3.188  0.00  0.00    +0.011 C 
ATOM     25  C   UNL     1       0.803  -1.619   3.413  0.00  0.00    +0.011 C 
ENDBRANCH  16  20
ENDBRANCH   1  16
TORSDOF 3
