REMARK  Name = ZINC39391670
REMARK  6 active torsions:
REMARK  status: ('A' for Active; 'I' for Inactive)
REMARK    1  A    between atoms: C_7  and  C_10
REMARK    2  A    between atoms: C_10  and  C_11
REMARK    3  A    between atoms: C_11  and  N_12
REMARK    4  A    between atoms: C_13  and  C_15
REMARK    5  A    between atoms: C_23  and  C_32
REMARK    6  A    between atoms: C_26  and  C_28
REMARK                            x       y       z     vdW  Elec       q    Type
REMARK                         _______ _______ _______ _____ _____    ______ ____
ROOT
ATOM      1  C   UNL     1      -4.436   7.006  -2.998  0.00  0.00    +0.091 C 
ATOM      2  C   UNL     1      -5.684   6.919  -2.083  0.00  0.00    +0.111 C 
ATOM      3  N   UNL     1      -6.813   7.458  -2.892  0.00  0.00    -0.254 NA
ATOM      4  N   UNL     1      -6.406   7.247  -4.272  0.00  0.00    -0.245 NA
ATOM      5  C   UNL     1      -4.969   7.650  -4.284  0.00  0.00    +0.030 C 
ATOM      6  N   UNL     1      -4.373   7.129  -5.509  0.00  0.00    +0.397 N 
ATOM      7  C   UNL     1      -4.992   7.835  -6.646  0.00  0.00    -0.000 C 
ATOM      8  C   UNL     1      -6.506   7.632  -6.657  0.00  0.00    +0.021 C 
ATOM      9  C   UNL     1      -7.118   8.010  -5.290  0.00  0.00    +0.174 C 
ATOM     10  H   UNL     1      -6.956   8.439  -2.704  0.00  0.00    +0.141 HD
ATOM     11  H   UNL     1      -3.378   7.296  -5.503  0.00  0.00    -0.082 HD
ATOM     12  H   UNL     1      -4.553   6.138  -5.583  0.00  0.00    -0.082 HD
ENDROOT
BRANCH   7  13
ATOM     13  C   UNL     1      -4.691   9.308  -6.537  0.00  0.00    +0.091 A 
ATOM     14  C   UNL     1      -3.584   9.847  -5.996  0.00  0.00    +0.043 A 
ATOM     15  C   UNL     1      -3.718  11.250  -6.103  0.00  0.00    +0.041 A 
ATOM     16  C   UNL     1      -4.898  11.485  -6.704  0.00  0.00    +0.195 A 
ATOM     17  O   UNL     1      -5.481  10.304  -6.970  0.00  0.00    -0.469 OA
ENDBRANCH   7  13
BRANCH   1  19
ATOM     18  N   UNL     1      -2.568   5.459  -3.482  0.00  0.00    -0.315 N 
ATOM     19  C   UNL     1      -3.889   5.631  -3.281  0.00  0.00    +0.217 C 
ATOM     20  O   UNL     1      -4.639   4.678  -3.327  0.00  0.00    -0.275 OA
ATOM     21  H   UNL     1      -1.969   6.221  -3.445  0.00  0.00    +0.149 HD
BRANCH  18  22
ATOM     22  C   UNL     1      -2.036   4.122  -3.757  0.00  0.00    +0.109 C 
BRANCH  22  23
ATOM     23  C   UNL     1      -0.520   4.205  -3.946  0.00  0.00    +0.056 C 
BRANCH  23  30
ATOM     24  C   UNL     1      -0.075   1.675  -7.867  0.00  0.00    +0.001 A 
ATOM     25  C   UNL     1       0.498   0.430  -7.645  0.00  0.00    +0.002 A 
ATOM     26  C   UNL     1       0.873   0.045  -6.377  0.00  0.00    +0.026 A 
ATOM     27  C   UNL     1       0.677   0.910  -5.306  0.00  0.00    +0.047 A 
ATOM     28  N   UNL     1       0.936   0.823  -3.956  0.00  0.00    -0.360 N 
ATOM     29  C   UNL     1       0.542   1.975  -3.331  0.00  0.00    +0.087 A 
ATOM     30  C   UNL     1       0.026   2.829  -4.229  0.00  0.00    -0.021 A 
ATOM     31  C   UNL     1       0.096   2.171  -5.536  0.00  0.00    +0.003 A 
ATOM     32  C   UNL     1      -0.272   2.543  -6.830  0.00  0.00    +0.010 A 
ATOM     33  H   UNL     1       1.337   0.059  -3.514  0.00  0.00    +0.165 HD
ENDBRANCH  23  30
ENDBRANCH  22  23
ENDBRANCH  18  22
ENDBRANCH   1  19
BRANCH   9  34
ATOM     34  C   UNL     1      -6.932   9.509  -5.042  0.00  0.00    +0.406 C 
ATOM     35  F   UNL     1      -5.567   9.799  -4.941  0.00  0.00    -0.169 F 
ATOM     36  F   UNL     1      -7.484  10.229  -6.107  0.00  0.00    -0.169 F 
ATOM     37  F   UNL     1      -7.574   9.868  -3.853  0.00  0.00    -0.169 F 
ENDBRANCH   9  34
TORSDOF 6
