REMARK  Name = ZINC39372470
REMARK  4 active torsions:
REMARK  status: ('A' for Active; 'I' for Inactive)
REMARK    1  A    between atoms: C_6  and  C_10
REMARK    2  A    between atoms: C_10  and  S_11
REMARK    3  A    between atoms: S_11  and  C_12
REMARK    4  A    between atoms: C_16  and  C_19
REMARK                            x       y       z     vdW  Elec       q    Type
REMARK                         _______ _______ _______ _____ _____    ______ ____
ROOT
ATOM      1  C   UNL     1      -4.923  -5.475  -1.537  0.00  0.00    +0.317 C 
ATOM      2  N   UNL     1      -4.156  -6.453  -0.755  0.00  0.00    -0.170 NA
ATOM      3  N   UNL     1      -4.890  -7.002   0.077  0.00  0.00    -0.278 N 
ATOM      4  C   UNL     1      -6.256  -6.471  -0.027  0.00  0.00    +0.263 C 
ATOM      5  O   UNL     1      -6.130  -5.246  -0.781  0.00  0.00    -0.316 OA
ATOM      6  H   UNL     1      -4.605  -7.683   0.705  0.00  0.00    +0.185 HD
ENDROOT
BRANCH   4   7
ATOM      7  C   UNL     1      -6.813  -6.189   1.345  0.00  0.00    +0.004 A 
ATOM      8  C   UNL     1      -5.964  -5.826   2.374  0.00  0.00    +0.008 A 
ATOM      9  C   UNL     1      -6.474  -5.568   3.632  0.00  0.00    +0.001 A 
ATOM     10  C   UNL     1      -7.833  -5.673   3.862  0.00  0.00    +0.015 A 
ATOM     11  C   UNL     1      -8.683  -6.036   2.833  0.00  0.00    +0.018 A 
ATOM     12  C   UNL     1      -8.172  -6.289   1.572  0.00  0.00    +0.023 A 
ATOM     13 BR   UNL     1     -10.542  -6.180   3.147  0.00  0.00    -0.050 Br
ENDBRANCH   4   7
BRANCH   1  14
ATOM     14  S   UNL     1      -3.985  -3.931  -1.708  0.00  0.00    -0.097 S 
BRANCH  14  15
ATOM     15  C   UNL     1      -3.662  -3.423   0.003  0.00  0.00    +0.147 C 
BRANCH  15  21
ATOM     16  C   UNL     1      -0.017   1.374   0.010  0.00  0.00    +0.002 A 
ATOM     17  C   UNL     1      -1.222   2.061   0.019  0.00  0.00    +0.002 A 
ATOM     18  C   UNL     1      -2.409   1.385   0.021  0.00  0.00    +0.030 A 
ATOM     19  C   UNL     1      -2.415  -0.012   0.014  0.00  0.00    +0.089 A 
ATOM     20  N   UNL     1      -3.402  -0.944   0.014  0.00  0.00    -0.232 NA
ATOM     21  C   UNL     1      -2.879  -2.135   0.005  0.00  0.00    +0.118 A 
ATOM     22  N   UNL     1      -1.521  -2.049  -0.001  0.00  0.00    -0.341 N 
ATOM     23  C   UNL     1      -1.194  -0.708   0.004  0.00  0.00    +0.066 A 
ATOM     24  C   UNL     1       0.002  -0.004   0.002  0.00  0.00    +0.028 A 
ATOM     25  H   UNL     1      -0.898  -2.793  -0.008  0.00  0.00    +0.167 HD
ENDBRANCH  15  21
ENDBRANCH  14  15
ENDBRANCH   1  14
TORSDOF 4
