REMARK  Name = ZINC64890718
REMARK  8 active torsions:
REMARK  status: ('A' for Active; 'I' for Inactive)
REMARK    1  A    between atoms: C_1  and  C_2
REMARK    2  A    between atoms: C_5  and  N_9
REMARK    3  A    between atoms: C_7  and  C_8
REMARK    4  A    between atoms: C_11  and  C_16
REMARK    5  A    between atoms: C_19  and  C_22
REMARK    6  A    between atoms: N_34  and  C_35
REMARK    7  A    between atoms: C_35  and  C_36
REMARK    8  A    between atoms: C_35  and  C_37
REMARK                            x       y       z     vdW  Elec       q    Type
REMARK                         _______ _______ _______ _____ _____    ______ ____
ROOT
ATOM      1  C   UNL     1      -0.305  -7.423  -1.381  0.00  0.00    +0.297 C 
ATOM      2  N   UNL     1       0.058  -8.758  -0.882  0.00  0.00    -0.289 N 
ATOM      3  C   UNL     1      -1.095  -9.319  -0.364  0.00  0.00    +0.168 C 
ATOM      4  N   UNL     1      -2.100  -8.512  -0.479  0.00  0.00    -0.067 NA
ATOM      5  O   UNL     1      -1.708  -7.301  -1.104  0.00  0.00    -0.369 OA
ATOM      6  H   UNL     1       0.938  -9.167  -0.911  0.00  0.00    +0.151 HD
ENDROOT
BRANCH   3   7
ATOM      7  C   UNL     1      -1.170 -10.666   0.243  0.00  0.00    +0.020 A 
ATOM      8  C   UNL     1      -0.024 -11.460   0.326  0.00  0.00    +0.013 A 
ATOM      9  C   UNL     1      -0.091 -12.714   0.890  0.00  0.00    +0.028 A 
ATOM     10  C   UNL     1      -1.302 -13.197   1.381  0.00  0.00    +0.069 A 
ATOM     11  C   UNL     1      -2.452 -12.408   1.300  0.00  0.00    +0.067 A 
ATOM     12  C   UNL     1      -2.382 -11.141   0.738  0.00  0.00    +0.039 A 
ATOM     13  N   UNL     1      -3.670 -12.878   1.786  0.00  0.00    -0.316 N 
ATOM     14  H   UNL     1      -4.463 -12.323   1.725  0.00  0.00    +0.169 HD
ATOM     15  C   UNL     1      -3.747 -14.105   2.341  0.00  0.00    +0.314 A 
ATOM     16  O   UNL     1      -4.807 -14.520   2.766  0.00  0.00    -0.262 OA
ATOM     17  C   UNL     1      -2.519 -14.946   2.426  0.00  0.00    +0.317 A 
ATOM     18  O   UNL     1      -2.568 -16.054   2.922  0.00  0.00    -0.262 OA
ATOM     19  N   UNL     1      -1.354 -14.466   1.947  0.00  0.00    -0.300 N 
BRANCH  19  20
ATOM     20  C   UNL     1      -0.140 -15.282   2.024  0.00  0.00    +0.085 C 
ATOM     21  C   UNL     1       0.115 -15.681   3.479  0.00  0.00    +0.030 C 
ATOM     22  C   UNL     1      -0.318 -16.542   1.173  0.00  0.00    +0.030 C 
ENDBRANCH  19  20
ENDBRANCH   3   7
BRANCH   1  25
ATOM     23  N   UNL     1       0.070  -4.132   0.199  0.00  0.00    -0.271 N 
ATOM     24  C   UNL     1      -0.008  -4.931  -1.030  0.00  0.00    +0.123 C 
ATOM     25  C   UNL     1       0.481  -6.342  -0.636  0.00  0.00    +0.077 C 
ATOM     26  C   UNL     1       0.168  -6.373   0.878  0.00  0.00    +0.106 C 
ATOM     27  C   UNL     1       0.170  -4.916   1.286  0.00  0.00    +0.220 C 
ATOM     28  O   UNL     1       0.247  -4.514   2.427  0.00  0.00    -0.275 OA
BRANCH  23  33
ATOM     29  C   UNL     1      -0.011   1.539   0.339  0.00  0.00    +0.044 C 
ATOM     30  C   UNL     1       0.011   0.033   0.302  0.00  0.00    -0.047 A 
ATOM     31  C   UNL     1      -0.011  -0.687   1.482  0.00  0.00    +0.005 A 
ATOM     32  C   UNL     1       0.009  -2.068   1.452  0.00  0.00    +0.024 A 
ATOM     33  C   UNL     1       0.050  -2.733   0.233  0.00  0.00    +0.037 A 
ATOM     34  C   UNL     1       0.071  -2.007  -0.950  0.00  0.00    +0.027 A 
ATOM     35  C   UNL     1       0.046  -0.627  -0.913  0.00  0.00    -0.046 A 
ATOM     36  C   UNL     1       0.063   0.162  -2.197  0.00  0.00    +0.044 C 
ENDBRANCH  23  33
ENDBRANCH   1  25
TORSDOF 4
