REMARK  Name = ZINC37606069
REMARK  5 active torsions:
REMARK  status: ('A' for Active; 'I' for Inactive)
REMARK    1  A    between atoms: C_6  and  C_7
REMARK    2  A    between atoms: C_9  and  C_12
REMARK    3  A    between atoms: C_12  and  N_13
REMARK    4  A    between atoms: N_13  and  C_14
REMARK    5  A    between atoms: C_17  and  O_20
REMARK                            x       y       z     vdW  Elec       q    Type
REMARK                         _______ _______ _______ _____ _____    ______ ____
ROOT
ATOM      1  C   UNL     1      -1.272  -0.766   0.011  0.00  0.00    +0.202 A 
ATOM      2  N   UNL     1      -1.384  -2.106   0.010  0.00  0.00    -0.190 NA
ATOM      3  C   UNL     1      -2.641  -2.449   0.019  0.00  0.00    +0.245 A 
ATOM      4  O   UNL     1      -3.384  -1.335   0.026  0.00  0.00    -0.336 OA
ATOM      5  N   UNL     1      -2.474  -0.245   0.026  0.00  0.00    -0.056 NA
ENDROOT
BRANCH   1  11
ATOM      6  C   UNL     1      -0.017   1.389   0.010  0.00  0.00    +0.013 A 
ATOM      7  C   UNL     1       1.170   2.093   0.002  0.00  0.00    +0.016 A 
ATOM      8  C   UNL     1       2.378   1.417  -0.013  0.00  0.00    +0.018 A 
ATOM      9  C   UNL     1       2.402   0.033  -0.021  0.00  0.00    +0.016 A 
ATOM     10  C   UNL     1       1.221  -0.680  -0.014  0.00  0.00    +0.013 A 
ATOM     11  C   UNL     1       0.002  -0.004   0.002  0.00  0.00    +0.023 A 
ATOM     12 BR   UNL     1       4.001   2.388  -0.024  0.00  0.00    -0.050 Br
ENDBRANCH   1  11
BRANCH   3  13
ATOM     13  C   UNL     1      -3.169  -3.860   0.021  0.00  0.00    +0.200 C 
BRANCH  13  14
ATOM     14  N   UNL     1      -3.330  -4.319   1.402  0.00  0.00    -0.335 N 
ATOM     15  H   UNL     1      -3.103  -3.730   2.139  0.00  0.00    +0.147 HD
BRANCH  14  16
ATOM     16  C   UNL     1      -3.810  -5.608   1.660  0.00  0.00    +0.028 A 
ATOM     17  C   UNL     1      -4.129  -6.454   0.606  0.00  0.00    +0.026 A 
ATOM     18  C   UNL     1      -4.603  -7.726   0.861  0.00  0.00    +0.047 A 
ATOM     19  C   UNL     1      -4.760  -8.159   2.169  0.00  0.00    +0.117 A 
ATOM     20  C   UNL     1      -4.442  -7.314   3.223  0.00  0.00    +0.047 A 
ATOM     21  C   UNL     1      -3.963  -6.044   2.969  0.00  0.00    +0.026 A 
BRANCH  19  22
ATOM     22  O   UNL     1      -5.227  -9.411   2.419  0.00  0.00    -0.507 OA
ATOM     23  H   UNL     1      -4.534 -10.082   2.489  0.00  0.00    +0.292 HD
ENDBRANCH  19  22
ENDBRANCH  14  16
ENDBRANCH  13  14
ENDBRANCH   3  13
TORSDOF 5
