REMARK  Name = ZINC23232091
REMARK  9 active torsions:
REMARK  status: ('A' for Active; 'I' for Inactive)
REMARK    1  A    between atoms: C_1  and  C_2
REMARK    2  A    between atoms: C_5  and  C_7
REMARK    3  A    between atoms: C_8  and  C_19
REMARK    4  A    between atoms: N_10  and  C_12
REMARK    5  A    between atoms: C_19  and  N_20
REMARK    6  A    between atoms: N_20  and  C_21
REMARK    7  A    between atoms: C_21  and  C_22
REMARK    8  A    between atoms: C_26  and  O_32
REMARK    9  A    between atoms: O_32  and  C_33
REMARK                            x       y       z     vdW  Elec       q    Type
REMARK                         _______ _______ _______ _____ _____    ______ ____
ROOT
ATOM      1  C   UNL     1       3.863  -0.543  -0.035  0.00  0.00    +0.129 A 
ATOM      2  C   UNL     1       4.553   0.688  -0.036  0.00  0.00    -0.016 A 
ATOM      3  C   UNL     1       3.636   1.678  -0.023  0.00  0.00    +0.117 A 
ATOM      4  N   UNL     1       2.403   1.105  -0.014  0.00  0.00    -0.239 N 
ATOM      5  N   UNL     1       2.570  -0.285  -0.016  0.00  0.00    -0.163 NA
ENDROOT
BRANCH   4   6
ATOM      6  C   UNL     1       1.179   1.787   0.000  0.00  0.00    +0.068 A 
ATOM      7  C   UNL     1       1.157   3.176   0.008  0.00  0.00    +0.028 A 
ATOM      8  C   UNL     1      -0.051   3.846   0.022  0.00  0.00    +0.005 A 
ATOM      9  C   UNL     1      -1.238   3.137   0.030  0.00  0.00    +0.038 A 
ATOM     10  C   UNL     1      -1.220   1.752   0.017  0.00  0.00    +0.125 A 
ATOM     11  C   UNL     1      -0.013   1.076   0.008  0.00  0.00    +0.066 A 
ATOM     12  F   UNL     1      -2.381   1.062   0.019  0.00  0.00    -0.205 F 
ENDBRANCH   4   6
BRANCH   1  17
ATOM     13  C   UNL     1       7.053  -4.291  -1.021  0.00  0.00    +0.086 C 
ATOM     14  C   UNL     1       5.873  -3.529  -0.475  0.00  0.00    +0.103 A 
ATOM     15  C   UNL     1       4.900  -4.040   0.304  0.00  0.00    +0.045 A 
ATOM     16  C   UNL     1       4.002  -2.990   0.584  0.00  0.00    +0.052 A 
ATOM     17  C   UNL     1       4.481  -1.885  -0.047  0.00  0.00    +0.155 A 
ATOM     18  O   UNL     1       5.614  -2.228  -0.690  0.00  0.00    -0.458 OA
ENDBRANCH   1  17
BRANCH   2  19
ATOM     19  C   UNL     1       6.050   0.865  -0.048  0.00  0.00    -0.042 C 
BRANCH  19  20
ATOM     20  N   UNL     1       6.552   0.690  -1.417  0.00  0.00    +0.385 N 
ATOM     21  H   UNL     1       6.300  -0.319  -1.774  0.00  0.00    -0.085 HD
ATOM     22  H   UNL     1       6.089   1.439  -2.076  0.00  0.00    -0.085 HD
BRANCH  20  23
ATOM     23  C   UNL     1       8.011   0.857  -1.468  0.00  0.00    -0.028 C 
BRANCH  23  24
ATOM     24  C   UNL     1       8.489   0.671  -2.885  0.00  0.00    -0.000 A 
ATOM     25  C   UNL     1       8.694   1.663  -3.765  0.00  0.00    +0.029 A 
ATOM     26  C   UNL     1       9.153   1.043  -5.011  0.00  0.00    +0.003 A 
ATOM     27  C   UNL     1       9.521   1.541  -6.263  0.00  0.00    +0.055 A 
ATOM     28  C   UNL     1       9.918   0.666  -7.255  0.00  0.00    +0.121 A 
ATOM     29  C   UNL     1       9.951  -0.705  -7.010  0.00  0.00    +0.047 A 
ATOM     30  C   UNL     1       9.590  -1.206  -5.780  0.00  0.00    +0.030 A 
ATOM     31  C   UNL     1       9.187  -0.341  -4.767  0.00  0.00    +0.047 A 
ATOM     32  N   UNL     1       8.783  -0.534  -3.463  0.00  0.00    -0.360 N 
ATOM     33  H   UNL     1       8.678  -1.462  -2.882  0.00  0.00    +0.166 HD
BRANCH  28  34
ATOM     34  O   UNL     1      10.277   1.145  -8.476  0.00  0.00    -0.495 OA
ATOM     35  C   UNL     1      10.678   0.185  -9.457  0.00  0.00    +0.277 C 
ENDBRANCH  28  34
ENDBRANCH  23  24
ENDBRANCH  20  23
ENDBRANCH  19  20
ENDBRANCH   2  19
TORSDOF 7
