REMARK  Name = ZINC14964469
REMARK  10 active torsions:
REMARK  status: ('A' for Active; 'I' for Inactive)
REMARK    1  A    between atoms: C_1  and  O_2
REMARK    2  A    between atoms: O_2  and  C_3
REMARK    3  A    between atoms: C_8  and  C_9
REMARK    4  A    between atoms: C_8  and  N_63
REMARK    5  A    between atoms: C_13  and  O_15
REMARK    6  A    between atoms: O_15  and  C_16
REMARK    7  A    between atoms: C_16  and  C_17
REMARK    8  A    between atoms: C_17  and  C_19
REMARK    9  A    between atoms: C_17  and  O_29
REMARK   10  A    between atoms: C_19  and  N_65
REMARK                            x       y       z     vdW  Elec       q    Type
REMARK                         _______ _______ _______ _____ _____    ______ ____
ROOT
ATOM      1  O   UNL     1      -0.069   5.201   0.029  0.00  0.00    -0.489 OA
ENDROOT
BRANCH   1   6
ATOM      2  C   UNL     1      -1.220   1.750   0.017  0.00  0.00    -0.060 A 
ATOM      3  C   UNL     1      -0.013   1.076   0.008  0.00  0.00    +0.002 A 
ATOM      4  C   UNL     1       1.176   1.782   0.000  0.00  0.00    +0.004 A 
ATOM      5  C   UNL     1       1.160   3.164   0.007  0.00  0.00    +0.045 A 
ATOM      6  C   UNL     1      -0.050   3.842   0.023  0.00  0.00    +0.121 A 
ATOM      7  C   UNL     1      -1.242   3.131   0.031  0.00  0.00    +0.047 A 
BRANCH   2   8
ATOM      8  C   UNL     1      -2.514   0.977   0.019  0.00  0.00    -0.043 C 
BRANCH   8  14
ATOM      9  C   UNL     1      -4.521   1.018   3.794  0.00  0.00    +0.114 C 
ATOM     10  C   UNL     1      -4.636  -0.214   2.892  0.00  0.00    +0.013 C 
ATOM     11  C   UNL     1      -4.293   0.179   1.453  0.00  0.00    -0.076 C 
ATOM     12  C   UNL     1      -2.805   1.929   2.225  0.00  0.00    -0.076 C 
ATOM     13  C   UNL     1      -3.104   1.588   3.687  0.00  0.00    +0.013 C 
ATOM     14  N   UNL     1      -2.909   0.697   1.415  0.00  0.00    +0.382 N 
ATOM     15  H   UNL     1      -2.277  -0.012   1.804  0.00  0.00    -0.081 HD
BRANCH   9  17
ATOM     16  C   UNL     1      -5.362   1.688   5.936  0.00  0.00    +0.194 C 
ATOM     17  O   UNL     1      -4.785   0.645   5.148  0.00  0.00    -0.380 OA
ENDBRANCH   9  17
ENDBRANCH   8  14
ENDBRANCH   2   8
ENDBRANCH   1   6
BRANCH   1  18
ATOM     18  C   UNL     1       1.196   5.867   0.020  0.00  0.00    +0.258 C 
BRANCH  18  19
ATOM     19  C   UNL     1       0.975   7.381   0.029  0.00  0.00    +0.135 C 
BRANCH  19  20
ATOM     20  O   UNL     1       0.330   7.776  -1.184  0.00  0.00    -0.390 OA
ATOM     21  H   UNL     1       0.833   7.566  -1.982  0.00  0.00    +0.210 HD
ENDBRANCH  19  20
BRANCH  19  22
ATOM     22  C   UNL     1       2.324   8.092   0.145  0.00  0.00    -0.043 C 
BRANCH  22  32
ATOM     23  C   UNL     1       3.375  10.276   0.172  0.00  0.00    -0.074 C 
ATOM     24  C   UNL     1       3.061  11.755  -0.056  0.00  0.00    +0.017 C 
ATOM     25  C   UNL     1       2.063  12.232   0.967  0.00  0.00    -0.048 A 
ATOM     26  C   UNL     1       1.914  13.598   1.159  0.00  0.00    +0.004 A 
ATOM     27  C   UNL     1       1.008  14.078   2.083  0.00  0.00    +0.000 A 
ATOM     28  C   UNL     1       0.245  13.193   2.821  0.00  0.00    +0.000 A 
ATOM     29  C   UNL     1       0.393  11.834   2.633  0.00  0.00    +0.002 A 
ATOM     30  C   UNL     1       1.304  11.349   1.705  0.00  0.00    -0.061 A 
ATOM     31  C   UNL     1       1.433   9.858   1.538  0.00  0.00    -0.043 C 
ATOM     32  N   UNL     1       2.092   9.550   0.257  0.00  0.00    +0.384 N 
ATOM     33  H   UNL     1       1.484   9.852  -0.513  0.00  0.00    -0.081 HD
ENDBRANCH  22  32
ENDBRANCH  19  22
ENDBRANCH  18  19
ENDBRANCH   1  18
TORSDOF 9
