REMARK  Name = ZINC09529591
REMARK  9 active torsions:
REMARK  status: ('A' for Active; 'I' for Inactive)
REMARK    1  A    between atoms: C_1  and  C_2
REMARK    2  A    between atoms: C_2  and  O_3
REMARK    3  A    between atoms: O_3  and  C_4
REMARK    4  A    between atoms: C_4  and  C_6
REMARK    5  A    between atoms: C_7  and  C_30
REMARK    6  A    between atoms: C_10  and  S_15
REMARK    7  A    between atoms: S_15  and  N_18
REMARK    8  A    between atoms: N_18  and  C_19
REMARK    9  A    between atoms: N_28  and  C_29
REMARK                            x       y       z     vdW  Elec       q    Type
REMARK                         _______ _______ _______ _____ _____    ______ ____
ROOT
ATOM      1  S   UNL     1       2.464   2.703   5.086  0.00  0.00    +0.072 S 
ATOM      2  O   UNL     1       2.592   2.531   6.490  0.00  0.00    -0.150 OA
ATOM      3  O   UNL     1       2.298   1.607   4.196  0.00  0.00    -0.150 OA
ENDROOT
BRANCH   1   8
ATOM      4  C   UNL     1      -2.544   5.688   2.804  0.00  0.00    +0.215 A 
ATOM      5  C   UNL     1      -1.720   4.682   2.410  0.00  0.00    +0.010 A 
ATOM      6  C   UNL     1      -0.743   4.516   3.485  0.00  0.00    +0.026 A 
ATOM      7  C   UNL     1       0.351   3.669   3.684  0.00  0.00    +0.040 A 
ATOM      8  C   UNL     1       1.085   3.770   4.832  0.00  0.00    +0.109 A 
ATOM      9  C   UNL     1       0.752   4.708   5.800  0.00  0.00    +0.032 A 
ATOM     10  C   UNL     1      -0.323   5.552   5.623  0.00  0.00    +0.049 A 
ATOM     11  C   UNL     1      -1.085   5.468   4.463  0.00  0.00    +0.136 A 
ATOM     12  O   UNL     1      -2.164   6.140   4.018  0.00  0.00    -0.448 OA
ATOM     13  C   UNL     1      -1.795   3.900   1.125  0.00  0.00    +0.048 C 
BRANCH   4  14
ATOM     14  C   UNL     1      -3.679   6.204   2.028  0.00  0.00    +0.375 C 
ATOM     15  O   UNL     1      -3.941   5.723   0.942  0.00  0.00    -0.241 OA
BRANCH  14  16
ATOM     16  O   UNL     1      -4.431   7.210   2.519  0.00  0.00    -0.459 OA
BRANCH  16  18
ATOM     17  C   UNL     1      -6.267   8.805   2.415  0.00  0.00    +0.048 C 
ATOM     18  C   UNL     1      -5.536   7.668   1.697  0.00  0.00    +0.229 C 
ENDBRANCH  16  18
ENDBRANCH  14  16
ENDBRANCH   4  14
ENDBRANCH   1   8
BRANCH   1  19
ATOM     19  N   UNL     1       3.814   3.520   4.584  0.00  0.00    -0.216 N 
ATOM     20  H   UNL     1       4.511   3.743   5.221  0.00  0.00    +0.174 HD
BRANCH  19  21
ATOM     21  C   UNL     1       3.950   3.888   3.241  0.00  0.00    +0.049 A 
ATOM     22  C   UNL     1       4.282   2.941   2.279  0.00  0.00    +0.026 A 
ATOM     23  C   UNL     1       4.413   3.286   0.956  0.00  0.00    +0.029 A 
ATOM     24  C   UNL     1       4.227   4.613   0.533  0.00  0.00    +0.059 A 
ATOM     25  C   UNL     1       3.899   5.548   1.525  0.00  0.00    +0.043 A 
ATOM     26  C   UNL     1       3.761   5.208   2.849  0.00  0.00    +0.041 A 
ATOM     27  S   UNL     1       3.752   7.068   0.617  0.00  0.00    -0.027 S 
ATOM     28  C   UNL     1       4.122   6.421  -1.005  0.00  0.00    +0.291 A 
ATOM     29  O   UNL     1       4.173   7.012  -2.068  0.00  0.00    -0.259 OA
ATOM     30  N   UNL     1       4.330   5.113  -0.757  0.00  0.00    -0.305 N 
ATOM     31  C   UNL     1       4.669   4.210  -1.860  0.00  0.00    +0.153 C 
ENDBRANCH  19  21
ENDBRANCH   1  19
TORSDOF 6
