REMARK  Name = ZINC06476217
REMARK  5 active torsions:
REMARK  status: ('A' for Active; 'I' for Inactive)
REMARK    1  A    between atoms: C_10  and  C_12
REMARK    2  A    between atoms: C_12  and  S_13
REMARK    3  A    between atoms: S_13  and  C_14
REMARK    4  A    between atoms: C_17  and  C_20
REMARK    5  A    between atoms: N_18  and  N_19
REMARK                            x       y       z     vdW  Elec       q    Type
REMARK                         _______ _______ _______ _____ _____    ______ ____
ROOT
ATOM      1  C   UNL     1       0.039   0.851  -2.729  0.00  0.00    +0.209 A 
ATOM      2  N   UNL     1       1.124   0.128  -2.563  0.00  0.00    -0.121 NA
ATOM      3  N   UNL     1       1.722  -0.036  -3.689  0.00  0.00    -0.127 NA
ATOM      4  C   UNL     1       1.060   0.580  -4.641  0.00  0.00    +0.183 A 
ATOM      5  N   UNL     1      -0.038   1.167  -4.056  0.00  0.00    -0.224 N 
ENDROOT
BRANCH   4   6
ATOM      6  C   UNL     1       1.426   0.633  -6.072  0.00  0.00    +0.039 A 
ATOM      7  C   UNL     1       1.405   1.849  -6.757  0.00  0.00    +0.013 A 
ATOM      8  C   UNL     1       1.748   1.892  -8.092  0.00  0.00    +0.001 A 
ATOM      9  C   UNL     1       2.113   0.733  -8.754  0.00  0.00    +0.001 A 
ATOM     10  C   UNL     1       2.136  -0.476  -8.083  0.00  0.00    +0.021 A 
ATOM     11  C   UNL     1       1.800  -0.533  -6.745  0.00  0.00    +0.052 A 
ATOM     12 CL   UNL     1       1.836  -2.050  -5.902  0.00  0.00    -0.083 Cl
ENDBRANCH   4   6
BRANCH   5  13
ATOM     13  N   UNL     1      -1.003   1.911  -4.672  0.00  0.00    -0.295 N 
ATOM     14  H   UNL     1      -0.718   2.876  -4.754  0.00  0.00    +0.163 HD
ATOM     15  H   UNL     1      -1.236   1.525  -5.574  0.00  0.00    +0.163 HD
ENDBRANCH   5  13
BRANCH   1  16
ATOM     16  S   UNL     1      -1.100   1.330  -1.473  0.00  0.00    -0.075 S 
BRANCH  16  17
ATOM     17  C   UNL     1      -0.329   0.546  -0.035  0.00  0.00    +0.173 C 
BRANCH  17  27
ATOM     18  C   UNL     1       2.517  -1.983   3.459  0.00  0.00    +0.000 A 
ATOM     19  C   UNL     1       2.398  -1.638   2.125  0.00  0.00    +0.002 A 
ATOM     20  C   UNL     1       1.335  -0.870   1.700  0.00  0.00    +0.024 A 
ATOM     21  C   UNL     1       0.371  -0.435   2.611  0.00  0.00    +0.040 A 
ATOM     22  C   UNL     1       0.500  -0.786   3.945  0.00  0.00    -0.024 A 
ATOM     23  C   UNL     1       1.567  -1.556   4.367  0.00  0.00    +0.005 A 
ATOM     24  C   UNL     1      -0.661  -0.195   4.713  0.00  0.00    +0.056 C 
ATOM     25  C   UNL     1      -1.485   0.554   3.652  0.00  0.00    +0.118 C 
ATOM     26  N   UNL     1      -0.770   0.342   2.391  0.00  0.00    -0.270 N 
ATOM     27  C   UNL     1      -1.154   0.829   1.194  0.00  0.00    +0.230 C 
ATOM     28  O   UNL     1      -2.164   1.495   1.106  0.00  0.00    -0.274 OA
ENDBRANCH  17  27
ENDBRANCH  16  17
ENDBRANCH   1  16
TORSDOF 5
