REMARK  Name = ZINC29567103
REMARK  9 active torsions:
REMARK  status: ('A' for Active; 'I' for Inactive)
REMARK    1  A    between atoms: C_5  and  C_7
REMARK    2  A    between atoms: C_7  and  C_9
REMARK    3  A    between atoms: C_7  and  C_23
REMARK    4  A    between atoms: C_9  and  C_10
REMARK    5  A    between atoms: C_10  and  N_11
REMARK    6  A    between atoms: N_14  and  C_15
REMARK    7  A    between atoms: C_15  and  C_16
REMARK    8  A    between atoms: C_16  and  C_17
REMARK    9  A    between atoms: C_17  and  C_18
REMARK                            x       y       z     vdW  Elec       q    Type
REMARK                         _______ _______ _______ _____ _____    ______ ____
ROOT
ATOM      1  N   UNL     1       2.344  -2.323   3.603  0.00  0.00    -0.358 N 
ATOM      2  C   UNL     1       3.397  -2.028   4.436  0.00  0.00    +0.169 C 
ATOM      3  N   UNL     1       4.484  -1.498   3.950  0.00  0.00    -0.371 N 
ATOM      4  N   UNL     1       3.303  -2.292   5.782  0.00  0.00    -0.358 N 
ATOM      5  H   UNL     1       1.535  -2.718   3.964  0.00  0.00    +0.162 HD
ATOM      6  H   UNL     1       5.226  -1.290   4.538  0.00  0.00    +0.159 HD
ATOM      7  H   UNL     1       2.494  -2.687   6.144  0.00  0.00    +0.162 HD
ATOM      8  H   UNL     1       4.550  -1.312   3.001  0.00  0.00    +0.159 HD
ENDROOT
BRANCH   1   9
ATOM      9  C   UNL     1       2.444  -2.042   2.168  0.00  0.00    +0.116 C 
BRANCH   9  10
ATOM     10  C   UNL     1       1.146  -2.462   1.475  0.00  0.00    +0.035 C 
BRANCH  10  11
ATOM     11  C   UNL     1       1.250  -2.168  -0.023  0.00  0.00    +0.069 C 
BRANCH  11  12
ATOM     12  C   UNL     1       0.024  -2.692  -0.724  0.00  0.00    -0.037 A 
ATOM     13  C   UNL     1      -1.233  -2.300  -0.304  0.00  0.00    +0.006 A 
ATOM     14  C   UNL     1      -2.359  -2.781  -0.946  0.00  0.00    +0.022 A 
ATOM     15  C   UNL     1      -2.228  -3.654  -2.010  0.00  0.00    +0.059 A 
ATOM     16  C   UNL     1      -0.969  -4.047  -2.432  0.00  0.00    +0.060 A 
ATOM     17  C   UNL     1       0.157  -3.561  -1.791  0.00  0.00    +0.025 A 
ATOM     18 CL   UNL     1      -0.802  -5.143  -3.768  0.00  0.00    -0.082 Cl
ATOM     19 CL   UNL     1      -3.641  -4.259  -2.817  0.00  0.00    -0.082 Cl
ENDBRANCH  11  12
BRANCH  11  24
ATOM     20  C   UNL     1       0.749   1.546   0.379  0.00  0.00    +0.003 A 
ATOM     21  C   UNL     1       1.560   2.001  -0.650  0.00  0.00    +0.020 A 
ATOM     22  C   UNL     1       2.236   1.082  -1.430  0.00  0.00    +0.111 A 
ATOM     23  N   UNL     1       2.116  -0.212  -1.206  0.00  0.00    -0.259 NA
ATOM     24  C   UNL     1       1.354  -0.679  -0.237  0.00  0.00    +0.049 A 
ATOM     25  C   UNL     1       0.648   0.179   0.585  0.00  0.00    +0.024 A 
ENDBRANCH  11  24
ENDBRANCH  10  11
ENDBRANCH   9  10
ENDBRANCH   1   9
BRANCH   4  26
ATOM     26  C   UNL     1       4.425  -1.978   6.670  0.00  0.00    +0.116 C 
BRANCH  26  27
ATOM     27  C   UNL     1       4.064  -2.367   8.105  0.00  0.00    +0.027 C 
BRANCH  27  28
ATOM     28  C   UNL     1       5.236  -2.039   9.033  0.00  0.00    +0.056 C 
BRANCH  28  29
ATOM     29  C   UNL     1       4.880  -2.422  10.446  0.00  0.00    +0.033 A 
ATOM     30  N   UNL     1       5.187  -3.580  11.049  0.00  0.00    -0.350 N 
ATOM     31  C   UNL     1       4.722  -3.567  12.269  0.00  0.00    +0.171 A 
ATOM     32  N   UNL     1       4.098  -2.388  12.481  0.00  0.00    -0.352 N 
ATOM     33  C   UNL     1       4.204  -1.660  11.327  0.00  0.00    +0.105 A 
ATOM     34  H   UNL     1       3.660  -2.108  13.300  0.00  0.00    +0.166 HD
ATOM     35  H   UNL     1       5.677  -4.312  10.643  0.00  0.00    +0.166 HD
ENDBRANCH  28  29
ENDBRANCH  27  28
ENDBRANCH  26  27
ENDBRANCH   4  26
TORSDOF 9
