REMARK  Name = ZINC39597874
REMARK  5 active torsions:
REMARK  status: ('A' for Active; 'I' for Inactive)
REMARK    1  A    between atoms: C_7  and  C_11
REMARK    2  A    between atoms: C_15  and  C_24
REMARK    3  A    between atoms: N_26  and  C_27
REMARK    4  A    between atoms: C_27  and  C_28
REMARK    5  A    between atoms: C_28  and  C_29
REMARK                            x       y       z     vdW  Elec       q    Type
REMARK                         _______ _______ _______ _____ _____    ______ ____
ROOT
ATOM      1  C   UNL     1       1.202  -2.695   1.478  0.00  0.00    +0.224 C 
ATOM      2  O   UNL     1       1.066  -1.910   2.393  0.00  0.00    -0.275 OA
ATOM      3  N   UNL     1       1.202  -4.021   1.722  0.00  0.00    -0.300 N 
ATOM      4  C   UNL     1       1.466  -5.120   0.764  0.00  0.00    +0.121 C 
ATOM      5  C   UNL     1       2.298  -6.145   1.567  0.00  0.00    +0.100 C 
ATOM      6  C   UNL     1       1.945  -5.871   3.038  0.00  0.00    -0.004 C 
ATOM      7  C   UNL     1       0.943  -4.708   3.010  0.00  0.00    +0.115 C 
ATOM      8  C   UNL     1       3.194  -5.465   3.814  0.00  0.00    -0.010 C 
ATOM      9  C   UNL     1       2.828  -5.253   5.286  0.00  0.00    -0.082 C 
ATOM     10  N   UNL     1       2.268  -6.494   5.836  0.00  0.00    +0.379 N 
ATOM     11  C   UNL     1       1.016  -6.827   5.145  0.00  0.00    -0.082 C 
ATOM     12  C   UNL     1       1.305  -7.105   3.667  0.00  0.00    -0.010 C 
ATOM     13  H   UNL     1       2.930  -7.245   5.711  0.00  0.00    -0.086 HD
ATOM     14  H   UNL     1       2.084  -6.370   6.821  0.00  0.00    -0.086 HD
ENDROOT
BRANCH   1  21
ATOM     15  C   UNL     1      -1.497   0.317  -0.446  0.00  0.00    +0.000 A 
ATOM     16  C   UNL     1      -0.808   1.511  -0.341  0.00  0.00    +0.001 A 
ATOM     17  C   UNL     1       0.557   1.483  -0.128  0.00  0.00    +0.015 A 
ATOM     18  C   UNL     1       1.214   0.271  -0.021  0.00  0.00    +0.012 A 
ATOM     19  C   UNL     1       0.536  -0.943  -0.109  0.00  0.00    -0.021 A 
ATOM     20  C   UNL     1      -0.842  -0.888  -0.334  0.00  0.00    +0.005 A 
ATOM     21  C   UNL     1       1.371  -2.188   0.069  0.00  0.00    +0.116 C 
ATOM     22  C   UNL     1       2.869  -1.915  -0.189  0.00  0.00    +0.092 C 
ATOM     23  S   UNL     1       2.931  -0.123   0.227  0.00  0.00    -0.124 S 
ENDBRANCH   1  21
BRANCH   5  24
ATOM     24  C   UNL     1       3.770  -5.928   1.328  0.00  0.00    +0.218 C 
ATOM     25  O   UNL     1       4.197  -4.806   1.157  0.00  0.00    -0.275 OA
ATOM     26  N   UNL     1       4.611  -6.981   1.305  0.00  0.00    -0.315 N 
ATOM     27  H   UNL     1       4.269  -7.878   1.442  0.00  0.00    +0.149 HD
BRANCH  26  28
ATOM     28  C   UNL     1       6.042  -6.770   1.073  0.00  0.00    +0.109 C 
BRANCH  28  29
ATOM     29  C   UNL     1       6.767  -8.117   1.096  0.00  0.00    +0.056 C 
BRANCH  29  30
ATOM     30  C   UNL     1       8.239  -7.900   0.858  0.00  0.00    -0.021 A 
ATOM     31  C   UNL     1       9.245  -7.562   1.868  0.00  0.00    +0.003 A 
ATOM     32  C   UNL     1       9.201  -7.348   3.246  0.00  0.00    +0.010 A 
ATOM     33  C   UNL     1      10.349  -7.040   3.922  0.00  0.00    +0.001 A 
ATOM     34  C   UNL     1      11.558  -6.938   3.248  0.00  0.00    +0.002 A 
ATOM     35  C   UNL     1      11.623  -7.146   1.887  0.00  0.00    +0.026 A 
ATOM     36  C   UNL     1      10.468  -7.461   1.180  0.00  0.00    +0.047 A 
ATOM     37  N   UNL     1      10.210  -7.720  -0.148  0.00  0.00    -0.360 N 
ATOM     38  C   UNL     1       8.878  -7.985  -0.320  0.00  0.00    +0.087 A 
ATOM     39  H   UNL     1      10.874  -7.719  -0.855  0.00  0.00    +0.165 HD
ENDBRANCH  29  30
ENDBRANCH  28  29
ENDBRANCH  26  28
ENDBRANCH   5  24
TORSDOF 5
