REMARK  Name = ZINC36202680
REMARK  12 active torsions:
REMARK  status: ('A' for Active; 'I' for Inactive)
REMARK    1  A    between atoms: C_1  and  C_2
REMARK    2  A    between atoms: C_2  and  C_3
REMARK    3  A    between atoms: C_3  and  N_4
REMARK    4  A    between atoms: N_4  and  C_5
REMARK    5  A    between atoms: N_4  and  C_12
REMARK    6  A    between atoms: C_5  and  C_6
REMARK    7  A    between atoms: C_9  and  C_11
REMARK    8  A    between atoms: C_12  and  C_13
REMARK    9  A    between atoms: C_16  and  C_18
REMARK   10  A    between atoms: C_18  and  C_19
REMARK   11  A    between atoms: C_18  and  C_26
REMARK   12  A    between atoms: C_18  and  O_33
REMARK                            x       y       z     vdW  Elec       q    Type
REMARK                         _______ _______ _______ _____ _____    ______ ____
ROOT
ATOM      1  C   UNL     1       1.006  -0.950  -1.586  0.00  0.00    +0.089 A 
ATOM      2  C   UNL     1       1.077   0.101  -2.423  0.00  0.00    +0.043 A 
ATOM      3  C   UNL     1       0.091  -0.099  -3.416  0.00  0.00    +0.048 A 
ATOM      4  C   UNL     1      -0.525  -1.259  -3.126  0.00  0.00    +0.146 A 
ATOM      5  O   UNL     1       0.037  -1.773  -2.020  0.00  0.00    -0.463 OA
ENDROOT
BRANCH   1   6
ATOM      6  C   UNL     1       1.870  -1.170  -0.371  0.00  0.00    -0.003 C 
BRANCH   6   7
ATOM      7  N   UNL     1       1.294  -0.454   0.775  0.00  0.00    +0.389 N 
ATOM      8  H   UNL     1       1.164   0.517   0.534  0.00  0.00    -0.081 HD
BRANCH   7   9
ATOM      9  C   UNL     1       2.205  -0.555   1.923  0.00  0.00    -0.078 C 
BRANCH   9  11
ATOM     10  C   UNL     1       4.394   0.208   2.856  0.00  0.00    +0.002 C 
ATOM     11  C   UNL     1       3.504   0.191   1.612  0.00  0.00    -0.022 C 
ENDBRANCH   9  11
ENDBRANCH   7   9
BRANCH   7  12
ATOM     12  C   UNL     1      -0.002  -1.050   1.124  0.00  0.00    -0.003 C 
BRANCH  12  13
ATOM     13  C   UNL     1      -0.649  -0.241   2.219  0.00  0.00    +0.089 A 
ATOM     14  C   UNL     1      -1.479   0.802   2.040  0.00  0.00    +0.043 A 
ATOM     15  C   UNL     1      -1.846   1.259   3.327  0.00  0.00    +0.044 A 
ATOM     16  C   UNL     1      -1.217   0.468   4.215  0.00  0.00    +0.102 A 
ATOM     17  O   UNL     1      -0.498  -0.442   3.538  0.00  0.00    -0.467 OA
ATOM     18  C   UNL     1      -1.309   0.581   5.715  0.00  0.00    +0.086 C 
ENDBRANCH  12  13
ENDBRANCH   7  12
ENDBRANCH   6   7
ENDBRANCH   1   6
BRANCH   4  19
ATOM     19  C   UNL     1      -1.651  -1.880  -3.913  0.00  0.00    +0.174 C 
BRANCH  19  20
ATOM     20  C   UNL     1      -1.585  -3.380  -3.785  0.00  0.00    -0.002 A 
ATOM     21  C   UNL     1      -1.276  -4.155  -4.887  0.00  0.00    +0.007 A 
ATOM     22  C   UNL     1      -1.216  -5.531  -4.772  0.00  0.00    +0.003 A 
ATOM     23  C   UNL     1      -1.466  -6.134  -3.553  0.00  0.00    +0.038 A 
ATOM     24  C   UNL     1      -1.775  -5.359  -2.449  0.00  0.00    +0.124 A 
ATOM     25  C   UNL     1      -1.829  -3.980  -2.564  0.00  0.00    +0.045 A 
ATOM     26  F   UNL     1      -2.019  -5.948  -1.257  0.00  0.00    -0.205 F 
ENDBRANCH  19  20
BRANCH  19  27
ATOM     27  C   UNL     1      -2.970  -1.387  -3.376  0.00  0.00    -0.002 A 
ATOM     28  C   UNL     1      -3.153  -1.248  -2.012  0.00  0.00    +0.007 A 
ATOM     29  C   UNL     1      -4.362  -0.796  -1.518  0.00  0.00    +0.003 A 
ATOM     30  C   UNL     1      -5.390  -0.482  -2.388  0.00  0.00    +0.038 A 
ATOM     31  C   UNL     1      -5.208  -0.621  -3.753  0.00  0.00    +0.124 A 
ATOM     32  C   UNL     1      -3.994  -1.068  -4.247  0.00  0.00    +0.045 A 
ATOM     33  F   UNL     1      -6.212  -0.315  -4.603  0.00  0.00    -0.205 F 
ENDBRANCH  19  27
BRANCH  19  34
ATOM     34  O   UNL     1      -1.530  -1.513  -5.288  0.00  0.00    -0.372 OA
ATOM     35  H   UNL     1      -1.563  -0.560  -5.446  0.00  0.00    +0.212 HD
ENDBRANCH  19  34
ENDBRANCH   4  19
TORSDOF 10
