REMARK  Name = ZINC23459711
REMARK  11 active torsions:
REMARK  status: ('A' for Active; 'I' for Inactive)
REMARK    1  A    between atoms: C_1  and  C_2
REMARK    2  A    between atoms: C_2  and  O_3
REMARK    3  A    between atoms: O_3  and  C_4
REMARK    4  A    between atoms: C_4  and  C_6
REMARK    5  A    between atoms: C_8  and  C_28
REMARK    6  A    between atoms: N_9  and  C_11
REMARK    7  A    between atoms: C_14  and  C_17
REMARK    8  A    between atoms: N_19  and  C_20
REMARK    9  A    between atoms: C_20  and  C_21
REMARK   10  A    between atoms: C_21  and  C_22
REMARK   11  A    between atoms: C_31  and  C_34
REMARK                            x       y       z     vdW  Elec       q    Type
REMARK                         _______ _______ _______ _____ _____    ______ ____
ROOT
ATOM      1  C   UNL     1      -1.864   9.772  -0.381  0.00  0.00    +0.170 A 
ATOM      2  C   UNL     1      -0.791   9.849   0.535  0.00  0.00    +0.065 A 
ATOM      3  C   UNL     1      -0.424   8.555   0.776  0.00  0.00    +0.075 A 
ATOM      4  N   UNL     1      -1.247   7.764   0.024  0.00  0.00    -0.231 N 
ATOM      5  N   UNL     1      -2.074   8.494  -0.634  0.00  0.00    -0.159 NA
ENDROOT
BRANCH   4   6
ATOM      6  C   UNL     1      -1.200   6.369  -0.018  0.00  0.00    +0.066 A 
ATOM      7  C   UNL     1      -2.377   5.632   0.064  0.00  0.00    +0.028 A 
ATOM      8  C   UNL     1      -2.334   4.256   0.024  0.00  0.00    +0.015 A 
ATOM      9  C   UNL     1      -1.107   3.600  -0.099  0.00  0.00    +0.037 A 
ATOM     10  C   UNL     1       0.074   4.343  -0.175  0.00  0.00    +0.015 A 
ATOM     11  C   UNL     1       0.024   5.719  -0.140  0.00  0.00    +0.028 A 
BRANCH   9  12
ATOM     12  C   UNL     1      -1.057   2.125  -0.142  0.00  0.00    +0.244 C 
ATOM     13  O   UNL     1      -2.085   1.480  -0.071  0.00  0.00    -0.270 OA
ATOM     14  N   UNL     1       0.128   1.494  -0.261  0.00  0.00    -0.311 N 
ATOM     15  H   UNL     1       1.058   2.078  -0.326  0.00  0.00    +0.149 HD
BRANCH  14  16
ATOM     16  C   UNL     1       0.178   0.030  -0.304  0.00  0.00    +0.109 C 
BRANCH  16  17
ATOM     17  C   UNL     1       1.631  -0.427  -0.448  0.00  0.00    +0.049 C 
BRANCH  17  18
ATOM     18  C   UNL     1       1.681  -1.932  -0.492  0.00  0.00    -0.072 C 
ATOM     19  C   UNL     1       1.698  -2.505  -1.653  0.00  0.00    -0.028 C 
ATOM     20  C   UNL     1       1.738  -3.992  -1.856  0.00  0.00    +0.027 C 
ATOM     21  C   UNL     1       2.179  -4.688  -0.567  0.00  0.00    +0.004 C 
ATOM     22  C   UNL     1       1.337  -4.141   0.592  0.00  0.00    +0.005 C 
ATOM     23  C   UNL     1       1.716  -2.674   0.812  0.00  0.00    +0.030 C 
ENDBRANCH  17  18
ENDBRANCH  16  17
ENDBRANCH  14  16
ENDBRANCH   9  12
ENDBRANCH   4   6
BRANCH   3  24
ATOM     24  C   UNL     1       0.658   8.098   1.676  0.00  0.00    +0.000 A 
ATOM     25  C   UNL     1       0.589   6.838   2.271  0.00  0.00    +0.010 A 
ATOM     26  C   UNL     1       1.603   6.416   3.105  0.00  0.00    +0.004 A 
ATOM     27  C   UNL     1       2.683   7.243   3.361  0.00  0.00    -0.044 A 
ATOM     28  C   UNL     1       2.755   8.496   2.777  0.00  0.00    +0.004 A 
ATOM     29  C   UNL     1       1.749   8.928   1.937  0.00  0.00    +0.010 A 
BRANCH  27  30
ATOM     30  C   UNL     1       3.785   6.778   4.277  0.00  0.00    +0.019 C 
ATOM     31  C   UNL     1       4.417   5.506   3.709  0.00  0.00    +0.008 C 
ATOM     32  C   UNL     1       5.536   5.033   4.640  0.00  0.00    +0.001 C 
ATOM     33  C   UNL     1       4.957   4.740   6.025  0.00  0.00    +0.000 C 
ATOM     34  C   UNL     1       4.324   6.012   6.593  0.00  0.00    +0.001 C 
ATOM     35  C   UNL     1       3.206   6.485   5.663  0.00  0.00    +0.008 C 
ENDBRANCH  27  30
ENDBRANCH   3  24
BRANCH   1  36
ATOM     36  C   UNL     1      -2.613  10.910  -0.948  0.00  0.00    +0.360 C 
ATOM     37  O   UNL     1      -2.321  12.047  -0.634  0.00  0.00    -0.243 OA
BRANCH  36  38
ATOM     38  O   UNL     1      -3.620  10.689  -1.816  0.00  0.00    -0.460 OA
BRANCH  38  40
ATOM     39  C   UNL     1      -5.415  11.409  -3.296  0.00  0.00    +0.048 C 
ATOM     40  C   UNL     1      -4.312  11.855  -2.334  0.00  0.00    +0.229 C 
ENDBRANCH  38  40
ENDBRANCH  36  38
ENDBRANCH   1  36
TORSDOF 10
