REMARK  Name = ZINC22618968
REMARK  7 active torsions:
REMARK  status: ('A' for Active; 'I' for Inactive)
REMARK    1  A    between atoms: C_1  and  C_2
REMARK    2  A    between atoms: C_2  and  C_4
REMARK    3  A    between atoms: C_2  and  N_10
REMARK    4  A    between atoms: C_11  and  C_13
REMARK    5  A    between atoms: C_18  and  N_19
REMARK    6  A    between atoms: N_19  and  S_20
REMARK    7  A    between atoms: S_20  and  C_23
REMARK                            x       y       z     vdW  Elec       q    Type
REMARK                         _______ _______ _______ _____ _____    ______ ____
ROOT
ATOM      1  C   UNL     1       3.242   2.883  -3.764  0.00  0.00    +0.059 A 
ATOM      2  C   UNL     1       2.369   3.600  -4.586  0.00  0.00    +0.015 A 
ATOM      3  C   UNL     1       1.711   4.705  -4.092  0.00  0.00    +0.001 A 
ATOM      4  C   UNL     1       1.906   5.107  -2.780  0.00  0.00    +0.002 A 
ATOM      5  C   UNL     1       2.762   4.407  -1.954  0.00  0.00    +0.025 A 
ATOM      6  C   UNL     1       3.434   3.290  -2.435  0.00  0.00    +0.060 A 
ENDROOT
BRANCH   1   8
ATOM      7  N   UNL     1       3.768   1.317  -5.566  0.00  0.00    -0.305 N 
ATOM      8  C   UNL     1       3.955   1.704  -4.289  0.00  0.00    +0.246 C 
ATOM      9  O   UNL     1       4.711   1.080  -3.569  0.00  0.00    -0.270 OA
ATOM     10  H   UNL     1       3.083   1.881  -6.217  0.00  0.00    +0.150 HD
BRANCH   7  12
ATOM     11  C   UNL     1       3.688  -1.121  -5.743  0.00  0.00    +0.033 C 
ATOM     12  C   UNL     1       4.475   0.144  -6.088  0.00  0.00    +0.100 C 
BRANCH  12  13
ATOM     13  C   UNL     1       4.607   0.262  -7.584  0.00  0.00    -0.027 A 
ATOM     14  C   UNL     1       3.553   0.748  -8.335  0.00  0.00    +0.005 A 
ATOM     15  C   UNL     1       3.676   0.860  -9.707  0.00  0.00    +0.000 A 
ATOM     16  C   UNL     1       4.849   0.477 -10.330  0.00  0.00    +0.000 A 
ATOM     17  C   UNL     1       5.901  -0.014  -9.580  0.00  0.00    +0.000 A 
ATOM     18  C   UNL     1       5.780  -0.121  -8.207  0.00  0.00    +0.005 A 
ENDBRANCH  12  13
ENDBRANCH   7  12
ENDBRANCH   1   8
BRANCH   6  19
ATOM     19  N   UNL     1       4.295   2.583  -1.606  0.00  0.00    -0.216 N 
ATOM     20  H   UNL     1       5.213   2.137  -2.018  0.00  0.00    +0.174 HD
BRANCH  19  21
ATOM     21  S   UNL     1       3.942   2.413   0.003  0.00  0.00    +0.072 S 
ATOM     22  O   UNL     1       3.720   3.721   0.511  0.00  0.00    -0.150 OA
ATOM     23  O   UNL     1       4.925   1.542   0.545  0.00  0.00    -0.150 OA
BRANCH  21  24
ATOM     24  C   UNL     1       2.402   1.563   0.111  0.00  0.00    +0.111 A 
ATOM     25  C   UNL     1       1.219   2.281   0.136  0.00  0.00    +0.031 A 
ATOM     26  C   UNL     1       0.007   1.623   0.221  0.00  0.00    +0.030 A 
ATOM     27  C   UNL     1      -0.024   0.238   0.280  0.00  0.00    +0.067 A 
ATOM     28  C   UNL     1       1.170  -0.486   0.254  0.00  0.00    +0.069 A 
ATOM     29  C   UNL     1       2.381   0.183   0.169  0.00  0.00    +0.056 A 
ATOM     30  N   UNL     1       0.825  -1.833   0.327  0.00  0.00    -0.306 N 
ATOM     31  H   UNL     1       1.610  -2.603   0.322  0.00  0.00    +0.170 HD
ATOM     32  C   UNL     1      -0.517  -1.925   0.394  0.00  0.00    +0.325 A 
ATOM     33  O   UNL     1      -1.146  -2.964   0.467  0.00  0.00    -0.247 OA
ATOM     34  N   UNL     1      -1.057  -0.692   0.368  0.00  0.00    -0.306 N 
ATOM     35  H   UNL     1      -2.102  -0.351   0.403  0.00  0.00    +0.170 HD
ENDBRANCH  21  24
ENDBRANCH  19  21
ENDBRANCH   6  19
TORSDOF 6
