REMARK  Name = ZINC39328055
REMARK  10 active torsions:
REMARK  status: ('A' for Active; 'I' for Inactive)
REMARK    1  A    between atoms: C_1  and  C_2
REMARK    2  A    between atoms: C_2  and  C_3
REMARK    3  A    between atoms: C_2  and  C_4
REMARK    4  A    between atoms: C_7  and  C_10
REMARK    5  A    between atoms: C_11  and  C_27
REMARK    6  A    between atoms: C_12  and  N_26
REMARK    7  A    between atoms: C_14  and  S_18
REMARK    8  A    between atoms: C_15  and  C_16
REMARK    9  A    between atoms: S_18  and  C_19
REMARK   10  A    between atoms: C_19  and  C_20
REMARK                            x       y       z     vdW  Elec       q    Type
REMARK                         _______ _______ _______ _____ _____    ______ ____
ROOT
ATOM      1  C   UNL     1       2.697  -1.859  -4.734  0.00  0.00    +0.023 A 
ATOM      2  C   UNL     1       2.065  -2.750  -5.625  0.00  0.00    +0.100 A 
ATOM      3  C   UNL     1       2.763  -3.176  -6.770  0.00  0.00    +0.136 A 
ATOM      4  N   UNL     1       3.993  -2.754  -7.015  0.00  0.00    -0.224 NA
ATOM      5  C   UNL     1       4.625  -1.917  -6.205  0.00  0.00    +0.117 A 
ATOM      6  C   UNL     1       4.004  -1.433  -5.038  0.00  0.00    +0.093 A 
ENDROOT
BRANCH   1  10
ATOM      7  C   UNL     1       0.707  -0.490  -1.238  0.00  0.00    -0.045 A 
ATOM      8  C   UNL     1       0.219  -0.149  -2.487  0.00  0.00    +0.004 A 
ATOM      9  C   UNL     1       0.860  -0.590  -3.626  0.00  0.00    +0.009 A 
ATOM     10  C   UNL     1       2.004  -1.382  -3.516  0.00  0.00    -0.015 A 
ATOM     11  C   UNL     1       2.492  -1.723  -2.254  0.00  0.00    +0.009 A 
ATOM     12  C   UNL     1       1.844  -1.271  -1.123  0.00  0.00    +0.004 A 
BRANCH   7  14
ATOM     13  C   UNL     1      -0.019   1.526   0.010  0.00  0.00    +0.012 C 
ATOM     14  C   UNL     1       0.002  -0.004   0.002  0.00  0.00    +0.013 C 
ATOM     15  C   UNL     1      -1.433  -0.534   0.013  0.00  0.00    +0.012 C 
ENDBRANCH   7  14
ENDBRANCH   1  10
BRANCH   3  16
ATOM     16  N   UNL     1       2.155  -4.048  -7.652  0.00  0.00    -0.342 N 
ATOM     17  H   UNL     1       1.254  -4.362  -7.479  0.00  0.00    +0.144 HD
ATOM     18  H   UNL     1       2.630  -4.347  -8.443  0.00  0.00    +0.144 HD
ENDBRANCH   3  16
BRANCH   6  19
ATOM     19  C   UNL     1       4.693  -0.524  -4.171  0.00  0.00    +0.102 C 
ATOM     20  N   UNL     1       5.239   0.196  -3.484  0.00  0.00    -0.191 NA
ENDBRANCH   6  19
BRANCH   2  21
ATOM     21  C   UNL     1       0.735  -3.213  -5.369  0.00  0.00    +0.103 C 
ATOM     22  N   UNL     1      -0.321  -3.581  -5.166  0.00  0.00    -0.191 NA
ENDBRANCH   2  21
BRANCH   5  23
ATOM     23  S   UNL     1       6.263  -1.400  -6.597  0.00  0.00    -0.100 S 
BRANCH  23  24
ATOM     24  C   UNL     1       6.633  -2.255  -8.153  0.00  0.00    +0.111 C 
BRANCH  24  25
ATOM     25  C   UNL     1       8.024  -1.895  -8.606  0.00  0.00    -0.034 A 
ATOM     26  C   UNL     1       8.242  -0.798  -9.426  0.00  0.00    +0.024 A 
ATOM     27  C   UNL     1       9.532  -0.499  -9.821  0.00  0.00    +0.111 A 
ATOM     28  N   UNL     1      10.548  -1.242  -9.427  0.00  0.00    -0.263 NA
ATOM     29  C   UNL     1      10.378  -2.291  -8.648  0.00  0.00    +0.111 A 
ATOM     30  C   UNL     1       9.118  -2.648  -8.207  0.00  0.00    +0.024 A 
ENDBRANCH  24  25
ENDBRANCH  23  24
ENDBRANCH   5  23
TORSDOF 8
