REMARK  Name = ZINC15731855
REMARK  10 active torsions:
REMARK  status: ('A' for Active; 'I' for Inactive)
REMARK    1  A    between atoms: C_1  and  C_2
REMARK    2  A    between atoms: C_2  and  C_3
REMARK    3  A    between atoms: C_2  and  C_4
REMARK    4  A    between atoms: C_4  and  C_5
REMARK    5  A    between atoms: C_11  and  C_15
REMARK    6  A    between atoms: C_15  and  S_16
REMARK    7  A    between atoms: S_16  and  C_17
REMARK    8  A    between atoms: C_20  and  C_23
REMARK    9  A    between atoms: C_28  and  O_29
REMARK   10  A    between atoms: O_29  and  C_30
REMARK                            x       y       z     vdW  Elec       q    Type
REMARK                         _______ _______ _______ _____ _____    ______ ____
ROOT
ATOM      1  C   UNL     1      -0.022   1.806   0.012  0.00  0.00    +0.133 C 
ENDROOT
BRANCH   1   8
ATOM      2  C   UNL     1       5.898   3.586   1.333  0.00  0.00    +0.103 A 
ATOM      3  N   UNL     1       5.295   3.703   0.189  0.00  0.00    -0.159 NA
ATOM      4  N   UNL     1       3.983   3.276   0.008  0.00  0.00    -0.171 N 
ATOM      5  C   UNL     1       3.243   3.342  -1.138  0.00  0.00    +0.275 A 
ATOM      6  O   UNL     1       3.728   3.819  -2.152  0.00  0.00    -0.266 OA
ATOM      7  C   UNL     1       1.932   2.865  -1.147  0.00  0.00    +0.096 A 
ATOM      8  C   UNL     1       1.391   2.327   0.001  0.00  0.00    +0.060 A 
ATOM      9  N   UNL     1       2.138   2.283   1.102  0.00  0.00    -0.225 NA
ATOM     10  C   UNL     1       3.369   2.728   1.101  0.00  0.00    +0.199 A 
ATOM     11  S   UNL     1       4.638   2.826   2.344  0.00  0.00    -0.033 S 
BRANCH   2  12
ATOM     12  C   UNL     1       7.301   3.988   1.710  0.00  0.00    +0.068 C 
BRANCH  12  14
ATOM     13  C   UNL     1       7.295   5.904   0.106  0.00  0.00    +0.007 C 
ATOM     14  C   UNL     1       7.999   4.602   0.495  0.00  0.00    -0.011 C 
ATOM     15  C   UNL     1       9.460   4.896   0.841  0.00  0.00    +0.007 C 
ENDBRANCH  12  14
ENDBRANCH   2  12
ENDBRANCH   1   8
BRANCH   1  16
ATOM     16  S   UNL     1       0.002  -0.004   0.002  0.00  0.00    -0.080 S 
BRANCH  16  17
ATOM     17  C   UNL     1      -1.729  -0.334   0.017  0.00  0.00    +0.190 A 
ATOM     18  N   UNL     1      -2.319  -1.566   0.010  0.00  0.00    -0.316 N 
ATOM     19  H   UNL     1      -1.876  -2.428  -0.003  0.00  0.00    +0.169 HD
ATOM     20  C   UNL     1      -3.674  -1.328   0.030  0.00  0.00    +0.166 A 
ATOM     21  N   UNL     1      -3.836  -0.025   0.038  0.00  0.00    -0.128 NA
ATOM     22  N   UNL     1      -2.692   0.560   0.030  0.00  0.00    -0.122 NA
BRANCH  20  23
ATOM     23  C   UNL     1      -4.745  -2.346   0.036  0.00  0.00    +0.061 A 
ATOM     24  C   UNL     1      -4.422  -3.704   0.027  0.00  0.00    +0.015 A 
ATOM     25  C   UNL     1      -5.426  -4.650   0.032  0.00  0.00    +0.001 A 
ATOM     26  C   UNL     1      -6.753  -4.258   0.047  0.00  0.00    +0.004 A 
ATOM     27  C   UNL     1      -7.085  -2.917   0.056  0.00  0.00    +0.046 A 
ATOM     28  C   UNL     1      -6.089  -1.954   0.057  0.00  0.00    +0.131 A 
BRANCH  28  29
ATOM     29  O   UNL     1      -6.415  -0.636   0.072  0.00  0.00    -0.494 OA
ATOM     30  C   UNL     1      -7.806  -0.311   0.092  0.00  0.00    +0.277 C 
ENDBRANCH  28  29
ENDBRANCH  20  23
ENDBRANCH  16  17
ENDBRANCH   1  16
TORSDOF 7
