REMARK  Name = ZINC39674037
REMARK  10 active torsions:
REMARK  status: ('A' for Active; 'I' for Inactive)
REMARK    1  A    between atoms: C_1  and  C_2
REMARK    2  A    between atoms: C_3  and  C_12
REMARK    3  A    between atoms: C_7  and  O_8
REMARK    4  A    between atoms: O_8  and  C_9
REMARK    5  A    between atoms: C_9  and  C_11
REMARK    6  A    between atoms: C_16  and  C_25
REMARK    7  A    between atoms: N_27  and  C_28
REMARK    8  A    between atoms: C_28  and  C_29
REMARK    9  A    between atoms: C_29  and  C_30
REMARK   10  A    between atoms: C_38  and  C_40
REMARK                            x       y       z     vdW  Elec       q    Type
REMARK                         _______ _______ _______ _____ _____    ______ ____
ROOT
ATOM      1  C   UNL     1      -0.375   0.006  -2.845  0.00  0.00    +0.247 C 
ATOM      2  O   UNL     1      -0.328   1.213  -2.987  0.00  0.00    -0.270 OA
ATOM      3  N   UNL     1      -0.553  -0.791  -3.917  0.00  0.00    -0.296 N 
ATOM      4  C   UNL     1      -0.761  -2.259  -3.932  0.00  0.00    +0.121 C 
ATOM      5  C   UNL     1      -1.820  -2.491  -5.034  0.00  0.00    +0.100 C 
ATOM      6  C   UNL     1      -1.697  -1.269  -5.960  0.00  0.00    -0.004 C 
ATOM      7  C   UNL     1      -0.591  -0.399  -5.346  0.00  0.00    +0.115 C 
ATOM      8  C   UNL     1      -1.305  -1.709  -7.367  0.00  0.00    -0.010 C 
ATOM      9  C   UNL     1      -1.246  -0.483  -8.283  0.00  0.00    -0.082 C 
ATOM     10  N   UNL     1      -2.556   0.178  -8.302  0.00  0.00    +0.379 N 
ATOM     11  C   UNL     1      -2.884   0.681  -6.963  0.00  0.00    -0.082 C 
ATOM     12  C   UNL     1      -3.012  -0.496  -5.991  0.00  0.00    -0.010 C 
ATOM     13  H   UNL     1      -2.533   0.950  -8.953  0.00  0.00    -0.086 HD
ATOM     14  H   UNL     1      -3.261  -0.482  -8.594  0.00  0.00    -0.086 HD
ENDROOT
BRANCH   1  17
ATOM     15  C   UNL     1      -1.492   1.381  -0.558  0.00  0.00    +0.048 C 
ATOM     16  C   UNL     1      -0.773   0.069  -0.388  0.00  0.00    +0.004 A 
ATOM     17  C   UNL     1      -0.237  -0.586  -1.498  0.00  0.00    +0.043 A 
ATOM     18  C   UNL     1       0.428  -1.801  -1.331  0.00  0.00    +0.013 A 
ATOM     19  C   UNL     1       0.555  -2.351  -0.072  0.00  0.00    +0.004 A 
ATOM     20  C   UNL     1       0.024  -1.702   1.027  0.00  0.00    +0.047 A 
ATOM     21  C   UNL     1      -0.635  -0.489   0.872  0.00  0.00    +0.135 A 
BRANCH  21  22
ATOM     22  O   UNL     1      -1.151   0.147   1.957  0.00  0.00    -0.426 OA
BRANCH  22  23
ATOM     23  C   UNL     1      -0.486   1.208   2.440  0.00  0.00    +0.309 C 
ATOM     24  O   UNL     1       0.585   1.515   1.972  0.00  0.00    -0.251 OA
ATOM     25  C   UNL     1      -1.075   2.018   3.567  0.00  0.00    +0.136 C 
ENDBRANCH  22  23
ENDBRANCH  21  22
ENDBRANCH   1  17
BRANCH   5  26
ATOM     26  C   UNL     1      -3.199  -2.559  -4.431  0.00  0.00    +0.218 C 
ATOM     27  O   UNL     1      -3.475  -1.871  -3.470  0.00  0.00    -0.275 OA
ATOM     28  N   UNL     1      -4.125  -3.383  -4.958  0.00  0.00    -0.315 N 
ATOM     29  H   UNL     1      -3.904  -3.933  -5.726  0.00  0.00    +0.149 HD
BRANCH  28  30
ATOM     30  C   UNL     1      -5.466  -3.449  -4.372  0.00  0.00    +0.109 C 
BRANCH  30  31
ATOM     31  C   UNL     1      -6.316  -4.454  -5.153  0.00  0.00    +0.056 C 
BRANCH  31  32
ATOM     32  C   UNL     1      -7.695  -4.522  -4.550  0.00  0.00    -0.018 A 
ATOM     33  C   UNL     1      -8.850  -3.700  -4.921  0.00  0.00    +0.003 A 
ATOM     34  C   UNL     1      -9.057  -2.683  -5.854  0.00  0.00    +0.010 A 
ATOM     35  C   UNL     1     -10.288  -2.099  -5.958  0.00  0.00    +0.001 A 
ATOM     36  C   UNL     1     -11.334  -2.508  -5.143  0.00  0.00    +0.002 A 
ATOM     37  C   UNL     1     -11.151  -3.510  -4.216  0.00  0.00    +0.026 A 
ATOM     38  C   UNL     1      -9.907  -4.119  -4.092  0.00  0.00    +0.047 A 
ATOM     39  N   UNL     1      -9.417  -5.121  -3.285  0.00  0.00    -0.358 N 
ATOM     40  C   UNL     1      -8.100  -5.351  -3.575  0.00  0.00    +0.017 A 
ATOM     41  H   UNL     1      -9.931  -5.596  -2.612  0.00  0.00    +0.166 HD
ATOM     42  C   UNL     1      -7.232  -6.380  -2.899  0.00  0.00    +0.063 C 
ENDBRANCH  31  32
ENDBRANCH  30  31
ENDBRANCH  28  30
ENDBRANCH   5  26
TORSDOF 7
