REMARK  Name = ZINC63405620
REMARK  4 active torsions:
REMARK  status: ('A' for Active; 'I' for Inactive)
REMARK    1  A    between atoms: C_3  and  C_22
REMARK    2  A    between atoms: C_5  and  N_7
REMARK    3  A    between atoms: C_8  and  C_10
REMARK    4  A    between atoms: C_13  and  C_17
REMARK                            x       y       z     vdW  Elec       q    Type
REMARK                         _______ _______ _______ _____ _____    ______ ____
ROOT
ATOM      1  N   UNL     1       1.214  -2.072   0.204  0.00  0.00    -0.282 N 
ATOM      2  C   UNL     1       0.073  -2.776   0.338  0.00  0.00    +0.243 C 
ATOM      3  O   UNL     1      -0.972  -2.203   0.589  0.00  0.00    -0.270 OA
ATOM      4  H   UNL     1       2.031  -2.518  -0.068  0.00  0.00    +0.155 HD
ENDROOT
BRANCH   2   5
ATOM      5  C   UNL     1       0.088  -4.182   0.186  0.00  0.00    +0.086 C 
ATOM      6  C   UNL     1      -1.070  -4.874   0.194  0.00  0.00    +0.020 C 
ATOM      7  N   UNL     1      -2.266  -4.250   0.203  0.00  0.00    -0.329 N 
ATOM      8  C   UNL     1      -3.414  -5.014   0.740  0.00  0.00    +0.196 C 
ATOM      9  S   UNL     1      -2.896  -6.734   0.320  0.00  0.00    -0.125 S 
ATOM     10  C   UNL     1      -1.088  -6.395   0.185  0.00  0.00    +0.122 C 
ATOM     11  H   UNL     1      -2.368  -3.343  -0.125  0.00  0.00    +0.147 HD
BRANCH   8  12
ATOM     12  C   UNL     1      -4.694  -4.641   0.036  0.00  0.00    +0.135 A 
ATOM     13  C   UNL     1      -5.925  -4.663   0.578  0.00  0.00    +0.047 A 
ATOM     14  C   UNL     1      -6.823  -4.242  -0.430  0.00  0.00    +0.041 A 
ATOM     15  C   UNL     1      -6.087  -3.988  -1.526  0.00  0.00    +0.195 A 
ATOM     16  O   UNL     1      -4.797  -4.226  -1.237  0.00  0.00    -0.465 OA
ENDBRANCH   8  12
ENDBRANCH   2   5
BRANCH   1  21
ATOM     17  C   UNL     1       1.972   1.517  -0.105  0.00  0.00    +0.002 A 
ATOM     18  C   UNL     1       1.247   2.039   0.946  0.00  0.00    +0.010 A 
ATOM     19  C   UNL     1       0.497   1.191   1.767  0.00  0.00    +0.000 A 
ATOM     20  C   UNL     1       0.487  -0.184   1.517  0.00  0.00    +0.033 A 
ATOM     21  C   UNL     1       1.220  -0.696   0.458  0.00  0.00    +0.034 A 
ATOM     22  C   UNL     1       1.962   0.157  -0.351  0.00  0.00    +0.023 A 
BRANCH  19  23
ATOM     23  C   UNL     1      -0.278   1.744   2.889  0.00  0.00    +0.076 C 
ATOM     24  N   UNL     1      -1.015   1.082   3.738  0.00  0.00    -0.154 NA
ATOM     25  N   UNL     1      -1.612   1.916   4.678  0.00  0.00    -0.161 NA
ATOM     26  C   UNL     1      -1.304   3.160   4.502  0.00  0.00    +0.114 C 
ATOM     27  C   UNL     1      -0.380   3.199   3.301  0.00  0.00    +0.107 C 
ENDBRANCH  19  23
ENDBRANCH   1  21
TORSDOF 4
