REMARK  Name = ZINC42007068
REMARK  10 active torsions:
REMARK  status: ('A' for Active; 'I' for Inactive)
REMARK    1  A    between atoms: C_1  and  C_2
REMARK    2  A    between atoms: C_2  and  C_3
REMARK    3  A    between atoms: C_2  and  C_4
REMARK    4  A    between atoms: C_4  and  C_5
REMARK    5  A    between atoms: C_5  and  C_6
REMARK    6  A    between atoms: C_6  and  C_7
REMARK    7  A    between atoms: C_6  and  C_8
REMARK    8  A    between atoms: C_6  and  S_11
REMARK    9  A    between atoms: S_11  and  C_12
REMARK   10  A    between atoms: C_17  and  N_18
REMARK                            x       y       z     vdW  Elec       q    Type
REMARK                         _______ _______ _______ _____ _____    ______ ____
ROOT
ATOM      1  C   UNL     1       2.893  -0.822  -2.515  0.00  0.00    +0.119 C 
ATOM      2  C   UNL     1       2.199  -0.646  -3.867  0.00  0.00    +0.035 C 
ENDROOT
BRANCH   1   3
ATOM      3  C   UNL     1       4.217  -0.102  -2.533  0.00  0.00    +0.372 C 
ATOM      4  O   UNL     1       5.251  -0.722  -2.352  0.00  0.00    -0.245 OA
ATOM      5  O   UNL     1       4.254   1.101  -2.728  0.00  0.00    -0.245 OA
ENDBRANCH   1   3
BRANCH   1   6
ATOM      6  C   UNL     1       2.011  -0.241  -1.409  0.00  0.00    +0.029 C 
BRANCH   6   7
ATOM      7  C   UNL     1       0.622  -0.878  -1.477  0.00  0.00    +0.005 C 
BRANCH   7   9
ATOM      8  C   UNL     1      -0.486   1.195  -0.628  0.00  0.00    +0.007 C 
ATOM      9  C   UNL     1      -0.260  -0.297  -0.370  0.00  0.00    -0.017 C 
ATOM     10  C   UNL     1      -1.608  -1.022  -0.358  0.00  0.00    +0.007 C 
ENDBRANCH   7   9
ENDBRANCH   6   7
ENDBRANCH   1   6
BRANCH   1  11
ATOM     11  S   UNL     1       3.170  -2.587  -2.204  0.00  0.00    -0.105 S 
BRANCH  11  12
ATOM     12  C   UNL     1       3.943  -2.625  -0.621  0.00  0.00    +0.030 A 
ATOM     13  C   UNL     1       4.303  -1.440   0.006  0.00  0.00    +0.016 A 
ATOM     14  C   UNL     1       4.909  -1.472   1.248  0.00  0.00    +0.001 A 
ATOM     15  C   UNL     1       5.159  -2.682   1.869  0.00  0.00    +0.002 A 
ATOM     16  C   UNL     1       4.804  -3.868   1.252  0.00  0.00    +0.024 A 
ATOM     17  C   UNL     1       4.190  -3.845   0.009  0.00  0.00    +0.038 A 
BRANCH  17  18
ATOM     18  N   UNL     1       3.824  -5.044  -0.615  0.00  0.00    -0.357 N 
ATOM     19  H   UNL     1       3.398  -5.027  -1.486  0.00  0.00    +0.142 HD
ATOM     20  H   UNL     1       3.996  -5.891  -0.176  0.00  0.00    +0.142 HD
ENDBRANCH  17  18
ENDBRANCH  11  12
ENDBRANCH   1  11
TORSDOF 7
