REMARK  Name = ZINC36610438
REMARK  15 active torsions:
REMARK  status: ('A' for Active; 'I' for Inactive)
REMARK    1  A    between atoms: C_1  and  C_2
REMARK    2  A    between atoms: C_2  and  C_3
REMARK    3  A    between atoms: C_3  and  C_4
REMARK    4  A    between atoms: C_4  and  C_5
REMARK    5  A    between atoms: C_5  and  C_6
REMARK    6  A    between atoms: C_6  and  C_8
REMARK    7  A    between atoms: C_6  and  N_22
REMARK    8  A    between atoms: N_10  and  C_11
REMARK    9  A    between atoms: C_11  and  S_12
REMARK   10  A    between atoms: S_12  and  C_15
REMARK   11  A    between atoms: C_18  and  C_21
REMARK   12  A    between atoms: N_22  and  C_23
REMARK   13  A    between atoms: C_29  and  C_31
REMARK   14  A    between atoms: C_35  and  O_38
REMARK   15  A    between atoms: C_36  and  O_37
REMARK                            x       y       z     vdW  Elec       q    Type
REMARK                         _______ _______ _______ _____ _____    ______ ____
ROOT
ATOM      1  C   UNL     1      -3.031  -4.605   0.280  0.00  0.00    +0.167 C 
ENDROOT
BRANCH   1   2
ATOM      2  C   UNL     1      -4.154  -5.448   0.827  0.00  0.00    +0.235 C 
ATOM      3  O   UNL     1      -4.637  -6.330   0.147  0.00  0.00    -0.274 OA
ATOM      4  N   UNL     1      -4.623  -5.223   2.070  0.00  0.00    -0.295 N 
ATOM      5  H   UNL     1      -4.238  -4.517   2.613  0.00  0.00    +0.150 HD
BRANCH   4   6
ATOM      6  C   UNL     1      -5.715  -6.042   2.601  0.00  0.00    +0.278 C 
BRANCH   6   7
ATOM      7  S   UNL     1      -5.026  -7.408   3.576  0.00  0.00    +0.013 S 
ATOM      8  O   UNL     1      -6.074  -8.176   4.151  0.00  0.00    -0.168 OA
ATOM      9  O   UNL     1      -3.974  -8.040   2.859  0.00  0.00    -0.168 OA
BRANCH   7  10
ATOM     10  C   UNL     1      -4.234  -6.632   4.946  0.00  0.00    +0.090 A 
ATOM     11  C   UNL     1      -2.907  -6.257   4.855  0.00  0.00    +0.027 A 
ATOM     12  C   UNL     1      -2.286  -5.648   5.929  0.00  0.00    +0.005 A 
ATOM     13  C   UNL     1      -2.992  -5.415   7.095  0.00  0.00    -0.050 A 
ATOM     14  C   UNL     1      -4.319  -5.790   7.185  0.00  0.00    +0.005 A 
ATOM     15  C   UNL     1      -4.942  -6.394   6.109  0.00  0.00    +0.027 A 
ATOM     16  C   UNL     1      -2.314  -4.752   8.266  0.00  0.00    +0.044 C 
ENDBRANCH   7  10
ENDBRANCH   6   7
ENDBRANCH   4   6
ENDBRANCH   1   2
BRANCH   1  17
ATOM     17  N   UNL     1      -2.707  -5.045  -1.079  0.00  0.00    -0.255 N 
ATOM     18  C   UNL     1      -1.452  -5.433  -1.381  0.00  0.00    +0.255 C 
ATOM     19  O   UNL     1      -0.566  -5.318  -0.556  0.00  0.00    -0.269 OA
BRANCH  17  20
ATOM     20  C   UNL     1      -3.700  -5.062  -2.064  0.00  0.00    +0.037 A 
ATOM     21  C   UNL     1      -4.297  -3.877  -2.472  0.00  0.00    +0.023 A 
ATOM     22  C   UNL     1      -5.277  -3.897  -3.444  0.00  0.00    +0.002 A 
ATOM     23  C   UNL     1      -5.664  -5.097  -4.013  0.00  0.00    +0.000 A 
ATOM     24  C   UNL     1      -5.072  -6.280  -3.609  0.00  0.00    +0.002 A 
ATOM     25  C   UNL     1      -4.087  -6.265  -2.641  0.00  0.00    +0.023 A 
ENDBRANCH  17  20
BRANCH  18  26
ATOM     26  C   UNL     1      -1.154  -5.997  -2.710  0.00  0.00    +0.082 A 
ATOM     27  C   UNL     1      -1.863  -5.562  -3.834  0.00  0.00    +0.017 A 
ATOM     28  C   UNL     1      -1.583  -6.092  -5.074  0.00  0.00    +0.005 A 
ATOM     29  C   UNL     1      -0.598  -7.056  -5.216  0.00  0.00    +0.049 A 
ATOM     30  C   UNL     1       0.114  -7.497  -4.114  0.00  0.00    +0.159 A 
ATOM     31  C   UNL     1      -0.155  -6.968  -2.855  0.00  0.00    +0.171 A 
BRANCH  31  32
ATOM     32  O   UNL     1       0.544  -7.393  -1.772  0.00  0.00    -0.503 OA
ATOM     33  H   UNL     1       0.149  -8.152  -1.322  0.00  0.00    +0.292 HD
ENDBRANCH  31  32
BRANCH  30  34
ATOM     34  O   UNL     1       1.079  -8.444  -4.261  0.00  0.00    -0.503 OA
ATOM     35  H   UNL     1       1.959  -8.085  -4.439  0.00  0.00    +0.292 HD
ENDBRANCH  30  34
ENDBRANCH  18  26
ENDBRANCH   1  17
BRANCH   1  36
ATOM     36  C   UNL     1      -3.463  -3.137   0.252  0.00  0.00    +0.032 C 
BRANCH  36  37
ATOM     37  C   UNL     1      -2.316  -2.279  -0.284  0.00  0.00    +0.002 C 
BRANCH  37  38
ATOM     38  C   UNL     1      -2.747  -0.811  -0.313  0.00  0.00    -0.000 C 
BRANCH  38  40
ATOM     39  C   UNL     1      -2.031   1.515  -0.877  0.00  0.00    +0.004 C 
ATOM     40  C   UNL     1      -1.600   0.048  -0.849  0.00  0.00    -0.003 C 
ENDBRANCH  38  40
ENDBRANCH  37  38
ENDBRANCH  36  37
ENDBRANCH   1  36
TORSDOF 13
