REMARK  Name = ZINC37107200
REMARK  7 active torsions:
REMARK  status: ('A' for Active; 'I' for Inactive)
REMARK    1  A    between atoms: C_1  and  C_2
REMARK    2  A    between atoms: C_2  and  N_3
REMARK    3  A    between atoms: N_3  and  C_4
REMARK    4  A    between atoms: C_4  and  C_5
REMARK    5  A    between atoms: N_7  and  C_8
REMARK    6  A    between atoms: C_18  and  C_20
REMARK    7  A    between atoms: C_21  and  C_22
REMARK                            x       y       z     vdW  Elec       q    Type
REMARK                         _______ _______ _______ _____ _____    ______ ____
ROOT
ATOM      1  N   UNL     1       0.688  -0.477  -1.206  0.00  0.00    -0.289 N 
ATOM      2  C   UNL     1      -0.017  -0.712  -2.330  0.00  0.00    +0.240 C 
ATOM      3  O   UNL     1       0.549  -1.111  -3.331  0.00  0.00    -0.271 OA
ENDROOT
BRANCH   1   5
ATOM      4  C   UNL     1      -0.012   1.534  -0.003  0.00  0.00    +0.024 C 
ATOM      5  C   UNL     1       0.007   0.004  -0.002  0.00  0.00    +0.105 C 
ENDBRANCH   1   5
BRANCH   2   6
ATOM      6  C   UNL     1      -1.462  -0.486  -2.348  0.00  0.00    +0.068 C 
ATOM      7  C   UNL     1      -2.168  -0.721  -3.474  0.00  0.00    +0.013 C 
BRANCH   7   8
ATOM      8  C   UNL     1      -3.621  -0.494  -3.492  0.00  0.00    -0.020 A 
ATOM      9  C   UNL     1      -4.356  -0.743  -4.657  0.00  0.00    +0.057 A 
ATOM     10  C   UNL     1      -5.720  -0.529  -4.668  0.00  0.00    +0.168 A 
ATOM     11  C   UNL     1      -6.364  -0.066  -3.520  0.00  0.00    +0.184 A 
ATOM     12  C   UNL     1      -5.635   0.181  -2.364  0.00  0.00    +0.087 A 
ATOM     13  C   UNL     1      -4.273  -0.035  -2.342  0.00  0.00    +0.031 A 
ATOM     14 CL   UNL     1      -6.441   0.758  -0.939  0.00  0.00    -0.080 Cl
ATOM     15  O   UNL     1      -7.695   0.062  -3.790  0.00  0.00    -0.451 OA
ATOM     16  C   UNL     1      -7.799   0.066  -5.226  0.00  0.00    +0.466 C 
ATOM     17  O   UNL     1      -6.651  -0.690  -5.654  0.00  0.00    -0.453 OA
ENDBRANCH   7   8
ENDBRANCH   2   6
BRANCH   1  18
ATOM     18  C   UNL     1       2.135  -0.703  -1.189  0.00  0.00    +0.204 C 
BRANCH  18  19
ATOM     19  C   UNL     1       2.417  -2.122  -0.768  0.00  0.00    +0.235 C 
ATOM     20  O   UNL     1       1.499  -2.872  -0.508  0.00  0.00    -0.274 OA
ATOM     21  N   UNL     1       3.689  -2.559  -0.680  0.00  0.00    -0.284 N 
ATOM     22  H   UNL     1       4.420  -1.982  -0.952  0.00  0.00    +0.155 HD
BRANCH  21  23
ATOM     23  C   UNL     1       3.955  -3.847  -0.197  0.00  0.00    +0.037 A 
ATOM     24  C   UNL     1       5.090  -4.081   0.568  0.00  0.00    +0.027 A 
ATOM     25  C   UNL     1       5.354  -5.350   1.044  0.00  0.00    +0.051 A 
ATOM     26  C   UNL     1       4.487  -6.395   0.760  0.00  0.00    +0.162 A 
ATOM     27  C   UNL     1       3.349  -6.164  -0.003  0.00  0.00    +0.164 A 
ATOM     28  C   UNL     1       3.083  -4.888  -0.478  0.00  0.00    +0.072 A 
ATOM     29  O   UNL     1       2.482  -7.175  -0.286  0.00  0.00    -0.485 OA
ATOM     30  C   UNL     1       2.969  -8.509  -0.106  0.00  0.00    +0.270 C 
ATOM     31  C   UNL     1       3.685  -8.580   1.250  0.00  0.00    +0.270 C 
ATOM     32  O   UNL     1       4.765  -7.641   1.236  0.00  0.00    -0.485 OA
ENDBRANCH  21  23
ENDBRANCH  18  19
ENDBRANCH   1  18
TORSDOF 6
