REMARK  Name = ZINC36206284
REMARK  15 active torsions:
REMARK  status: ('A' for Active; 'I' for Inactive)
REMARK    1  A    between atoms: C_1  and  C_2
REMARK    2  A    between atoms: C_2  and  C_3
REMARK    3  A    between atoms: C_2  and  O_4
REMARK    4  A    between atoms: O_4  and  C_5
REMARK    5  A    between atoms: C_5  and  C_6
REMARK    6  A    between atoms: C_6  and  C_8
REMARK    7  A    between atoms: C_6  and  O_36
REMARK    8  A    between atoms: C_8  and  N_9
REMARK    9  A    between atoms: N_9  and  C_10
REMARK   10  A    between atoms: N_9  and  C_16
REMARK   11  A    between atoms: C_10  and  C_11
REMARK   12  A    between atoms: C_16  and  C_17
REMARK   13  A    between atoms: C_23  and  C_28
REMARK   14  A    between atoms: C_31  and  O_34
REMARK   15  A    between atoms: O_34  and  C_35
REMARK                            x       y       z     vdW  Elec       q    Type
REMARK                         _______ _______ _______ _____ _____    ______ ____
ROOT
ATOM      1  C   UNL     1      -6.800  -4.900  -2.048  0.00  0.00    +0.094 A 
ATOM      2  N   UNL     1      -7.432  -5.905  -2.706  0.00  0.00    -0.312 N 
ATOM      3  H   UNL     1      -6.916  -6.504  -3.268  0.00  0.00    +0.170 HD
ATOM      4  C   UNL     1      -8.761  -6.086  -2.595  0.00  0.00    +0.260 A 
ATOM      5  O   UNL     1      -9.314  -6.994  -3.192  0.00  0.00    -0.267 OA
ATOM      6  C   UNL     1      -9.515  -5.197  -1.764  0.00  0.00    +0.080 A 
ATOM      7  C   UNL     1     -10.946  -5.187  -1.484  0.00  0.00    +0.004 A 
ATOM      8  C   UNL     1     -11.441  -4.237  -0.655  0.00  0.00    +0.056 A 
ATOM      9  S   UNL     1      -9.998  -3.294  -0.199  0.00  0.00    -0.076 S 
ATOM     10  C   UNL     1      -8.776  -4.189  -1.124  0.00  0.00    +0.116 A 
ATOM     11  N   UNL     1      -7.460  -4.076  -1.279  0.00  0.00    -0.229 NA
ENDROOT
BRANCH   7  12
ATOM     12  C   UNL     1     -11.843  -6.196  -2.096  0.00  0.00    -0.016 A 
ATOM     13  C   UNL     1     -11.792  -6.436  -3.469  0.00  0.00    +0.012 A 
ATOM     14  C   UNL     1     -12.627  -7.376  -4.035  0.00  0.00    +0.046 A 
ATOM     15  C   UNL     1     -13.518  -8.084  -3.240  0.00  0.00    +0.120 A 
ATOM     16  C   UNL     1     -13.572  -7.848  -1.873  0.00  0.00    +0.046 A 
ATOM     17  C   UNL     1     -12.735  -6.913  -1.300  0.00  0.00    +0.012 A 
BRANCH  15  18
ATOM     18  O   UNL     1     -14.339  -9.010  -3.801  0.00  0.00    -0.495 OA
ATOM     19  C   UNL     1     -15.231  -9.701  -2.925  0.00  0.00    +0.277 C 
ENDBRANCH  15  18
ENDBRANCH   7  12
BRANCH   1  20
ATOM     20  C   UNL     1      -5.310  -4.736  -2.202  0.00  0.00    -0.003 C 
BRANCH  20  21
ATOM     21  N   UNL     1      -4.856  -3.595  -1.396  0.00  0.00    +0.391 N 
ATOM     22  H   UNL     1      -5.380  -2.772  -1.653  0.00  0.00    -0.080 HD
BRANCH  21  23
ATOM     23  C   UNL     1      -3.427  -3.361  -1.639  0.00  0.00    -0.044 C 
BRANCH  23  24
ATOM     24  C   UNL     1      -3.221  -2.918  -3.089  0.00  0.00    +0.124 C 
BRANCH  24  25
ATOM     25  O   UNL     1      -3.918  -1.692  -3.315  0.00  0.00    -0.391 OA
ATOM     26  H   UNL     1      -3.581  -0.946  -2.800  0.00  0.00    +0.210 HD
ENDBRANCH  24  25
BRANCH  24  27
ATOM     27  C   UNL     1      -1.728  -2.712  -3.353  0.00  0.00    +0.189 C 
BRANCH  27  28
ATOM     28  O   UNL     1      -1.526  -2.413  -4.735  0.00  0.00    -0.375 OA
BRANCH  28  30
ATOM     29  C   UNL     1       0.063  -2.624  -6.543  0.00  0.00    +0.037 C 
ATOM     30  C   UNL     1      -0.158  -2.201  -5.090  0.00  0.00    +0.112 C 
ATOM     31  C   UNL     1       0.187  -0.719  -4.932  0.00  0.00    +0.037 C 
ENDBRANCH  28  30
ENDBRANCH  27  28
ENDBRANCH  24  27
ENDBRANCH  23  24
ENDBRANCH  21  23
BRANCH  21  32
ATOM     32  C   UNL     1      -5.070  -3.886   0.028  0.00  0.00    -0.002 C 
BRANCH  32  33
ATOM     33  C   UNL     1      -4.740  -2.663   0.846  0.00  0.00    +0.089 A 
ATOM     34  C   UNL     1      -5.573  -1.637   1.097  0.00  0.00    +0.042 A 
ATOM     35  C   UNL     1      -4.858  -0.716   1.896  0.00  0.00    +0.041 A 
ATOM     36  C   UNL     1      -3.631  -1.234   2.084  0.00  0.00    +0.195 A 
ATOM     37  O   UNL     1      -3.567  -2.416   1.451  0.00  0.00    -0.470 OA
ENDBRANCH  32  33
ENDBRANCH  21  32
ENDBRANCH  20  21
ENDBRANCH   1  20
TORSDOF 12
