REMARK  Name = ZINC08876722
REMARK  8 active torsions:
REMARK  status: ('A' for Active; 'I' for Inactive)
REMARK    1  A    between atoms: C_1  and  C_2
REMARK    2  A    between atoms: C_2  and  C_3
REMARK    3  A    between atoms: C_2  and  C_4
REMARK    4  A    between atoms: C_4  and  C_5
REMARK    5  A    between atoms: C_8  and  C_20
REMARK    6  A    between atoms: N_22  and  C_23
REMARK    7  A    between atoms: C_28  and  O_29
REMARK    8  A    between atoms: O_29  and  C_30
REMARK                            x       y       z     vdW  Elec       q    Type
REMARK                         _______ _______ _______ _____ _____    ______ ____
ROOT
ATOM      1  C   UNL     1       1.948   2.158   2.049  0.00  0.00    -0.069 C 
ATOM      2  C   UNL     1       1.371   3.042   0.914  0.00  0.00    -0.004 C 
ATOM      3  C   UNL     1       1.245   2.021  -0.249  0.00  0.00    +0.076 C 
ATOM      4  C   UNL     1       2.463   1.109  -0.035  0.00  0.00    +0.049 C 
ATOM      5  C   UNL     1       2.134  -0.316  -0.392  0.00  0.00    -0.028 A 
ATOM      6  C   UNL     1       1.217  -1.222   0.091  0.00  0.00    +0.004 A 
ATOM      7  C   UNL     1       1.148  -2.493  -0.454  0.00  0.00    +0.000 A 
ATOM      8  C   UNL     1       2.001  -2.848  -1.483  0.00  0.00    +0.002 A 
ATOM      9  C   UNL     1       2.921  -1.942  -1.969  0.00  0.00    +0.023 A 
ATOM     10  C   UNL     1       2.998  -0.662  -1.425  0.00  0.00    +0.036 A 
ATOM     11  N   UNL     1       3.832   0.414  -1.738  0.00  0.00    -0.286 N 
ATOM     12  C   UNL     1       3.583   1.490  -0.969  0.00  0.00    +0.211 C 
ATOM     13  O   UNL     1       4.152   2.560  -1.017  0.00  0.00    -0.277 OA
ATOM     14  H   UNL     1       4.511   0.389  -2.430  0.00  0.00    +0.155 HD
ATOM     15  N   UNL     1       2.870   1.232   1.365  0.00  0.00    +0.394 N 
ATOM     16  H   UNL     1       2.833   0.311   1.817  0.00  0.00    -0.083 HD
ATOM     17  H   UNL     1       3.828   1.599   1.415  0.00  0.00    -0.083 HD
ENDROOT
BRANCH   3  18
ATOM     18  C   UNL     1      -0.036   1.236  -0.134  0.00  0.00    +0.220 C 
ATOM     19  O   UNL     1      -0.478   0.954   0.960  0.00  0.00    -0.275 OA
ATOM     20  N   UNL     1      -0.688   0.843  -1.246  0.00  0.00    -0.282 N 
ATOM     21  H   UNL     1      -0.293   0.995  -2.119  0.00  0.00    +0.155 HD
BRANCH  20  22
ATOM     22  C   UNL     1      -1.936   0.215  -1.142  0.00  0.00    +0.077 A 
ATOM     23  C   UNL     1      -2.814   0.576  -0.130  0.00  0.00    +0.047 A 
ATOM     24  C   UNL     1      -4.048  -0.041  -0.033  0.00  0.00    +0.043 A 
ATOM     25  C   UNL     1      -4.404  -1.027  -0.936  0.00  0.00    +0.024 A 
ATOM     26  C   UNL     1      -3.532  -1.396  -1.943  0.00  0.00    +0.049 A 
ATOM     27  C   UNL     1      -2.297  -0.777  -2.050  0.00  0.00    +0.141 A 
ATOM     28 CL   UNL     1      -5.149   0.417   1.228  0.00  0.00    -0.083 Cl
BRANCH  27  29
ATOM     29  O   UNL     1      -1.438  -1.139  -3.040  0.00  0.00    -0.493 OA
ATOM     30  C   UNL     1      -1.874  -2.164  -3.936  0.00  0.00    +0.277 C 
ENDBRANCH  27  29
ENDBRANCH  20  22
ENDBRANCH   3  18
BRANCH   1  31
ATOM     31  C   UNL     1       2.704   3.019   3.063  0.00  0.00    -0.013 C 
BRANCH  31  33
ATOM     32  C   UNL     1       4.175   1.116   3.740  0.00  0.00    +0.007 C 
ATOM     33  C   UNL     1       3.158   2.147   4.235  0.00  0.00    -0.019 C 
ATOM     34  C   UNL     1       3.804   3.028   5.306  0.00  0.00    +0.007 C 
ENDBRANCH  31  33
ENDBRANCH   1  31
TORSDOF 5
