REMARK  Name = ZINC12484006
REMARK  4 active torsions:
REMARK  status: ('A' for Active; 'I' for Inactive)
REMARK    1  A    between atoms: C_13  and  C_16
REMARK    2  A    between atoms: N_18  and  N_19
REMARK    3  A    between atoms: C_20  and  C_22
REMARK    4  A    between atoms: C_22  and  C_23
REMARK                            x       y       z     vdW  Elec       q    Type
REMARK                         _______ _______ _______ _____ _____    ______ ____
ROOT
ATOM      1  C   UNL     1      -0.014   1.209   0.009  0.00  0.00    +0.232 C 
ATOM      2  O   UNL     1       0.002  -0.004   0.002  0.00  0.00    -0.274 OA
ATOM      3  N   UNL     1       1.143   1.898   0.001  0.00  0.00    -0.234 N 
ATOM      4  H   UNL     1       1.130   2.868   0.007  0.00  0.00    +0.173 HD
ENDROOT
BRANCH   1  17
ATOM      5  C   UNL     1      -8.855   5.297   2.590  0.00  0.00    +0.002 A 
ATOM      6  C   UNL     1      -9.298   4.702   1.419  0.00  0.00    +0.004 A 
ATOM      7  C   UNL     1      -8.457   3.890   0.684  0.00  0.00    +0.048 A 
ATOM      8  C   UNL     1      -7.160   3.668   1.118  0.00  0.00    +0.157 A 
ATOM      9  C   UNL     1      -6.708   4.268   2.303  0.00  0.00    +0.111 A 
ATOM     10  C   UNL     1      -7.569   5.086   3.035  0.00  0.00    +0.031 A 
ATOM     11  N   UNL     1      -5.416   3.873   2.471  0.00  0.00    -0.195 NA
ATOM     12  C   UNL     1      -5.083   3.090   1.477  0.00  0.00    +0.291 A 
ATOM     13  O   UNL     1      -6.121   2.949   0.633  0.00  0.00    -0.424 OA
ATOM     14  N   UNL     1      -3.849   2.502   1.314  0.00  0.00    -0.285 N 
ATOM     15  C   UNL     1      -3.812   1.686   0.094  0.00  0.00    +0.110 C 
ATOM     16  C   UNL     1      -2.481   0.935   0.022  0.00  0.00    +0.032 C 
ATOM     17  C   UNL     1      -1.330   1.944   0.019  0.00  0.00    +0.079 C 
ATOM     18  C   UNL     1      -1.419   2.815   1.276  0.00  0.00    +0.032 C 
ATOM     19  C   UNL     1      -2.782   3.510   1.312  0.00  0.00    +0.110 C 
ENDBRANCH   1  17
BRANCH   3  20
ATOM     20  N   UNL     1       2.366   1.214  -0.014  0.00  0.00    -0.234 N 
ATOM     21  C   UNL     1       3.524   1.904  -0.021  0.00  0.00    +0.230 C 
ATOM     22  O   UNL     1       3.508   3.117  -0.015  0.00  0.00    -0.274 OA
ATOM     23  H   UNL     1       2.379   0.244  -0.019  0.00  0.00    +0.173 HD
BRANCH  21  24
ATOM     24  C   UNL     1       4.839   1.168  -0.038  0.00  0.00    +0.104 C 
BRANCH  24  25
ATOM     25  C   UNL     1       5.989   2.178  -0.043  0.00  0.00    -0.020 C 
ATOM     26  C   UNL     1       5.884   3.063  -1.287  0.00  0.00    +0.011 C 
ATOM     27  C   UNL     1       7.033   4.074  -1.292  0.00  0.00    -0.010 C 
ATOM     28  C   UNL     1       8.368   3.327  -1.309  0.00  0.00    +0.007 C 
ATOM     29  C   UNL     1       8.473   2.442  -0.066  0.00  0.00    -0.010 C 
ATOM     30  C   UNL     1       7.324   1.431  -0.060  0.00  0.00    +0.011 C 
ATOM     31  C   UNL     1       8.392   3.313   1.189  0.00  0.00    +0.007 C 
ATOM     32  C   UNL     1       7.057   4.060   1.206  0.00  0.00    -0.010 C 
ATOM     33  C   UNL     1       6.952   4.945  -0.038  0.00  0.00    +0.007 C 
ATOM     34  C   UNL     1       5.907   3.050   1.211  0.00  0.00    +0.011 C 
ENDBRANCH  24  25
ENDBRANCH  21  24
ENDBRANCH   3  20
TORSDOF 4
