REMARK  Name = ZINC08446264
REMARK  10 active torsions:
REMARK  status: ('A' for Active; 'I' for Inactive)
REMARK    1  A    between atoms: C_6  and  N_7
REMARK    2  A    between atoms: N_7  and  C_8
REMARK    3  A    between atoms: C_8  and  C_9
REMARK    4  A    between atoms: C_12  and  S_21
REMARK    5  A    between atoms: N_13  and  C_14
REMARK    6  A    between atoms: C_14  and  C_15
REMARK    7  A    between atoms: S_21  and  C_22
REMARK    8  A    between atoms: C_22  and  C_23
REMARK    9  A    between atoms: N_25  and  C_26
REMARK   10  A    between atoms: C_27  and  C_35
REMARK                            x       y       z     vdW  Elec       q    Type
REMARK                         _______ _______ _______ _____ _____    ______ ____
ROOT
ATOM      1  C   UNL     1      -2.591  -2.708   0.013  0.00  0.00    +0.151 A 
ATOM      2  N   UNL     1      -3.307  -2.976   1.069  0.00  0.00    -0.132 NA
ATOM      3  N   UNL     1      -4.467  -3.404   0.718  0.00  0.00    -0.122 NA
ATOM      4  C   UNL     1      -4.555  -3.431  -0.592  0.00  0.00    +0.192 A 
ATOM      5  N   UNL     1      -3.362  -2.983  -1.082  0.00  0.00    -0.302 N 
ENDROOT
BRANCH   1   6
ATOM      6  C   UNL     1      -1.177  -2.185   0.002  0.00  0.00    +0.178 C 
BRANCH   6   7
ATOM      7  N   UNL     1      -1.198  -0.721   0.010  0.00  0.00    -0.337 N 
ATOM      8  H   UNL     1      -2.046  -0.248   0.021  0.00  0.00    +0.147 HD
BRANCH   7  14
ATOM      9  C   UNL     1      -0.017   1.385   0.010  0.00  0.00    +0.026 A 
ATOM     10  C   UNL     1       1.171   2.090   0.002  0.00  0.00    +0.040 A 
ATOM     11  C   UNL     1       2.379   1.414  -0.013  0.00  0.00    +0.124 A 
ATOM     12  C   UNL     1       2.400   0.030  -0.021  0.00  0.00    +0.040 A 
ATOM     13  C   UNL     1       1.215  -0.680  -0.014  0.00  0.00    +0.026 A 
ATOM     14  C   UNL     1       0.002  -0.004   0.002  0.00  0.00    +0.028 A 
ATOM     15  F   UNL     1       3.539   2.107  -0.020  0.00  0.00    -0.205 F 
ENDBRANCH   7  14
ENDBRANCH   6   7
ENDBRANCH   1   6
BRANCH   5  16
ATOM     16  C   UNL     1      -2.985  -2.832  -2.490  0.00  0.00    +0.157 C 
BRANCH  16  17
ATOM     17  C   UNL     1      -2.354  -4.133  -2.991  0.00  0.00    +0.138 C 
ATOM     18  C   UNL     1      -1.844  -3.944  -4.436  0.00  0.00    +0.035 C 
ATOM     19  C   UNL     1      -2.210  -5.302  -5.095  0.00  0.00    +0.031 C 
ATOM     20  C   UNL     1      -3.530  -5.641  -4.357  0.00  0.00    +0.160 C 
ATOM     21  O   UNL     1      -3.337  -5.174  -3.010  0.00  0.00    -0.375 OA
ENDBRANCH  16  17
ENDBRANCH   5  16
BRANCH   4  22
ATOM     22  S   UNL     1      -5.950  -3.943  -1.538  0.00  0.00    -0.077 S 
BRANCH  22  23
ATOM     23  C   UNL     1      -7.183  -4.402  -0.288  0.00  0.00    +0.173 C 
BRANCH  23  24
ATOM     24  C   UNL     1      -8.443  -4.865  -0.972  0.00  0.00    +0.228 C 
ATOM     25  O   UNL     1      -8.504  -4.884  -2.183  0.00  0.00    -0.275 OA
ATOM     26  N   UNL     1      -9.503  -5.259  -0.238  0.00  0.00    -0.278 N 
ATOM     27  H   UNL     1      -9.454  -5.244   0.731  0.00  0.00    +0.155 HD
BRANCH  26  28
ATOM     28  C   UNL     1     -10.664  -5.685  -0.868  0.00  0.00    +0.090 A 
ATOM     29  C   UNL     1     -11.842  -6.116  -0.281  0.00  0.00    +0.084 A 
ATOM     30  C   UNL     1     -12.921  -6.512  -1.168  0.00  0.00    -0.018 A 
ATOM     31  C   UNL     1     -12.623  -6.405  -2.482  0.00  0.00    -0.004 A 
ATOM     32  S   UNL     1     -10.965  -5.790  -2.517  0.00  0.00    -0.077 S 
ATOM     33  C   UNL     1     -13.517  -6.736  -3.637  0.00  0.00    +0.043 C 
ATOM     34  C   UNL     1     -14.693  -7.572  -3.112  0.00  0.00    +0.005 C 
ATOM     35  C   UNL     1     -15.270  -6.891  -1.867  0.00  0.00    +0.005 C 
ATOM     36  C   UNL     1     -14.282  -7.009  -0.704  0.00  0.00    +0.037 C 
BRANCH  29  37
ATOM     37  C   UNL     1     -11.990  -6.169   1.143  0.00  0.00    +0.102 C 
ATOM     38  N   UNL     1     -12.107  -6.211   2.272  0.00  0.00    -0.191 NA
ENDBRANCH  29  37
ENDBRANCH  26  28
ENDBRANCH  23  24
ENDBRANCH  22  23
ENDBRANCH   4  22
TORSDOF 10
