REMARK  Name = ZINC36546614
REMARK  9 active torsions:
REMARK  status: ('A' for Active; 'I' for Inactive)
REMARK    1  A    between atoms: C_1  and  C_2
REMARK    2  A    between atoms: C_5  and  S_8
REMARK    3  A    between atoms: S_8  and  C_11
REMARK    4  A    between atoms: C_11  and  N_12
REMARK    5  A    between atoms: C_13  and  C_15
REMARK    6  A    between atoms: C_15  and  C_17
REMARK    7  A    between atoms: C_15  and  N_22
REMARK    8  A    between atoms: N_22  and  C_23
REMARK    9  A    between atoms: C_30  and  C_32
REMARK                            x       y       z     vdW  Elec       q    Type
REMARK                         _______ _______ _______ _____ _____    ______ ____
ROOT
ATOM      1  C   UNL     1       2.990  -4.890   3.478  0.00  0.00    +0.233 C 
ENDROOT
BRANCH   1   2
ATOM      2  C   UNL     1       4.403  -4.755   2.974  0.00  0.00    +0.135 A 
ATOM      3  C   UNL     1       5.079  -3.601   2.825  0.00  0.00    +0.047 A 
ATOM      4  C   UNL     1       6.359  -3.937   2.329  0.00  0.00    +0.041 A 
ATOM      5  C   UNL     1       6.390  -5.276   2.204  0.00  0.00    +0.195 A 
ATOM      6  O   UNL     1       5.204  -5.767   2.602  0.00  0.00    -0.465 OA
ENDBRANCH   1   2
BRANCH   1   8
ATOM      7  N   UNL     1       1.514  -4.001   1.703  0.00  0.00    -0.294 N 
ATOM      8  C   UNL     1       2.055  -5.076   2.310  0.00  0.00    +0.243 C 
ATOM      9  O   UNL     1       1.790  -6.192   1.917  0.00  0.00    -0.273 OA
ATOM     10  H   UNL     1       1.726  -3.108   2.017  0.00  0.00    +0.150 HD
BRANCH   7  11
ATOM     11  C   UNL     1       0.606  -4.182   0.568  0.00  0.00    +0.278 C 
BRANCH  11  12
ATOM     12  S   UNL     1      -1.110  -4.171   1.158  0.00  0.00    +0.013 S 
ATOM     13  O   UNL     1      -1.243  -5.019   2.291  0.00  0.00    -0.168 OA
ATOM     14  O   UNL     1      -2.006  -4.282   0.061  0.00  0.00    -0.168 OA
BRANCH  12  19
ATOM     15  C   UNL     1      -1.981   1.403   3.298  0.00  0.00    +0.044 C 
ATOM     16  C   UNL     1      -1.763   0.011   2.763  0.00  0.00    -0.050 A 
ATOM     17  C   UNL     1      -2.032  -0.270   1.437  0.00  0.00    +0.005 A 
ATOM     18  C   UNL     1      -1.833  -1.547   0.947  0.00  0.00    +0.027 A 
ATOM     19  C   UNL     1      -1.363  -2.543   1.783  0.00  0.00    +0.090 A 
ATOM     20  C   UNL     1      -1.093  -2.262   3.109  0.00  0.00    +0.027 A 
ATOM     21  C   UNL     1      -1.289  -0.984   3.598  0.00  0.00    +0.005 A 
ENDBRANCH  12  19
ENDBRANCH  11  12
ENDBRANCH   7  11
ENDBRANCH   1   8
BRANCH   1  22
ATOM     22  N   UNL     1       2.897  -6.051   4.367  0.00  0.00    -0.247 N 
ATOM     23  C   UNL     1       2.363  -5.916   5.597  0.00  0.00    +0.252 C 
ATOM     24  O   UNL     1       2.031  -4.818   5.999  0.00  0.00    -0.270 OA
BRANCH  22  25
ATOM     25  C   UNL     1       3.363  -7.298   3.939  0.00  0.00    +0.056 A 
ATOM     26  C   UNL     1       2.509  -8.171   3.277  0.00  0.00    +0.025 A 
ATOM     27  C   UNL     1       2.972  -9.402   2.856  0.00  0.00    +0.002 A 
ATOM     28  C   UNL     1       4.285  -9.767   3.093  0.00  0.00    +0.002 A 
ATOM     29  C   UNL     1       5.138  -8.902   3.752  0.00  0.00    +0.022 A 
ATOM     30  C   UNL     1       4.683  -7.666   4.171  0.00  0.00    +0.062 A 
ATOM     31 CL   UNL     1       5.757  -6.576   4.992  0.00  0.00    -0.082 Cl
ENDBRANCH  22  25
BRANCH  23  32
ATOM     32  C   UNL     1       2.180  -7.104   6.457  0.00  0.00    +0.037 A 
ATOM     33  C   UNL     1       3.236  -7.995   6.657  0.00  0.00    +0.013 A 
ATOM     34  C   UNL     1       3.059  -9.101   7.461  0.00  0.00    +0.001 A 
ATOM     35  C   UNL     1       1.837  -9.330   8.069  0.00  0.00    +0.000 A 
ATOM     36  C   UNL     1       0.786  -8.452   7.875  0.00  0.00    +0.001 A 
ATOM     37  C   UNL     1       0.952  -7.338   7.078  0.00  0.00    +0.013 A 
ENDBRANCH  23  32
ENDBRANCH   1  22
TORSDOF 8
