REMARK  Name = ZINC21785302
REMARK  8 active torsions:
REMARK  status: ('A' for Active; 'I' for Inactive)
REMARK    1  A    between atoms: C_1  and  C_2
REMARK    2  A    between atoms: C_4  and  N_17
REMARK    3  A    between atoms: N_7  and  C_9
REMARK    4  A    between atoms: C_9  and  C_10
REMARK    5  A    between atoms: N_20  and  C_21
REMARK    6  A    between atoms: C_23  and  C_36
REMARK    7  A    between atoms: N_25  and  C_28
REMARK    8  A    between atoms: C_28  and  C_29
REMARK                            x       y       z     vdW  Elec       q    Type
REMARK                         _______ _______ _______ _____ _____    ______ ____
ROOT
ATOM      1  N   UNL     1       2.416   1.280  -0.177  0.00  0.00    -0.265 N 
ATOM      2  C   UNL     1       3.573   1.963  -0.287  0.00  0.00    +0.308 C 
ATOM      3  O   UNL     1       3.555   3.170  -0.429  0.00  0.00    -0.252 OA
ATOM      4  N   UNL     1       4.750   1.307  -0.239  0.00  0.00    -0.265 N 
ATOM      5  H   UNL     1       2.433   0.201   0.034  0.00  0.00    +0.157 HD
ATOM      6  H   UNL     1       4.765   0.208  -0.195  0.00  0.00    +0.157 HD
ENDROOT
BRANCH   1  10
ATOM      7  C   UNL     1      -1.986   2.601   1.588  0.00  0.00    +0.045 C 
ATOM      8  C   UNL     1      -0.952   2.606   0.492  0.00  0.00    -0.032 A 
ATOM      9  C   UNL     1       0.264   1.931   0.672  0.00  0.00    +0.033 A 
ATOM     10  C   UNL     1       1.192   1.946  -0.333  0.00  0.00    +0.100 A 
ATOM     11  C   UNL     1       0.902   2.639  -1.528  0.00  0.00    +0.273 A 
ATOM     12  O   UNL     1       1.720   2.662  -2.434  0.00  0.00    -0.266 OA
ATOM     13  N   UNL     1      -0.274   3.280  -1.665  0.00  0.00    -0.309 N 
ATOM     14  C   UNL     1      -1.197   3.260  -0.666  0.00  0.00    +0.093 A 
BRANCH  13  15
ATOM     15  C   UNL     1      -0.565   4.002  -2.906  0.00  0.00    +0.163 C 
BRANCH  15  16
ATOM     16  C   UNL     1      -1.242   3.072  -3.880  0.00  0.00    +0.007 A 
ATOM     17  C   UNL     1      -2.600   3.185  -4.113  0.00  0.00    +0.008 A 
ATOM     18  C   UNL     1      -3.221   2.333  -5.008  0.00  0.00    +0.000 A 
ATOM     19  C   UNL     1      -2.485   1.368  -5.670  0.00  0.00    +0.003 A 
ATOM     20  C   UNL     1      -1.127   1.255  -5.439  0.00  0.00    +0.039 A 
ATOM     21  C   UNL     1      -0.503   2.110  -4.547  0.00  0.00    +0.128 A 
ATOM     22  F   UNL     1       0.825   2.003  -4.324  0.00  0.00    -0.205 F 
ENDBRANCH  15  16
ENDBRANCH  13  15
ENDBRANCH   1  10
BRANCH   4  23
ATOM     23  C   UNL     1       5.954   2.026  -0.247  0.00  0.00    +0.100 A 
ATOM     24  C   UNL     1       6.886   1.804  -1.224  0.00  0.00    +0.033 A 
ATOM     25  C   UNL     1       8.079   2.540  -1.211  0.00  0.00    -0.032 A 
ATOM     26  C   UNL     1       8.304   3.449  -0.235  0.00  0.00    +0.093 A 
ATOM     27  N   UNL     1       7.381   3.667   0.740  0.00  0.00    -0.309 N 
ATOM     28  C   UNL     1       6.221   2.982   0.756  0.00  0.00    +0.273 A 
ATOM     29  O   UNL     1       5.402   3.188   1.637  0.00  0.00    -0.266 OA
ATOM     30  C   UNL     1       9.115   2.313  -2.281  0.00  0.00    +0.045 C 
BRANCH  27  31
ATOM     31  C   UNL     1       7.651   4.658   1.784  0.00  0.00    +0.163 C 
BRANCH  31  32
ATOM     32  C   UNL     1       8.349   3.991   2.941  0.00  0.00    +0.007 A 
ATOM     33  C   UNL     1       9.703   4.187   3.137  0.00  0.00    +0.008 A 
ATOM     34  C   UNL     1      10.344   3.576   4.199  0.00  0.00    +0.000 A 
ATOM     35  C   UNL     1       9.632   2.768   5.065  0.00  0.00    +0.003 A 
ATOM     36  C   UNL     1       8.278   2.570   4.871  0.00  0.00    +0.039 A 
ATOM     37  C   UNL     1       7.634   3.186   3.811  0.00  0.00    +0.128 A 
ATOM     38  F   UNL     1       6.309   2.998   3.623  0.00  0.00    -0.205 F 
ENDBRANCH  31  32
ENDBRANCH  27  31
ENDBRANCH   4  23
TORSDOF 6
