REMARK  Name = ZINC00958324
REMARK  6 active torsions:
REMARK  status: ('A' for Active; 'I' for Inactive)
REMARK    1  A    between atoms: C_1  and  C_2
REMARK    2  A    between atoms: C_2  and  C_3
REMARK    3  A    between atoms: C_3  and  N_4
REMARK    4  A    between atoms: N_12  and  N_13
REMARK    5  A    between atoms: C_14  and  C_16
REMARK    6  A    between atoms: C_16  and  N_17
REMARK                            x       y       z     vdW  Elec       q    Type
REMARK                         _______ _______ _______ _____ _____    ______ ____
ROOT
ATOM      1  N   UNL     1       3.272  -5.019  -0.225  0.00  0.00    -0.205 N 
ATOM      2  C   UNL     1       3.972  -6.097  -0.631  0.00  0.00    +0.252 C 
ATOM      3  O   UNL     1       3.562  -7.212  -0.390  0.00  0.00    -0.272 OA
ATOM      4  H   UNL     1       3.600  -4.127  -0.418  0.00  0.00    +0.177 HD
ENDROOT
BRANCH   1  13
ATOM      5  N   UNL     1       0.762  -1.976   1.234  0.00  0.00    -0.266 N 
ATOM      6  C   UNL     1      -0.220  -2.775   1.808  0.00  0.00    +0.046 A 
ATOM      7  C   UNL     1      -1.389  -2.456   2.491  0.00  0.00    +0.024 A 
ATOM      8  C   UNL     1      -2.206  -3.459   2.971  0.00  0.00    +0.002 A 
ATOM      9  C   UNL     1      -1.876  -4.790   2.781  0.00  0.00    +0.001 A 
ATOM     10  C   UNL     1      -0.719  -5.126   2.107  0.00  0.00    +0.012 A 
ATOM     11  C   UNL     1       0.111  -4.123   1.619  0.00  0.00    +0.028 A 
ATOM     12  C   UNL     1       1.390  -4.139   0.872  0.00  0.00    +0.153 C 
ATOM     13  N   UNL     1       2.071  -5.187   0.477  0.00  0.00    -0.174 NA
ATOM     14  C   UNL     1       1.728  -2.716   0.665  0.00  0.00    +0.271 C 
ATOM     15  O   UNL     1       2.709  -2.290   0.084  0.00  0.00    -0.268 OA
BRANCH   5  16
ATOM     16  C   UNL     1       0.742  -0.511   1.242  0.00  0.00    +0.114 C 
BRANCH  16  18
ATOM     17  C   UNL     1      -0.019   1.526   0.010  0.00  0.00    +0.005 C 
ATOM     18  C   UNL     1       0.002  -0.004   0.002  0.00  0.00    +0.016 C 
ENDBRANCH  16  18
ENDBRANCH   5  16
ENDBRANCH   1  13
BRANCH   2  19
ATOM     19  C   UNL     1       5.263  -5.916  -1.386  0.00  0.00    +0.223 C 
BRANCH  19  20
ATOM     20  N   UNL     1       5.827  -7.228  -1.712  0.00  0.00    -0.290 N 
ATOM     21  C   UNL     1       6.675  -7.825  -0.835  0.00  0.00    +0.203 A 
ATOM     22  N   UNL     1       7.197  -8.994  -1.089  0.00  0.00    -0.230 NA
ATOM     23  C   UNL     1       6.914  -9.639  -2.218  0.00  0.00    +0.116 A 
ATOM     24  C   UNL     1       6.049  -9.102  -3.185  0.00  0.00    +0.076 A 
ATOM     25  C   UNL     1       5.488  -7.821  -2.872  0.00  0.00    +0.263 A 
ATOM     26  O   UNL     1       4.722  -7.274  -3.647  0.00  0.00    -0.267 OA
ATOM     27  C   UNL     1       5.832  -9.923  -4.376  0.00  0.00    -0.023 A 
ATOM     28  C   UNL     1       6.479 -11.106  -4.430  0.00  0.00    -0.004 A 
ATOM     29  S   UNL     1       7.401 -11.195  -2.919  0.00  0.00    -0.073 S 
ATOM     30  C   UNL     1       6.424 -12.120  -5.531  0.00  0.00    +0.043 C 
ATOM     31  C   UNL     1       5.229 -11.788  -6.437  0.00  0.00    +0.005 C 
ATOM     32  C   UNL     1       5.262 -10.293  -6.765  0.00  0.00    +0.005 C 
ATOM     33  C   UNL     1       4.920  -9.479  -5.517  0.00  0.00    +0.037 C 
ENDBRANCH  19  20
ENDBRANCH   2  19
TORSDOF 5
