REMARK  Name = ZINC05156809
REMARK  7 active torsions:
REMARK  status: ('A' for Active; 'I' for Inactive)
REMARK    1  A    between atoms: C_1  and  C_2
REMARK    2  A    between atoms: C_8  and  C_10
REMARK    3  A    between atoms: N_11  and  N_12
REMARK    4  A    between atoms: C_19  and  O_27
REMARK    5  A    between atoms: O_27  and  C_28
REMARK    6  A    between atoms: C_29  and  C_33
REMARK    7  A    between atoms: C_29  and  C_34
REMARK                            x       y       z     vdW  Elec       q    Type
REMARK                         _______ _______ _______ _____ _____    ______ ____
ROOT
ATOM      1  N   UNL     1       3.360   2.536  -0.018  0.00  0.00    -0.184 N 
ATOM      2  C   UNL     1       2.899   3.814  -0.001  0.00  0.00    +0.227 A 
ATOM      3  N   UNL     1       1.624   4.086   0.012  0.00  0.00    -0.233 NA
ATOM      4  C   UNL     1       0.703   3.106   0.009  0.00  0.00    +0.103 A 
ATOM      5  C   UNL     1      -0.765   3.092   0.020  0.00  0.00    +0.026 A 
ATOM      6  C   UNL     1      -1.736   4.096   0.038  0.00  0.00    +0.016 A 
ATOM      7  C   UNL     1      -3.060   3.764   0.029  0.00  0.00    +0.046 A 
ATOM      8  C   UNL     1      -3.452   2.427   0.016  0.00  0.00    +0.122 A 
ATOM      9  C   UNL     1      -2.506   1.419   0.003  0.00  0.00    +0.072 A 
ATOM     10  C   UNL     1      -1.152   1.740   0.003  0.00  0.00    +0.053 A 
ATOM     11  N   UNL     1      -0.011   0.966  -0.008  0.00  0.00    -0.349 N 
ATOM     12  H   UNL     1       0.002  -0.004  -0.019  0.00  0.00    +0.166 HD
ATOM     13  C   UNL     1       1.111   1.774  -0.008  0.00  0.00    +0.133 A 
ATOM     14  C   UNL     1       2.496   1.497  -0.022  0.00  0.00    +0.298 A 
ATOM     15  O   UNL     1       2.903   0.347  -0.038  0.00  0.00    -0.263 OA
ENDROOT
BRANCH   1  17
ATOM     16  C   UNL     1       5.560   3.271  -0.132  0.00  0.00    +0.110 C 
ATOM     17  N   UNL     1       4.740   2.294  -0.032  0.00  0.00    -0.175 NA
BRANCH  16  24
ATOM     18  C   UNL     1       7.713   5.178   0.795  0.00  0.00    +0.008 C 
ATOM     19  C   UNL     1       7.789   3.654   0.910  0.00  0.00    -0.001 C 
ATOM     20  C   UNL     1       9.241   3.201   0.831  0.00  0.00    +0.034 C 
ATOM     21  C   UNL     1       9.818   3.421  -0.552  0.00  0.00    -0.069 C 
ATOM     22  C   UNL     1       9.078   3.586  -1.606  0.00  0.00    -0.064 C 
ATOM     23  C   UNL     1       7.565   3.629  -1.547  0.00  0.00    +0.040 C 
ATOM     24  C   UNL     1       7.038   3.005  -0.261  0.00  0.00    +0.039 C 
ATOM     25  C   UNL     1       9.655   3.765  -2.995  0.00  0.00    -0.014 C 
ATOM     26  C   UNL     1      11.117   4.190  -2.943  0.00  0.00    +0.011 C 
ATOM     27  C   UNL     1      11.850   3.213  -2.014  0.00  0.00    +0.005 C 
ATOM     28  C   UNL     1      11.332   3.447  -0.600  0.00  0.00    +0.031 C 
ATOM     29  C   UNL     1       9.545   2.443  -3.757  0.00  0.00    +0.015 C 
ATOM     30  C   UNL     1       8.850   4.835  -3.736  0.00  0.00    +0.015 C 
ENDBRANCH  16  24
ENDBRANCH   1  17
BRANCH   8  31
ATOM     31  O   UNL     1      -4.773   2.112   0.016  0.00  0.00    -0.495 OA
ATOM     32  C   UNL     1      -5.700   3.200   0.030  0.00  0.00    +0.277 C 
ENDBRANCH   8  31
TORSDOF 3
