REMARK  Name = ZINC05456935
REMARK  3 active torsions:
REMARK  status: ('A' for Active; 'I' for Inactive)
REMARK    1  A    between atoms: C_4  and  C_7
REMARK    2  A    between atoms: C_9  and  C_13
REMARK    3  A    between atoms: C_19  and  C_22
REMARK                            x       y       z     vdW  Elec       q    Type
REMARK                         _______ _______ _______ _____ _____    ______ ____
ROOT
ATOM      1  C   UNL     1       5.878  -3.637  -0.084  0.00  0.00    +0.206 A 
ATOM      2  N   UNL     1       5.253  -4.798  -0.096  0.00  0.00    -0.125 NA
ATOM      3  N   UNL     1       6.110  -5.765  -0.114  0.00  0.00    -0.120 NA
ATOM      4  C   UNL     1       7.310  -5.281  -0.117  0.00  0.00    +0.213 A 
ATOM      5  N   UNL     1       7.216  -3.904  -0.097  0.00  0.00    -0.185 N 
ATOM      6  N   UNL     1       8.328  -3.069  -0.083  0.00  0.00    -0.166 NA
ATOM      7  C   UNL     1       9.511  -3.435  -0.422  0.00  0.00    +0.079 C 
ATOM      8  C   UNL     1       9.915  -4.787  -0.932  0.00  0.00    +0.135 C 
ATOM      9  S   UNL     1       8.886  -6.076  -0.148  0.00  0.00    -0.078 S 
ENDROOT
BRANCH   7  10
ATOM     10  C   UNL     1      10.579  -2.425  -0.300  0.00  0.00    -0.001 A 
ATOM     11  C   UNL     1      11.892  -2.747  -0.655  0.00  0.00    +0.012 A 
ATOM     12  C   UNL     1      12.886  -1.799  -0.538  0.00  0.00    +0.039 A 
ATOM     13  C   UNL     1      12.586  -0.529  -0.069  0.00  0.00    +0.123 A 
ATOM     14  C   UNL     1      11.286  -0.205   0.286  0.00  0.00    +0.039 A 
ATOM     15  C   UNL     1      10.282  -1.143   0.167  0.00  0.00    +0.012 A 
ATOM     16  F   UNL     1      13.564   0.395   0.044  0.00  0.00    -0.205 F 
ENDBRANCH   7  10
BRANCH   1  19
ATOM     17  C   UNL     1       3.696  -0.686  -0.038  0.00  0.00    +0.066 A 
ATOM     18  C   UNL     1       3.865  -2.039  -0.053  0.00  0.00    +0.061 A 
ATOM     19  C   UNL     1       5.248  -2.299  -0.066  0.00  0.00    +0.132 A 
ATOM     20  N   UNL     1       5.885  -1.145  -0.060  0.00  0.00    -0.170 NA
ATOM     21  N   UNL     1       4.935  -0.116  -0.048  0.00  0.00    -0.276 N 
ATOM     22  H   UNL     1       5.125   0.836  -0.046  0.00  0.00    +0.189 HD
BRANCH  17  26
ATOM     23  C   UNL     1      -0.017   1.379   0.010  0.00  0.00    +0.000 A 
ATOM     24  C   UNL     1       1.168   2.093   0.002  0.00  0.00    +0.001 A 
ATOM     25  C   UNL     1       2.377   1.428  -0.013  0.00  0.00    +0.010 A 
ATOM     26  C   UNL     1       2.403   0.033  -0.021  0.00  0.00    -0.000 A 
ATOM     27  C   UNL     1       1.205  -0.680  -0.013  0.00  0.00    +0.010 A 
ATOM     28  C   UNL     1       0.002  -0.004   0.002  0.00  0.00    +0.001 A 
ENDBRANCH  17  26
ENDBRANCH   1  19
TORSDOF 3
