REMARK  Name = ZINC47070339
REMARK  4 active torsions:
REMARK  status: ('A' for Active; 'I' for Inactive)
REMARK    1  A    between atoms: C_1  and  C_2
REMARK    2  A    between atoms: N_11  and  C_12
REMARK    3  A    between atoms: C_12  and  C_13
REMARK    4  A    between atoms: C_13  and  C_14
REMARK                            x       y       z     vdW  Elec       q    Type
REMARK                         _______ _______ _______ _____ _____    ______ ____
ROOT
ATOM      1  C   UNL     1       2.985   0.835   3.777  0.00  0.00    +0.110 C 
ENDROOT
BRANCH   1  11
ATOM      2  C   UNL     1      -0.017   1.526   0.009  0.00  0.00    +0.028 C 
ATOM      3  C   UNL     1       0.001  -0.004   0.003  0.00  0.00    +0.074 C 
ATOM      4  C   UNL     1      -1.429  -0.535   0.148  0.00  0.00    +0.022 C 
ATOM      5  C   UNL     1      -1.392  -2.059   0.282  0.00  0.00    +0.003 C 
ATOM      6  C   UNL     1      -0.604  -2.444   1.536  0.00  0.00    +0.019 C 
ATOM      7  C   UNL     1       0.835  -1.935   1.406  0.00  0.00    +0.109 C 
ATOM      8  N   UNL     1       0.806  -0.492   1.131  0.00  0.00    -0.283 N 
ATOM      9  C   UNL     1       1.502   0.368   1.901  0.00  0.00    +0.302 C 
ATOM     10  O   UNL     1       1.395   1.567   1.723  0.00  0.00    -0.253 OA
ATOM     11  N   UNL     1       2.316  -0.099   2.868  0.00  0.00    -0.299 N 
ATOM     12  H   UNL     1       2.458  -1.054   2.962  0.00  0.00    +0.150 HD
ENDBRANCH   1  11
BRANCH   1  13
ATOM     13  C   UNL     1       3.843   0.051   4.772  0.00  0.00    +0.057 C 
BRANCH  13  14
ATOM     14  C   UNL     1       4.531   1.012   5.707  0.00  0.00    -0.001 A 
ATOM     15  C   UNL     1       5.816   1.441   5.434  0.00  0.00    +0.045 A 
ATOM     16  C   UNL     1       6.448   2.322   6.293  0.00  0.00    +0.124 A 
ATOM     17  C   UNL     1       5.795   2.774   7.428  0.00  0.00    +0.047 A 
ATOM     18  C   UNL     1       4.510   2.346   7.704  0.00  0.00    +0.023 A 
ATOM     19  C   UNL     1       3.872   1.469   6.840  0.00  0.00    +0.132 A 
ATOM     20  O   UNL     1       2.603   1.051   7.093  0.00  0.00    -0.466 OA
ATOM     21  C   UNL     1       2.109   1.250   8.420  0.00  0.00    +0.394 C 
ATOM     22  O   UNL     1       2.403   2.594   8.820  0.00  0.00    -0.339 OA
ATOM     23  C   UNL     1       3.810   2.840   8.944  0.00  0.00    +0.202 C 
ATOM     24  F   UNL     1       7.704   2.742   6.025  0.00  0.00    -0.205 F 
ENDBRANCH  13  14
ENDBRANCH   1  13
TORSDOF 3
