REMARK  Name = ZINC09833845
REMARK  7 active torsions:
REMARK  status: ('A' for Active; 'I' for Inactive)
REMARK    1  A    between atoms: C_1  and  C_2
REMARK    2  A    between atoms: C_2  and  C_4
REMARK    3  A    between atoms: C_2  and  N_14
REMARK    4  A    between atoms: C_15  and  C_17
REMARK    5  A    between atoms: C_17  and  N_18
REMARK    6  A    between atoms: C_21  and  C_26
REMARK    7  A    between atoms: C_26  and  C_27
REMARK                            x       y       z     vdW  Elec       q    Type
REMARK                         _______ _______ _______ _____ _____    ______ ____
ROOT
ATOM      1  N   UNL     1      -7.786  -2.000   6.259  0.00  0.00    -0.216 N 
ATOM      2  C   UNL     1      -7.112  -2.904   6.996  0.00  0.00    +0.244 C 
ATOM      3  O   UNL     1      -6.160  -3.569   6.649  0.00  0.00    -0.273 OA
ATOM      4  C   UNL     1      -7.790  -2.915   8.352  0.00  0.00    +0.165 C 
ATOM      5  N   UNL     1      -8.874  -1.928   8.205  0.00  0.00    -0.287 N 
ATOM      6  C   UNL     1      -8.790  -1.449   6.951  0.00  0.00    +0.310 C 
ATOM      7  O   UNL     1      -9.542  -0.609   6.497  0.00  0.00    -0.252 OA
ATOM      8  H   UNL     1      -9.521  -1.673   8.881  0.00  0.00    +0.151 HD
ENDROOT
BRANCH   1   9
ATOM      9  C   UNL     1      -7.463  -1.666   4.870  0.00  0.00    +0.213 C 
BRANCH   9  11
ATOM     10  N   UNL     1      -6.035  -0.045   3.664  0.00  0.00    -0.307 N 
ATOM     11  C   UNL     1      -6.479  -0.525   4.843  0.00  0.00    +0.231 C 
ATOM     12  O   UNL     1      -6.086  -0.039   5.882  0.00  0.00    -0.274 OA
ATOM     13  H   UNL     1      -6.350  -0.434   2.833  0.00  0.00    +0.149 HD
BRANCH  10  15
ATOM     14  C   UNL     1      -5.834   2.392   3.727  0.00  0.00    +0.033 C 
ATOM     15  C   UNL     1      -5.079   1.064   3.638  0.00  0.00    +0.100 C 
BRANCH  15  16
ATOM     16  C   UNL     1      -4.292   1.019   2.353  0.00  0.00    -0.027 A 
ATOM     17  C   UNL     1      -4.922   0.699   1.165  0.00  0.00    +0.006 A 
ATOM     18  C   UNL     1      -4.195   0.657  -0.006  0.00  0.00    +0.004 A 
ATOM     19  C   UNL     1      -2.834   0.934  -0.003  0.00  0.00    -0.044 A 
ATOM     20  C   UNL     1      -2.208   1.257   1.180  0.00  0.00    -0.044 A 
ATOM     21  C   UNL     1      -2.941   1.296   2.359  0.00  0.00    +0.009 A 
ATOM     22  C   UNL     1      -0.738   1.584   1.256  0.00  0.00    +0.035 C 
ATOM     23  C   UNL     1      -0.013   1.086   0.008  0.00  0.00    +0.005 C 
ATOM     24  C   UNL     1      -0.765   1.599  -1.226  0.00  0.00    +0.005 C 
ATOM     25  C   UNL     1      -2.100   0.864  -1.316  0.00  0.00    +0.035 C 
ENDBRANCH  15  16
ENDBRANCH  10  15
ENDBRANCH   9  11
ENDBRANCH   1   9
BRANCH   4  26
ATOM     26  C   UNL     1      -8.362  -4.302   8.652  0.00  0.00    +0.069 C 
BRANCH  26  27
ATOM     27  C   UNL     1      -9.019  -4.292  10.008  0.00  0.00    -0.020 A 
ATOM     28  C   UNL     1      -8.458  -4.663  11.170  0.00  0.00    +0.087 A 
ATOM     29  N   UNL     1      -9.358  -4.517  12.190  0.00  0.00    -0.360 N 
ATOM     30  H   UNL     1      -9.182  -4.722  13.122  0.00  0.00    +0.165 HD
ATOM     31  C   UNL     1     -10.551  -4.037  11.697  0.00  0.00    +0.047 A 
ATOM     32  C   UNL     1     -10.389  -3.869  10.310  0.00  0.00    +0.003 A 
ATOM     33  C   UNL     1     -11.450  -3.394   9.537  0.00  0.00    +0.010 A 
ATOM     34  C   UNL     1     -12.639  -3.085  10.135  0.00  0.00    +0.001 A 
ATOM     35  C   UNL     1     -12.802  -3.243  11.504  0.00  0.00    +0.002 A 
ATOM     36  C   UNL     1     -11.770  -3.715  12.285  0.00  0.00    +0.026 A 
ENDBRANCH  26  27
ENDBRANCH   4  26
TORSDOF 6
