REMARK  Name = ZINC63710338
REMARK  6 active torsions:
REMARK  status: ('A' for Active; 'I' for Inactive)
REMARK    1  A    between atoms: C_7  and  N_15
REMARK    2  A    between atoms: C_9  and  C_12
REMARK    3  A    between atoms: C_16  and  C_18
REMARK    4  A    between atoms: N_20  and  C_21
REMARK    5  A    between atoms: C_21  and  C_22
REMARK    6  A    between atoms: C_22  and  C_23
REMARK                            x       y       z     vdW  Elec       q    Type
REMARK                         _______ _______ _______ _____ _____    ______ ____
ROOT
ATOM      1  N   UNL     1       0.735  -2.857  -1.043  0.00  0.00    -0.297 N 
ATOM      2  C   UNL     1      -0.486  -3.322  -0.714  0.00  0.00    +0.300 C 
ATOM      3  O   UNL     1      -0.915  -3.160   0.410  0.00  0.00    -0.265 OA
ATOM      4  H   UNL     1       1.077  -2.986  -1.941  0.00  0.00    +0.150 HD
ENDROOT
BRANCH   1  11
ATOM      5  C   UNL     1      -0.017   1.379   0.010  0.00  0.00    +0.001 A 
ATOM      6  C   UNL     1       1.174   2.082   0.002  0.00  0.00    +0.004 A 
ATOM      7  C   UNL     1       2.379   1.411  -0.008  0.00  0.00    +0.046 A 
ATOM      8  C   UNL     1       2.407   0.019  -0.013  0.00  0.00    +0.127 A 
ATOM      9  C   UNL     1       1.204  -0.676  -0.014  0.00  0.00    +0.019 A 
ATOM     10  C   UNL     1       0.002  -0.004   0.002  0.00  0.00    +0.009 A 
ATOM     11  C   UNL     1       1.545  -2.154  -0.045  0.00  0.00    +0.157 C 
ATOM     12  C   UNL     1       3.035  -2.130  -0.458  0.00  0.00    +0.283 C 
ATOM     13  O   UNL     1       3.469  -0.834  -0.012  0.00  0.00    -0.477 OA
BRANCH  12  14
ATOM     14  C   UNL     1       3.801  -3.223   0.242  0.00  0.00    +0.253 C 
ATOM     15  O   UNL     1       4.671  -2.940   1.038  0.00  0.00    -0.272 OA
ATOM     16  N   UNL     1       3.519  -4.515  -0.017  0.00  0.00    -0.326 N 
ATOM     17  H   UNL     1       2.823  -4.742  -0.653  0.00  0.00    +0.145 HD
ATOM     18  H   UNL     1       4.011  -5.219   0.434  0.00  0.00    +0.145 HD
ENDBRANCH  12  14
ENDBRANCH   1  11
BRANCH   2  19
ATOM     19  C   UNL     1      -1.312  -4.040  -1.732  0.00  0.00    +0.299 C 
ATOM     20  O   UNL     1      -0.883  -4.202  -2.855  0.00  0.00    -0.265 OA
ATOM     21  N   UNL     1      -2.533  -4.506  -1.402  0.00  0.00    -0.307 N 
ATOM     22  H   UNL     1      -2.876  -4.376  -0.504  0.00  0.00    +0.149 HD
BRANCH  21  23
ATOM     23  C   UNL     1      -3.343  -5.209  -2.400  0.00  0.00    +0.109 C 
BRANCH  23  24
ATOM     24  C   UNL     1      -4.673  -5.630  -1.773  0.00  0.00    +0.052 C 
BRANCH  24  25
ATOM     25  C   UNL     1      -5.506  -6.353  -2.800  0.00  0.00    -0.040 C 
ATOM     26  C   UNL     1      -5.589  -7.690  -2.984  0.00  0.00    -0.001 A 
ATOM     27  C   UNL     1      -4.953  -8.828  -2.310  0.00  0.00    +0.010 A 
ATOM     28  C   UNL     1      -5.239 -10.082  -2.728  0.00  0.00    +0.001 A 
ATOM     29  C   UNL     1      -6.126 -10.322  -3.787  0.00  0.00    +0.002 A 
ATOM     30  C   UNL     1      -6.749  -9.328  -4.455  0.00  0.00    +0.026 A 
ATOM     31  C   UNL     1      -6.522  -7.970  -4.099  0.00  0.00    +0.043 A 
ATOM     32  N   UNL     1      -6.997  -6.849  -4.585  0.00  0.00    -0.380 N 
ATOM     33  C   UNL     1      -6.423  -5.730  -3.829  0.00  0.00    +0.144 C 
ATOM     34  H   UNL     1      -7.626  -6.772  -5.320  0.00  0.00    +0.160 HD
ENDBRANCH  24  25
ENDBRANCH  23  24
ENDBRANCH  21  23
ENDBRANCH   2  19
TORSDOF 6
