REMARK  Name = ZINC20600085
REMARK  7 active torsions:
REMARK  status: ('A' for Active; 'I' for Inactive)
REMARK    1  A    between atoms: C_1  and  C_2
REMARK    2  A    between atoms: C_5  and  C_8
REMARK    3  A    between atoms: C_8  and  C_13
REMARK    4  A    between atoms: C_15  and  C_18
REMARK    5  A    between atoms: C_18  and  N_19
REMARK    6  A    between atoms: C_22  and  C_25
REMARK    7  A    between atoms: C_22  and  N_28
REMARK                            x       y       z     vdW  Elec       q    Type
REMARK                         _______ _______ _______ _____ _____    ______ ____
ROOT
ATOM      1  C   UNL     1      -4.526  -2.750   0.715  0.00  0.00    +0.183 C 
ENDROOT
BRANCH   1   2
ATOM      2  N   UNL     1      -3.192  -2.137   0.726  0.00  0.00    -0.294 NA
ATOM      3  C   UNL     1      -2.428  -2.518  -0.468  0.00  0.00    +0.084 C 
ATOM      4  C   UNL     1      -0.998  -1.982  -0.354  0.00  0.00    +0.013 C 
ATOM      5  C   UNL     1      -1.039  -0.458  -0.216  0.00  0.00    +0.015 C 
ATOM      6  C   UNL     1      -1.881  -0.086   1.008  0.00  0.00    +0.013 C 
ATOM      7  C   UNL     1      -3.285  -0.677   0.854  0.00  0.00    +0.084 C 
BRANCH   5   8
ATOM      8  N   UNL     1       0.326   0.057  -0.046  0.00  0.00    +0.389 N 
ATOM      9  C   UNL     1       0.333   1.524   0.004  0.00  0.00    -0.077 C 
ATOM     10  C   UNL     1       1.778   2.028   0.034  0.00  0.00    -0.019 C 
ATOM     11  C   UNL     1       2.489   1.453   1.262  0.00  0.00    -0.004 C 
ATOM     12  C   UNL     1       2.425  -0.076   1.210  0.00  0.00    -0.019 C 
ATOM     13  C   UNL     1       0.962  -0.519   1.146  0.00  0.00    -0.077 C 
ATOM     14  H   UNL     1       0.916  -0.251  -0.922  0.00  0.00    -0.080 HD
ENDBRANCH   5   8
BRANCH   5  15
ATOM     15  C   UNL     1      -1.654   0.144  -1.453  0.00  0.00    +0.200 C 
ATOM     16  O   UNL     1      -2.822   0.471  -1.452  0.00  0.00    -0.278 OA
ATOM     17  N   UNL     1      -0.907   0.317  -2.561  0.00  0.00    -0.330 N 
ATOM     18  H   UNL     1      -1.356   0.756  -3.464  0.00  0.00    +0.145 HD
ATOM     19  H   UNL     1       0.152   0.020  -2.562  0.00  0.00    +0.145 HD
ENDBRANCH   5  15
ENDBRANCH   1   2
BRANCH   1  22
ATOM     20  C   UNL     1      -6.300  -1.770   3.679  0.00  0.00    +0.182 A 
ATOM     21  N   UNL     1      -5.936  -1.528   2.407  0.00  0.00    -0.194 NA
ATOM     22  C   UNL     1      -5.185  -2.543   2.055  0.00  0.00    +0.241 A 
ATOM     23  O   UNL     1      -5.112  -3.357   3.112  0.00  0.00    -0.337 OA
ATOM     24  N   UNL     1      -5.756  -2.897   4.031  0.00  0.00    -0.060 NA
BRANCH  20  25
ATOM     25  C   UNL     1      -7.174  -0.895   4.539  0.00  0.00    +0.059 C 
ATOM     26  C   UNL     1      -6.500   0.476   4.755  0.00  0.00    +0.019 C 
ATOM     27  C   UNL     1      -6.853   0.847   6.216  0.00  0.00    +0.001 C 
ATOM     28  C   UNL     1      -6.766  -0.516   6.946  0.00  0.00    +0.001 C 
ATOM     29  C   UNL     1      -7.344  -1.526   5.932  0.00  0.00    +0.019 C 
BRANCH  25  34
ATOM     30  C   UNL     1     -12.338  -0.192   2.042  0.00  0.00    +0.044 C 
ATOM     31  C   UNL     1     -10.991  -0.374   2.693  0.00  0.00    -0.050 A 
ATOM     32  C   UNL     1     -10.681   0.320   3.848  0.00  0.00    +0.003 A 
ATOM     33  C   UNL     1      -9.446   0.151   4.445  0.00  0.00    +0.005 A 
ATOM     34  C   UNL     1      -8.521  -0.711   3.888  0.00  0.00    -0.034 A 
ATOM     35  C   UNL     1      -8.829  -1.401   2.730  0.00  0.00    +0.005 A 
ATOM     36  C   UNL     1     -10.066  -1.236   2.135  0.00  0.00    +0.003 A 
ENDBRANCH  25  34
ENDBRANCH  20  25
ENDBRANCH   1  22
TORSDOF 6
