REMARK  Name = ZINC13207547
REMARK  7 active torsions:
REMARK  status: ('A' for Active; 'I' for Inactive)
REMARK    1  A    between atoms: C_1  and  N_2
REMARK    2  A    between atoms: C_6  and  C_17
REMARK    3  A    between atoms: C_7  and  C_9
REMARK    4  A    between atoms: C_12  and  O_15
REMARK    5  A    between atoms: O_15  and  C_16
REMARK    6  A    between atoms: C_20  and  O_23
REMARK    7  A    between atoms: O_23  and  C_24
REMARK                            x       y       z     vdW  Elec       q    Type
REMARK                         _______ _______ _______ _____ _____    ______ ____
ROOT
ATOM      1  C   UNL     1      -5.644   3.593  -0.536  0.00  0.00    +0.128 C 
ATOM      2  N   UNL     1      -4.680   2.538  -0.861  0.00  0.00    -0.318 N 
ATOM      3  C   UNL     1      -3.386   2.612  -0.378  0.00  0.00    +0.194 A 
ATOM      4  N   UNL     1      -2.893   3.610   0.405  0.00  0.00    -0.326 N 
ATOM      5  H   UNL     1      -3.394   4.412   0.731  0.00  0.00    +0.169 HD
ATOM      6  C   UNL     1      -1.569   3.307   0.667  0.00  0.00    +0.075 A 
ATOM      7  C   UNL     1      -1.308   2.116   0.020  0.00  0.00    +0.098 A 
ATOM      8  N   UNL     1      -2.440   1.734  -0.606  0.00  0.00    -0.214 NA
ATOM      9  H   UNL     1      -4.949   1.789  -1.414  0.00  0.00    +0.149 HD
ENDROOT
BRANCH   7  10
ATOM     10  C   UNL     1      -0.017   1.391   0.010  0.00  0.00    +0.003 A 
ATOM     11  C   UNL     1       1.184   2.101   0.002  0.00  0.00    +0.013 A 
ATOM     12  C   UNL     1       2.384   1.423  -0.013  0.00  0.00    +0.046 A 
ATOM     13  C   UNL     1       2.399   0.035  -0.021  0.00  0.00    +0.120 A 
ATOM     14  C   UNL     1       1.206  -0.675  -0.013  0.00  0.00    +0.046 A 
ATOM     15  C   UNL     1       0.002  -0.004   0.002  0.00  0.00    +0.013 A 
BRANCH  13  16
ATOM     16  O   UNL     1       3.584  -0.630  -0.035  0.00  0.00    -0.495 OA
ATOM     17  C   UNL     1       4.773   0.163  -0.043  0.00  0.00    +0.277 C 
ENDBRANCH  13  16
ENDBRANCH   7  10
BRANCH   6  18
ATOM     18  C   UNL     1      -0.623   4.100   1.476  0.00  0.00    +0.001 A 
ATOM     19  C   UNL     1       0.198   3.469   2.413  0.00  0.00    +0.013 A 
ATOM     20  C   UNL     1       1.084   4.213   3.163  0.00  0.00    +0.046 A 
ATOM     21  C   UNL     1       1.153   5.590   2.995  0.00  0.00    +0.120 A 
ATOM     22  C   UNL     1       0.335   6.222   2.068  0.00  0.00    +0.046 A 
ATOM     23  C   UNL     1      -0.550   5.486   1.310  0.00  0.00    +0.013 A 
BRANCH  21  24
ATOM     24  O   UNL     1       2.023   6.320   3.740  0.00  0.00    -0.495 OA
ATOM     25  C   UNL     1       2.835   5.606   4.675  0.00  0.00    +0.277 C 
ENDBRANCH  21  24
ENDBRANCH   6  18
TORSDOF 4
