REMARK  Name = ZINC20757134
REMARK  7 active torsions:
REMARK  status: ('A' for Active; 'I' for Inactive)
REMARK    1  A    between atoms: C_1  and  C_2
REMARK    2  A    between atoms: C_2  and  C_3
REMARK    3  A    between atoms: C_2  and  N_4
REMARK    4  A    between atoms: C_7  and  C_13
REMARK    5  A    between atoms: C_20  and  O_21
REMARK    6  A    between atoms: O_21  and  C_22
REMARK    7  A    between atoms: N_28  and  C_29
REMARK                            x       y       z     vdW  Elec       q    Type
REMARK                         _______ _______ _______ _____ _____    ______ ____
ROOT
ATOM      1  C   UNL     1      -2.360   1.066   1.017  0.00  0.00    +0.008 C 
ATOM      2  C   UNL     1      -3.291   1.325   2.172  0.00  0.00    -0.008 A 
ATOM      3  C   UNL     1      -2.822   1.529   3.453  0.00  0.00    -0.040 A 
ATOM      4  C   UNL     1      -3.714   1.752   4.490  0.00  0.00    +0.053 A 
ATOM      5  C   UNL     1      -5.078   1.775   4.252  0.00  0.00    +0.170 A 
ATOM      6  C   UNL     1      -5.556   1.574   2.962  0.00  0.00    +0.208 A 
ATOM      7  C   UNL     1      -4.660   1.350   1.925  0.00  0.00    +0.167 A 
ATOM      8  O   UNL     1      -6.920   1.643   2.985  0.00  0.00    -0.449 OA
ATOM      9  C   UNL     1      -7.289   1.482   4.367  0.00  0.00    +0.467 C 
ATOM     10  O   UNL     1      -6.142   1.970   5.086  0.00  0.00    -0.452 OA
ATOM     11  C   UNL     1      -1.347   1.518   3.766  0.00  0.00    +0.017 C 
ATOM     12  C   UNL     1      -0.577   0.854   2.624  0.00  0.00    -0.073 C 
ATOM     13  N   UNL     1      -0.993   1.474   1.357  0.00  0.00    +0.386 N 
ATOM     14  C   UNL     1      -0.059   1.138   0.274  0.00  0.00    -0.095 C 
ATOM     15  H   UNL     1      -0.981   2.567   1.481  0.00  0.00    -0.081 HD
ENDROOT
BRANCH   1  19
ATOM     16  N   UNL     1      -3.221   3.935  -1.258  0.00  0.00    -0.286 N 
ATOM     17  C   UNL     1      -2.799   3.254  -0.174  0.00  0.00    +0.260 A 
ATOM     18  O   UNL     1      -2.393   3.853   0.807  0.00  0.00    -0.267 OA
ATOM     19  C   UNL     1      -2.828   1.848  -0.183  0.00  0.00    +0.072 A 
ATOM     20  C   UNL     1      -3.282   1.203  -1.295  0.00  0.00    +0.258 A 
ATOM     21  N   UNL     1      -3.707   1.934  -2.374  0.00  0.00    -0.302 N 
ATOM     22  C   UNL     1      -3.670   3.279  -2.344  0.00  0.00    +0.164 A 
ATOM     23  S   UNL     1      -4.202   4.169  -3.707  0.00  0.00    -0.013 S 
ATOM     24  O   UNL     1      -3.316  -0.146  -1.332  0.00  0.00    -0.267 OA
ATOM     25  H   UNL     1      -4.082   1.422  -3.273  0.00  0.00    +0.171 HD
BRANCH  16  27
ATOM     26  C   UNL     1      -4.044   5.924  -0.097  0.00  0.00    +0.031 C 
ATOM     27  C   UNL     1      -3.192   5.400  -1.254  0.00  0.00    +0.086 C 
ATOM     28  C   UNL     1      -1.749   5.880  -1.083  0.00  0.00    +0.031 C 
ENDBRANCH  16  27
ENDBRANCH   1  19
BRANCH   7  29
ATOM     29  O   UNL     1      -5.123   1.153   0.662  0.00  0.00    -0.491 OA
ATOM     30  C   UNL     1      -5.406  -0.194   0.278  0.00  0.00    +0.277 C 
ENDBRANCH   7  29
TORSDOF 3
