REMARK  Name = ZINC03109882
REMARK  3 active torsions:
REMARK  status: ('A' for Active; 'I' for Inactive)
REMARK    1  A    between atoms: C_4  and  C_7
REMARK    2  A    between atoms: C_20  and  C_31
REMARK    3  A    between atoms: C_23  and  C_25
REMARK                            x       y       z     vdW  Elec       q    Type
REMARK                         _______ _______ _______ _____ _____    ______ ____
ROOT
ATOM      1  C   UNL     1      -0.241   4.229   0.374  0.00  0.00    +0.154 C 
ATOM      2  C   UNL     1      -0.880   3.291  -0.625  0.00  0.00    +0.046 A 
ATOM      3  C   UNL     1      -1.214   3.656  -1.882  0.00  0.00    -0.015 A 
ATOM      4  C   UNL     1      -1.797   2.493  -2.519  0.00  0.00    +0.003 A 
ATOM      5  C   UNL     1      -2.318   2.274  -3.798  0.00  0.00    +0.010 A 
ATOM      6  C   UNL     1      -2.799   1.016  -4.065  0.00  0.00    +0.001 A 
ATOM      7  C   UNL     1      -2.774   0.003  -3.121  0.00  0.00    +0.002 A 
ATOM      8  C   UNL     1      -2.265   0.191  -1.848  0.00  0.00    +0.026 A 
ATOM      9  C   UNL     1      -1.770   1.459  -1.548  0.00  0.00    +0.047 A 
ATOM     10  N   UNL     1      -1.208   1.978  -0.417  0.00  0.00    -0.356 N 
ATOM     11  H   UNL     1      -1.063   1.490   0.408  0.00  0.00    +0.166 HD
ATOM     12  C   UNL     1      -0.996   5.029  -2.465  0.00  0.00    +0.071 C 
ATOM     13  C   UNL     1      -0.771   6.026  -1.321  0.00  0.00    +0.195 C 
ATOM     14  N   UNL     1       0.171   5.440  -0.356  0.00  0.00    -0.271 N 
ATOM     15  C   UNL     1       1.381   5.997  -0.145  0.00  0.00    +0.248 C 
ATOM     16  O   UNL     1       2.277   5.335   0.341  0.00  0.00    -0.270 OA
ENDROOT
BRANCH   1  20
ATOM     17  C   UNL     1       3.178   2.368   2.134  0.00  0.00    +0.000 A 
ATOM     18  C   UNL     1       2.377   3.201   2.893  0.00  0.00    +0.000 A 
ATOM     19  C   UNL     1       1.272   3.805   2.323  0.00  0.00    +0.006 A 
ATOM     20  C   UNL     1       0.964   3.571   0.996  0.00  0.00    -0.021 A 
ATOM     21  C   UNL     1       1.761   2.733   0.238  0.00  0.00    +0.006 A 
ATOM     22  C   UNL     1       2.867   2.130   0.808  0.00  0.00    +0.000 A 
ENDBRANCH   1  20
BRANCH  15  23
ATOM     23  C   UNL     1       1.617   7.411  -0.505  0.00  0.00    +0.037 A 
ATOM     24  C   UNL     1       1.388   8.420   0.431  0.00  0.00    +0.013 A 
ATOM     25  C   UNL     1       1.614   9.738   0.090  0.00  0.00    +0.001 A 
ATOM     26  C   UNL     1       2.057  10.060  -1.181  0.00  0.00    +0.000 A 
ATOM     27  C   UNL     1       2.281   9.065  -2.115  0.00  0.00    +0.001 A 
ATOM     28  C   UNL     1       2.064   7.743  -1.785  0.00  0.00    +0.013 A 
ENDBRANCH  15  23
BRANCH  13  29
ATOM     29  C   UNL     1      -0.198   7.307  -1.872  0.00  0.00    +0.376 C 
ATOM     30  O   UNL     1       0.351   7.310  -2.948  0.00  0.00    -0.244 OA
ATOM     31  O   UNL     1      -0.298   8.444  -1.166  0.00  0.00    -0.244 OA
ENDBRANCH  13  29
TORSDOF 3
