REMARK  Name = ZINC28217065
REMARK  8 active torsions:
REMARK  status: ('A' for Active; 'I' for Inactive)
REMARK    1  A    between atoms: C_1  and  C_2
REMARK    2  A    between atoms: C_6  and  C_31
REMARK    3  A    between atoms: C_7  and  N_8
REMARK    4  A    between atoms: C_9  and  C_30
REMARK    5  A    between atoms: C_11  and  C_14
REMARK    6  A    between atoms: C_12  and  C_13
REMARK    7  A    between atoms: N_15  and  N_16
REMARK    8  A    between atoms: C_17  and  C_19
REMARK                            x       y       z     vdW  Elec       q    Type
REMARK                         _______ _______ _______ _____ _____    ______ ____
ROOT
ATOM      1  C   UNL     1      -1.567   1.576   5.284  0.00  0.00    +0.140 C 
ATOM      2  N   UNL     1      -2.857   1.481   5.174  0.00  0.00    -0.188 NA
ENDROOT
BRANCH   1   6
ATOM      3  N   UNL     1       0.025  -0.013   2.419  0.00  0.00    -0.317 N 
ATOM      4  C   UNL     1       1.144   0.394   3.087  0.00  0.00    +0.022 A 
ATOM      5  C   UNL     1       0.772   1.026   4.215  0.00  0.00    +0.032 A 
ATOM      6  C   UNL     1      -0.694   1.006   4.243  0.00  0.00    +0.016 A 
ATOM      7  C   UNL     1      -1.089   0.356   3.108  0.00  0.00    +0.030 A 
ATOM      8  C   UNL     1      -2.513   0.092   2.692  0.00  0.00    +0.064 C 
ATOM      9  C   UNL     1       2.564   0.172   2.634  0.00  0.00    +0.064 C 
BRANCH   3  16
ATOM     10  C   UNL     1      -0.018   1.503   0.010  0.00  0.00    +0.046 C 
ATOM     11  C   UNL     1       0.002  -0.004   0.002  0.00  0.00    -0.026 A 
ATOM     12  C   UNL     1       0.006  -0.689  -1.198  0.00  0.00    +0.005 A 
ATOM     13  C   UNL     1       0.025  -2.071  -1.206  0.00  0.00    +0.001 A 
ATOM     14  C   UNL     1       0.040  -2.773  -0.014  0.00  0.00    +0.005 A 
ATOM     15  C   UNL     1       0.036  -2.094   1.188  0.00  0.00    -0.026 A 
ATOM     16  C   UNL     1       0.023  -0.705   1.200  0.00  0.00    +0.052 A 
ATOM     17  C   UNL     1       0.052  -2.859   2.487  0.00  0.00    +0.046 C 
ENDBRANCH   3  16
ENDBRANCH   1   6
BRANCH   2  18
ATOM     18  N   UNL     1      -3.686   2.023   6.164  0.00  0.00    -0.204 N 
ATOM     19  C   UNL     1      -5.025   1.924   6.050  0.00  0.00    +0.276 C 
ATOM     20  O   UNL     1      -5.513   1.365   5.090  0.00  0.00    -0.270 OA
ATOM     21  H   UNL     1      -3.297   2.470   6.932  0.00  0.00    +0.177 HD
BRANCH  19  22
ATOM     22  C   UNL     1      -5.918   2.507   7.115  0.00  0.00    +0.297 C 
ATOM     23  C   UNL     1      -5.714   1.748   8.433  0.00  0.00    +0.283 C 
ATOM     24  O   UNL     1      -6.585   2.317   9.417  0.00  0.00    -0.484 OA
ATOM     25  C   UNL     1      -7.873   2.541   9.038  0.00  0.00    +0.162 A 
ATOM     26  C   UNL     1      -8.844   2.739  10.009  0.00  0.00    +0.049 A 
ATOM     27  C   UNL     1     -10.155   2.970   9.639  0.00  0.00    +0.004 A 
ATOM     28  C   UNL     1     -10.503   3.004   8.302  0.00  0.00    +0.004 A 
ATOM     29  C   UNL     1      -9.541   2.805   7.330  0.00  0.00    +0.049 A 
ATOM     30  C   UNL     1      -8.223   2.571   7.694  0.00  0.00    +0.163 A 
ATOM     31  O   UNL     1      -7.288   2.370   6.725  0.00  0.00    -0.472 OA
ENDBRANCH  19  22
ENDBRANCH   2  18
TORSDOF 4
