REMARK  Name = ZINC33070989
REMARK  4 active torsions:
REMARK  status: ('A' for Active; 'I' for Inactive)
REMARK    1  A    between atoms: C_14  and  C_17
REMARK    2  A    between atoms: N_19  and  C_20
REMARK    3  A    between atoms: C_20  and  C_21
REMARK    4  A    between atoms: C_21  and  C_22
REMARK                            x       y       z     vdW  Elec       q    Type
REMARK                         _______ _______ _______ _____ _____    ______ ____
ROOT
ATOM      1  C   UNL     1      -1.216   1.751   0.017  0.00  0.00    +0.002 A 
ATOM      2  C   UNL     1      -1.243   3.138   0.030  0.00  0.00    +0.002 A 
ATOM      3  C   UNL     1      -0.071   3.860   0.023  0.00  0.00    +0.028 A 
ATOM      4  C   UNL     1       1.156   3.191   0.008  0.00  0.00    +0.065 A 
ATOM      5  C   UNL     1       1.178   1.787   0.000  0.00  0.00    +0.065 A 
ATOM      6  C   UNL     1      -0.013   1.076   0.008  0.00  0.00    +0.028 A 
ATOM      7  N   UNL     1       2.514   1.423  -0.014  0.00  0.00    -0.327 N 
ATOM      8  H   UNL     1       2.794   0.359  -0.022  0.00  0.00    +0.169 HD
ATOM      9  C   UNL     1       3.248   2.574  -0.015  0.00  0.00    +0.174 A 
ATOM     10  N   UNL     1       2.448   3.611  -0.002  0.00  0.00    -0.327 N 
ATOM     11  N   UNL     1       4.625   2.636  -0.028  0.00  0.00    -0.303 N 
ATOM     12  C   UNL     1       5.197   1.883   1.096  0.00  0.00    +0.108 C 
ATOM     13  C   UNL     1       6.721   1.851   0.968  0.00  0.00    +0.032 C 
ATOM     14  C   UNL     1       7.258   3.285   0.965  0.00  0.00    +0.078 C 
ATOM     15  C   UNL     1       6.611   4.062  -0.185  0.00  0.00    +0.032 C 
ATOM     16  C   UNL     1       5.090   4.029  -0.024  0.00  0.00    +0.108 C 
ATOM     17  H   UNL     1       2.677   4.688   0.002  0.00  0.00    +0.169 HD
ENDROOT
BRANCH  14  18
ATOM     18  C   UNL     1       8.754   3.264   0.780  0.00  0.00    +0.216 C 
ATOM     19  O   UNL     1       9.254   3.815  -0.178  0.00  0.00    -0.276 OA
ATOM     20  N   UNL     1       9.535   2.633   1.678  0.00  0.00    -0.315 N 
ATOM     21  H   UNL     1       9.081   2.133   2.547  0.00  0.00    +0.149 HD
BRANCH  20  22
ATOM     22  C   UNL     1      10.989   2.612   1.498  0.00  0.00    +0.109 C 
BRANCH  22  23
ATOM     23  C   UNL     1      11.634   1.836   2.648  0.00  0.00    +0.056 C 
BRANCH  23  24
ATOM     24  C   UNL     1      13.130   1.815   2.463  0.00  0.00    -0.021 A 
ATOM     25  C   UNL     1      13.848   0.844   1.877  0.00  0.00    +0.087 A 
ATOM     26  N   UNL     1      15.176   1.173   1.892  0.00  0.00    -0.360 N 
ATOM     27  H   UNL     1      15.916   0.489   1.451  0.00  0.00    +0.165 HD
ATOM     28  C   UNL     1      15.349   2.395   2.504  0.00  0.00    +0.047 A 
ATOM     29  C   UNL     1      14.074   2.853   2.883  0.00  0.00    +0.004 A 
ATOM     30  C   UNL     1      13.941   4.078   3.539  0.00  0.00    +0.030 A 
ATOM     31  C   UNL     1      15.060   4.837   3.801  0.00  0.00    +0.042 A 
ATOM     32  C   UNL     1      16.318   4.386   3.421  0.00  0.00    +0.022 A 
ATOM     33  C   UNL     1      16.466   3.177   2.778  0.00  0.00    +0.027 A 
ATOM     34 CL   UNL     1      14.899   6.364   4.610  0.00  0.00    -0.084 Cl
ENDBRANCH  23  24
ENDBRANCH  22  23
ENDBRANCH  20  22
ENDBRANCH  14  18
TORSDOF 4
