REMARK  Name = ZINC65021745
REMARK  4 active torsions:
REMARK  status: ('A' for Active; 'I' for Inactive)
REMARK    1  A    between atoms: C_6  and  N_7
REMARK    2  A    between atoms: N_7  and  S_8
REMARK    3  A    between atoms: S_8  and  C_11
REMARK    4  A    between atoms: C_20  and  C_23
REMARK                            x       y       z     vdW  Elec       q    Type
REMARK                         _______ _______ _______ _____ _____    ______ ____
ROOT
ATOM      1  C   UNL     1      -2.829  -2.932  -0.014  0.00  0.00    +0.112 A 
ATOM      2  C   UNL     1      -3.462  -3.146   1.197  0.00  0.00    +0.030 A 
ATOM      3  C   UNL     1      -4.779  -3.566   1.221  0.00  0.00    +0.018 A 
ATOM      4  C   UNL     1      -5.458  -3.776   0.033  0.00  0.00    +0.030 A 
ATOM      5  C   UNL     1      -4.825  -3.570  -1.192  0.00  0.00    +0.049 A 
ATOM      6  C   UNL     1      -3.503  -3.135  -1.202  0.00  0.00    +0.053 A 
ATOM      7  N   UNL     1      -5.474  -3.793  -2.403  0.00  0.00    -0.283 N 
ATOM      8  C   UNL     1      -6.596  -4.483  -2.586  0.00  0.00    +0.240 C 
ATOM      9  O   UNL     1      -7.093  -4.491  -3.692  0.00  0.00    -0.274 OA
ATOM     10  C   UNL     1      -7.279  -5.255  -1.488  0.00  0.00    +0.223 C 
ATOM     11  S   UNL     1      -7.144  -4.302   0.056  0.00  0.00    -0.101 S 
ATOM     12  H   UNL     1      -5.067  -3.406  -3.194  0.00  0.00    +0.155 HD
ENDROOT
BRANCH  10  13
ATOM     13  C   UNL     1      -6.612  -6.596  -1.321  0.00  0.00    +0.238 C 
ATOM     14  O   UNL     1      -5.431  -6.720  -1.566  0.00  0.00    -0.274 OA
ATOM     15  N   UNL     1      -7.328  -7.657  -0.899  0.00  0.00    -0.300 N 
ATOM     16  C   UNL     1      -8.756  -7.507  -0.733  0.00  0.00    +0.108 C 
ATOM     17  C   UNL     1      -9.064  -7.023   0.706  0.00  0.00    +0.019 C 
ATOM     18  C   UNL     1      -8.816  -8.104   1.672  0.00  0.00    +0.002 C 
ATOM     19  C   UNL     1      -7.365  -8.572   1.734  0.00  0.00    +0.002 C 
ATOM     20  C   UNL     1      -7.127  -9.604   0.660  0.00  0.00    +0.019 C 
ATOM     21  C   UNL     1      -6.622  -8.925  -0.631  0.00  0.00    +0.108 C 
ENDBRANCH  10  13
BRANCH   1  22
ATOM     22  S   UNL     1      -1.152  -2.390  -0.042  0.00  0.00    +0.092 S 
ATOM     23  O   UNL     1      -0.620  -2.782  -1.300  0.00  0.00    -0.148 OA
ATOM     24  O   UNL     1      -0.574  -2.798   1.190  0.00  0.00    -0.148 OA
BRANCH  22  25
ATOM     25  N   UNL     1      -1.173  -0.735  -0.031  0.00  0.00    -0.098 NA
BRANCH  25  31
ATOM     26  C   UNL     1       0.013   1.368  -0.039  0.00  0.00    +0.028 A 
ATOM     27  C   UNL     1       1.202   2.071  -0.056  0.00  0.00    +0.022 A 
ATOM     28  C   UNL     1       2.408   1.392  -0.083  0.00  0.00    +0.041 A 
ATOM     29  C   UNL     1       2.426   0.009  -0.093  0.00  0.00    +0.022 A 
ATOM     30  C   UNL     1       1.240  -0.699  -0.075  0.00  0.00    +0.028 A 
ATOM     31  C   UNL     1       0.029  -0.021  -0.048  0.00  0.00    +0.074 A 
ATOM     32 CL   UNL     1       3.900   2.279  -0.105  0.00  0.00    -0.084 Cl
ENDBRANCH  25  31
ENDBRANCH  22  25
ENDBRANCH   1  22
TORSDOF 4
