REMARK  Name = ZINC39552555
REMARK  8 active torsions:
REMARK  status: ('A' for Active; 'I' for Inactive)
REMARK    1  A    between atoms: C_4  and  C_7
REMARK    2  A    between atoms: C_10  and  C_13
REMARK    3  A    between atoms: C_13  and  N_14
REMARK    4  A    between atoms: C_15  and  C_17
REMARK    5  A    between atoms: C_17  and  C_18
REMARK    6  A    between atoms: C_18  and  C_19
REMARK    7  A    between atoms: C_19  and  C_25
REMARK    8  A    between atoms: C_25  and  C_26
REMARK                            x       y       z     vdW  Elec       q    Type
REMARK                         _______ _______ _______ _____ _____    ______ ____
ROOT
ATOM      1  C   UNL     1       7.588  -6.226  -2.179  0.00  0.00    +0.098 C 
ENDROOT
BRANCH   1   3
ATOM      2  N   UNL     1       5.786  -4.937  -1.078  0.00  0.00    -0.310 N 
ATOM      3  C   UNL     1       6.231  -5.571  -2.181  0.00  0.00    +0.213 C 
ATOM      4  O   UNL     1       5.538  -5.615  -3.176  0.00  0.00    -0.276 OA
ATOM      5  H   UNL     1       6.340  -4.902  -0.282  0.00  0.00    +0.149 HD
BRANCH   2   6
ATOM      6  C   UNL     1       4.467  -4.301  -1.080  0.00  0.00    +0.161 C 
BRANCH   6   9
ATOM      7  C   UNL     1       3.842  -2.243   1.965  0.00  0.00    +0.153 C 
ATOM      8  C   UNL     1       4.078  -2.356   0.469  0.00  0.00    +0.030 C 
ATOM      9  C   UNL     1       4.213  -3.667   0.263  0.00  0.00    +0.076 C 
ATOM     10  N   UNL     1       4.089  -4.351   1.423  0.00  0.00    -0.181 NA
ATOM     11  N   UNL     1       3.885  -3.644   2.418  0.00  0.00    -0.297 N 
ATOM     12  H   UNL     1       3.772  -3.954   3.330  0.00  0.00    +0.183 HD
BRANCH   7  16
ATOM     13  C   UNL     1       0.018  -0.513   2.761  0.00  0.00    +0.000 A 
ATOM     14  C   UNL     1       1.161   0.253   2.882  0.00  0.00    +0.000 A 
ATOM     15  C   UNL     1       2.399  -0.306   2.624  0.00  0.00    +0.006 A 
ATOM     16  C   UNL     1       2.493  -1.633   2.247  0.00  0.00    -0.020 A 
ATOM     17  C   UNL     1       1.349  -2.400   2.127  0.00  0.00    +0.006 A 
ATOM     18  C   UNL     1       0.111  -1.840   2.383  0.00  0.00    +0.000 A 
ENDBRANCH   7  16
ENDBRANCH   6   9
ENDBRANCH   2   6
ENDBRANCH   1   3
BRANCH   1  19
ATOM     19  C   UNL     1       7.846  -6.869  -3.543  0.00  0.00    +0.035 C 
BRANCH  19  20
ATOM     20  C   UNL     1       9.166  -7.643  -3.501  0.00  0.00    +0.039 C 
ATOM     21  C   UNL     1      10.335  -6.688  -3.173  0.00  0.00    +0.035 C 
ATOM     22  C   UNL     1      11.245  -7.589  -2.306  0.00  0.00    +0.098 C 
ATOM     23  C   UNL     1      10.301  -8.620  -1.726  0.00  0.00    +0.214 C 
ATOM     24  O   UNL     1      10.552  -9.336  -0.780  0.00  0.00    -0.276 OA
ATOM     25  N   UNL     1       9.144  -8.624  -2.410  0.00  0.00    -0.309 N 
ATOM     26  H   UNL     1       8.392  -9.202  -2.208  0.00  0.00    +0.149 HD
BRANCH  20  27
ATOM     27  C   UNL     1       9.411  -8.343  -4.838  0.00  0.00    +0.061 C 
BRANCH  27  28
ATOM     28  C   UNL     1       8.322  -9.356  -5.082  0.00  0.00    -0.042 A 
ATOM     29  C   UNL     1       8.426 -10.625  -4.543  0.00  0.00    +0.007 A 
ATOM     30  C   UNL     1       7.429 -11.557  -4.764  0.00  0.00    +0.050 A 
ATOM     31  C   UNL     1       6.323 -11.221  -5.527  0.00  0.00    +0.166 A 
ATOM     32  C   UNL     1       6.218  -9.943  -6.070  0.00  0.00    +0.166 A 
ATOM     33  C   UNL     1       7.218  -9.012  -5.840  0.00  0.00    +0.053 A 
ATOM     34  O   UNL     1       5.050  -9.862  -6.772  0.00  0.00    -0.453 OA
ATOM     35  C   UNL     1       4.639 -11.224  -6.994  0.00  0.00    +0.466 C 
ATOM     36  O   UNL     1       5.221 -11.941  -5.889  0.00  0.00    -0.453 OA
ENDBRANCH  27  28
ENDBRANCH  20  27
ENDBRANCH  19  20
ENDBRANCH   1  19
TORSDOF 8
