REMARK  Name = ZINC39453121
REMARK  7 active torsions:
REMARK  status: ('A' for Active; 'I' for Inactive)
REMARK    1  A    between atoms: C_1  and  S_2
REMARK    2  A    between atoms: S_2  and  C_3
REMARK    3  A    between atoms: C_19  and  S_20
REMARK    4  A    between atoms: S_20  and  O_23
REMARK    5  A    between atoms: O_23  and  C_24
REMARK    6  A    between atoms: N_32  and  S_33
REMARK    7  A    between atoms: S_33  and  C_34
REMARK                            x       y       z     vdW  Elec       q    Type
REMARK                         _______ _______ _______ _____ _____    ______ ____
ROOT
ATOM      1  C   UNL     1      -3.114  -0.725   0.275  0.00  0.00    +0.136 C 
ATOM      2  C   UNL     1      -3.477  -1.881  -0.664  0.00  0.00    +0.114 C 
ATOM      3  C   UNL     1      -2.697  -3.108  -0.270  0.00  0.00    +0.185 C 
ATOM      4  O   UNL     1      -2.397  -3.927  -1.115  0.00  0.00    -0.290 OA
ATOM      5  C   UNL     1      -2.312  -3.316   1.075  0.00  0.00    +0.122 A 
ATOM      6  C   UNL     1      -2.600  -2.358   2.027  0.00  0.00    +0.083 A 
ATOM      7  C   UNL     1      -2.204  -2.575   3.429  0.00  0.00    +0.100 A 
ATOM      8  C   UNL     1      -1.522  -3.778   3.750  0.00  0.00    +0.068 A 
ATOM      9  C   UNL     1      -1.125  -4.031   5.055  0.00  0.00    +0.027 A 
ATOM     10  C   UNL     1      -1.421  -3.063   6.028  0.00  0.00    +0.029 A 
ATOM     11  C   UNL     1      -2.130  -1.846   5.624  0.00  0.00    +0.074 A 
ATOM     12  N   UNL     1      -2.480  -1.670   4.351  0.00  0.00    -0.245 NA
ATOM     13  C   UNL     1      -2.424  -0.883   6.607  0.00  0.00    +0.028 A 
ATOM     14  C   UNL     1      -2.045  -1.101   7.896  0.00  0.00    +0.004 A 
ATOM     15  C   UNL     1      -1.371  -2.259   8.276  0.00  0.00    +0.031 A 
ATOM     16  C   UNL     1      -1.058  -3.229   7.374  0.00  0.00    +0.137 A 
ATOM     17  C   UNL     1      -1.246  -4.745   2.675  0.00  0.00    +0.271 A 
ATOM     18  O   UNL     1      -0.662  -5.782   2.927  0.00  0.00    -0.266 OA
ATOM     19  N   UNL     1      -1.638  -4.484   1.416  0.00  0.00    -0.245 N 
ATOM     20  N   UNL     1      -3.254  -1.196   1.661  0.00  0.00    -0.328 N 
ATOM     21  H   UNL     1      -3.791  -0.705   2.302  0.00  0.00    +0.147 HD
ENDROOT
BRANCH  16  22
ATOM     22  S   UNL     1      -0.204  -4.681   7.892  0.00  0.00    +0.152 S 
ATOM     23  O   UNL     1      -1.196  -5.614   8.297  0.00  0.00    -0.131 OA
ATOM     24  O   UNL     1       0.749  -4.975   6.879  0.00  0.00    -0.131 OA
BRANCH  22  25
ATOM     25  O   UNL     1       0.587  -4.317   9.140  0.00  0.00    -0.342 OA
BRANCH  25  26
ATOM     26  C   UNL     1       1.710  -3.594   8.892  0.00  0.00    +0.157 A 
ATOM     27  C   UNL     1       2.890  -4.238   8.547  0.00  0.00    +0.048 A 
ATOM     28  C   UNL     1       4.030  -3.500   8.295  0.00  0.00    +0.004 A 
ATOM     29  C   UNL     1       3.997  -2.121   8.385  0.00  0.00    +0.000 A 
ATOM     30  C   UNL     1       2.822  -1.476   8.729  0.00  0.00    +0.004 A 
ATOM     31  C   UNL     1       1.678  -2.209   8.976  0.00  0.00    +0.048 A 
ENDBRANCH  25  26
ENDBRANCH  22  25
ENDBRANCH  16  22
BRANCH   1  33
ATOM     32  C   UNL     1      -1.488   1.604  -0.048  0.00  0.00    +0.086 C 
ATOM     33  S   UNL     1      -1.401  -0.208  -0.025  0.00  0.00    -0.142 S 
ENDBRANCH   1  33
BRANCH  19  34
ATOM     34  S   UNL     1      -1.309  -5.592   0.230  0.00  0.00    -0.044 S 
ATOM     35  C   UNL     1       0.317  -5.091  -0.399  0.00  0.00    +0.110 C 
ENDBRANCH  19  34
TORSDOF 5
