REMARK  Name = ZINC42944090
REMARK  9 active torsions:
REMARK  status: ('A' for Active; 'I' for Inactive)
REMARK    1  A    between atoms: C_1  and  C_2
REMARK    2  A    between atoms: C_2  and  C_3
REMARK    3  A    between atoms: C_2  and  C_4
REMARK    4  A    between atoms: C_4  and  C_6
REMARK    5  A    between atoms: C_4  and  S_17
REMARK    6  A    between atoms: N_8  and  C_9
REMARK    7  A    between atoms: S_17  and  C_18
REMARK    8  A    between atoms: C_21  and  C_24
REMARK    9  A    between atoms: N_22  and  N_23
REMARK                            x       y       z     vdW  Elec       q    Type
REMARK                         _______ _______ _______ _____ _____    ______ ____
ROOT
ATOM      1  C   UNL     1      -1.422  -0.550   0.136  0.00  0.00    +0.143 C 
ENDROOT
BRANCH   1   2
ATOM      2  C   UNL     1      -1.430  -2.050   0.278  0.00  0.00    +0.227 C 
ATOM      3  O   UNL     1      -1.607  -2.751  -0.696  0.00  0.00    -0.275 OA
ATOM      4  N   UNL     1      -1.239  -2.613   1.487  0.00  0.00    -0.312 N 
ATOM      5  H   UNL     1      -1.097  -2.053   2.266  0.00  0.00    +0.149 HD
BRANCH   4   6
ATOM      6  C   UNL     1      -1.247  -4.072   1.626  0.00  0.00    +0.073 C 
ATOM      7  C   UNL     1      -2.687  -4.561   1.788  0.00  0.00    +0.022 C 
ATOM      8  C   UNL     1      -2.745  -6.069   1.535  0.00  0.00    +0.002 C 
ATOM      9  C   UNL     1      -1.909  -6.412   0.301  0.00  0.00    +0.000 C 
ATOM     10  C   UNL     1      -0.693  -7.240   0.722  0.00  0.00    +0.000 C 
ATOM     11  C   UNL     1       0.347  -6.322   1.370  0.00  0.00    +0.000 C 
ATOM     12  C   UNL     1      -0.102  -5.964   2.788  0.00  0.00    +0.002 C 
ATOM     13  C   UNL     1      -0.431  -4.471   2.857  0.00  0.00    +0.022 C 
ENDBRANCH   4   6
ENDBRANCH   1   2
BRANCH   1  15
ATOM     14  C   UNL     1       0.027   1.464  -0.162  0.00  0.00    +0.009 C 
ATOM     15  C   UNL     1       0.018  -0.060  -0.026  0.00  0.00    +0.005 C 
ATOM     16  C   UNL     1       0.836  -0.467   1.201  0.00  0.00    +0.009 C 
ENDBRANCH   1  15
BRANCH   1  17
ATOM     17  S   UNL     1      -2.389  -0.076  -1.324  0.00  0.00    -0.071 S 
BRANCH  17  18
ATOM     18  C   UNL     1      -4.045  -0.499  -0.894  0.00  0.00    +0.209 A 
ATOM     19  N   UNL     1      -4.435  -1.109   0.201  0.00  0.00    -0.121 NA
ATOM     20  N   UNL     1      -5.712  -1.257   0.186  0.00  0.00    -0.123 NA
ATOM     21  C   UNL     1      -6.208  -0.756  -0.910  0.00  0.00    +0.255 A 
ATOM     22  N   UNL     1      -5.165  -0.250  -1.635  0.00  0.00    -0.220 N 
BRANCH  21  23
ATOM     23  C   UNL     1      -7.663  -0.733  -1.302  0.00  0.00    +0.454 C 
ATOM     24  F   UNL     1      -8.453  -1.017  -0.183  0.00  0.00    -0.163 F 
ATOM     25  F   UNL     1      -7.992   0.534  -1.796  0.00  0.00    -0.163 F 
ATOM     26  F   UNL     1      -7.894  -1.694  -2.293  0.00  0.00    -0.163 F 
ENDBRANCH  21  23
BRANCH  22  27
ATOM     27  N   UNL     1      -5.229   0.373  -2.849  0.00  0.00    -0.295 N 
ATOM     28  H   UNL     1      -5.146  -0.293  -3.602  0.00  0.00    +0.163 HD
ATOM     29  H   UNL     1      -6.078   0.911  -2.934  0.00  0.00    +0.163 HD
ENDBRANCH  22  27
ENDBRANCH  17  18
ENDBRANCH   1  17
TORSDOF 7
