REMARK  Name = ZINC03106224
REMARK  5 active torsions:
REMARK  status: ('A' for Active; 'I' for Inactive)
REMARK    1  A    between atoms: C_2  and  C_3
REMARK    2  A    between atoms: C_3  and  O_4
REMARK    3  A    between atoms: O_4  and  C_5
REMARK    4  A    between atoms: C_10  and  C_11
REMARK    5  A    between atoms: N_15  and  C_16
REMARK                            x       y       z     vdW  Elec       q    Type
REMARK                         _______ _______ _______ _____ _____    ______ ____
ROOT
ATOM      1  C   UNL     1      -0.539   1.980   0.018  0.00  0.00    +0.254 C 
ATOM      2  O   UNL     1      -1.731   2.220   0.025  0.00  0.00    -0.270 OA
ATOM      3  N   UNL     1      -0.109   0.702   0.007  0.00  0.00    -0.254 N 
ATOM      4  C   UNL     1      -1.022  -0.334   0.010  0.00  0.00    +0.167 C 
ATOM      5  N   UNL     1      -0.583  -1.636  -0.001  0.00  0.00    -0.357 N 
ATOM      6  H   UNL     1       0.842   0.511  -0.003  0.00  0.00    +0.158 HD
ATOM      7  H   UNL     1      -3.017  -0.736   0.027  0.00  0.00    +0.158 HD
ATOM      8  H   UNL     1       0.367  -1.828  -0.011  0.00  0.00    +0.162 HD
ATOM      9  N   UNL     1      -2.304  -0.006   0.024  0.00  0.00    -0.373 N 
ATOM     10  H   UNL     1      -2.582   0.983   0.032  0.00  0.00    +0.158 HD
ENDROOT
BRANCH   5  11
ATOM     11  C   UNL     1      -1.552  -2.735   0.002  0.00  0.00    +0.082 C 
ATOM     12  C   UNL     1      -1.970  -3.042   1.442  0.00  0.00    +0.024 C 
ATOM     13  C   UNL     1      -3.244  -3.889   1.433  0.00  0.00    +0.002 C 
ATOM     14  C   UNL     1      -4.229  -3.319   0.410  0.00  0.00    +0.000 C 
ATOM     15  C   UNL     1      -4.402  -4.312  -0.740  0.00  0.00    +0.000 C 
ATOM     16  C   UNL     1      -3.174  -4.255  -1.651  0.00  0.00    +0.000 C 
ATOM     17  C   UNL     1      -2.008  -4.986  -0.982  0.00  0.00    +0.002 C 
ATOM     18  C   UNL     1      -0.914  -3.979  -0.620  0.00  0.00    +0.024 C 
ENDBRANCH   5  11
BRANCH   1  24
ATOM     19  C   UNL     1      -0.007   4.415   0.026  0.00  0.00    +0.134 A 
ATOM     20  C   UNL     1       0.919   5.449   0.022  0.00  0.00    +0.047 A 
ATOM     21  C   UNL     1       2.270   5.167   0.008  0.00  0.00    +0.019 A 
ATOM     22  C   UNL     1       2.713   3.853  -0.003  0.00  0.00    +0.019 A 
ATOM     23  C   UNL     1       1.806   2.814   0.006  0.00  0.00    +0.032 A 
ATOM     24  C   UNL     1       0.436   3.086   0.015  0.00  0.00    +0.080 A 
ATOM     25 BR   UNL     1       4.567   3.485  -0.022  0.00  0.00    -0.050 Br
BRANCH  19  26
ATOM     26  O   UNL     1      -1.335   4.691   0.040  0.00  0.00    -0.479 OA
BRANCH  26  27
ATOM     27  C   UNL     1      -1.712   6.070   0.051  0.00  0.00    +0.317 C 
BRANCH  27  29
ATOM     28  C   UNL     1      -4.351   6.263   0.076  0.00  0.00    +0.007 C 
ATOM     29  C   UNL     1      -3.180   6.177   0.065  0.00  0.00    -0.065 C 
ENDBRANCH  27  29
ENDBRANCH  26  27
ENDBRANCH  19  26
ENDBRANCH   1  24
TORSDOF 5
