REMARK  Name = ZINC04457540
REMARK  9 active torsions:
REMARK  status: ('A' for Active; 'I' for Inactive)
REMARK    1  A    between atoms: C_1  and  C_2
REMARK    2  A    between atoms: C_4  and  C_32
REMARK    3  A    between atoms: C_6  and  S_10
REMARK    4  A    between atoms: C_7  and  C_8
REMARK    5  A    between atoms: S_10  and  C_11
REMARK    6  A    between atoms: C_11  and  C_12
REMARK    7  A    between atoms: C_19  and  N_31
REMARK    8  A    between atoms: C_20  and  C_29
REMARK    9  A    between atoms: C_21  and  C_23
REMARK                            x       y       z     vdW  Elec       q    Type
REMARK                         _______ _______ _______ _____ _____    ______ ____
ROOT
ATOM      1  C   UNL     1       0.096  -5.715   3.259  0.00  0.00    +0.081 A 
ATOM      2  C   UNL     1       1.229  -6.193   3.903  0.00  0.00    +0.050 A 
ATOM      3  C   UNL     1       0.824  -6.995   4.934  0.00  0.00    +0.223 A 
ATOM      4  N   UNL     1      -0.518  -7.015   4.930  0.00  0.00    -0.246 N 
ATOM      5  H   UNL     1      -1.084  -7.502   5.548  0.00  0.00    +0.192 HD
ATOM      6  N   UNL     1      -0.957  -6.200   3.874  0.00  0.00    -0.175 NA
ATOM      7  O   UNL     1       1.698  -7.617   5.764  0.00  0.00    -0.423 OA
ATOM      8  C   UNL     1       2.985  -7.217   5.729  0.00  0.00    +0.200 C 
ATOM      9  C   UNL     1       3.504  -6.436   4.756  0.00  0.00    +0.098 C 
ATOM     10  C   UNL     1       2.681  -5.934   3.596  0.00  0.00    +0.103 C 
ENDROOT
BRANCH  10  11
ATOM     11  C   UNL     1       3.074  -6.667   2.339  0.00  0.00    -0.016 A 
ATOM     12  C   UNL     1       3.552  -5.969   1.240  0.00  0.00    +0.007 A 
ATOM     13  C   UNL     1       3.901  -6.685   0.105  0.00  0.00    +0.020 A 
ATOM     14  C   UNL     1       3.762  -8.060   0.107  0.00  0.00    +0.111 A 
ATOM     15  N   UNL     1       3.304  -8.690   1.170  0.00  0.00    -0.263 NA
ATOM     16  C   UNL     1       2.968  -8.043   2.269  0.00  0.00    +0.115 A 
ENDBRANCH  10  11
BRANCH   8  17
ATOM     17  N   UNL     1       3.817  -7.627   6.742  0.00  0.00    -0.328 N 
ATOM     18  H   UNL     1       3.473  -8.189   7.454  0.00  0.00    +0.145 HD
ATOM     19  H   UNL     1       4.748  -7.356   6.744  0.00  0.00    +0.145 HD
ENDBRANCH   8  17
BRANCH   9  20
ATOM     20  C   UNL     1       4.887  -6.071   4.830  0.00  0.00    +0.101 C 
ATOM     21  N   UNL     1       5.984  -5.782   4.888  0.00  0.00    -0.191 NA
ENDBRANCH   9  20
BRANCH   1  22
ATOM     22  C   UNL     1       0.078  -4.794   2.067  0.00  0.00    +0.133 C 
BRANCH  22  23
ATOM     23  S   UNL     1       0.057  -3.071   2.633  0.00  0.00    -0.098 S 
BRANCH  23  29
ATOM     24  C   UNL     1      -0.018   1.503   0.010  0.00  0.00    +0.045 C 
ATOM     25  C   UNL     1       0.002  -0.004   0.002  0.00  0.00    -0.029 A 
ATOM     26  C   UNL     1       0.006  -0.707  -1.191  0.00  0.00    +0.027 A 
ATOM     27  C   UNL     1       0.025  -2.089  -1.167  0.00  0.00    +0.040 A 
ATOM     28  N   UNL     1       0.040  -2.754  -0.028  0.00  0.00    -0.244 NA
ATOM     29  C   UNL     1       0.037  -2.133   1.142  0.00  0.00    +0.115 A 
ATOM     30  C   UNL     1       0.023  -0.727   1.200  0.00  0.00    +0.086 A 
ATOM     31  C   UNL     1       0.029  -2.851  -2.467  0.00  0.00    +0.065 C 
BRANCH  30  32
ATOM     32  C   UNL     1       0.026  -0.049   2.461  0.00  0.00    +0.102 C 
ATOM     33  N   UNL     1       0.028   0.489   3.462  0.00  0.00    -0.191 NA
ENDBRANCH  30  32
ENDBRANCH  23  29
ENDBRANCH  22  23
ENDBRANCH   1  22
TORSDOF 7
