REMARK  Name = ZINC41584050
REMARK  10 active torsions:
REMARK  status: ('A' for Active; 'I' for Inactive)
REMARK    1  A    between atoms: C_1  and  C_2
REMARK    2  A    between atoms: C_2  and  C_3
REMARK    3  A    between atoms: C_3  and  C_4
REMARK    4  A    between atoms: C_4  and  N_5
REMARK    5  A    between atoms: N_5  and  C_6
REMARK    6  A    between atoms: N_5  and  C_7
REMARK    7  A    between atoms: C_7  and  C_8
REMARK    8  A    between atoms: C_9  and  O_29
REMARK    9  A    between atoms: C_11  and  C_28
REMARK   10  A    between atoms: C_16  and  C_17
REMARK                            x       y       z     vdW  Elec       q    Type
REMARK                         _______ _______ _______ _____ _____    ______ ____
ROOT
ATOM      1  C   UNL     1      -4.426  -4.059   0.223  0.00  0.00    +0.020 A 
ATOM      2  C   UNL     1      -4.961  -4.268   1.484  0.00  0.00    +0.122 A 
ATOM      3  C   UNL     1      -6.126  -5.013   1.644  0.00  0.00    +0.050 A 
ATOM      4  C   UNL     1      -6.754  -5.547   0.554  0.00  0.00    -0.033 A 
ATOM      5  C   UNL     1      -6.227  -5.344  -0.721  0.00  0.00    +0.071 A 
ATOM      6  C   UNL     1      -5.055  -4.590  -0.896  0.00  0.00    +0.145 A 
ATOM      7  O   UNL     1      -4.746  -4.527  -2.209  0.00  0.00    -0.451 OA
ATOM      8  C   UNL     1      -5.644  -5.196  -2.971  0.00  0.00    +0.176 C 
ATOM      9  C   UNL     1      -5.614  -5.320  -4.322  0.00  0.00    +0.058 C 
ATOM     10  C   UNL     1      -6.650  -5.772  -2.067  0.00  0.00    +0.232 C 
ATOM     11  O   UNL     1      -7.623  -6.443  -2.365  0.00  0.00    -0.283 OA
ATOM     12  C   UNL     1      -8.015  -6.354   0.730  0.00  0.00    +0.045 C 
ENDROOT
BRANCH   9  13
ATOM     13  C   UNL     1      -4.462  -4.818  -5.081  0.00  0.00    -0.018 A 
ATOM     14  C   UNL     1      -3.320  -4.367  -4.407  0.00  0.00    +0.012 A 
ATOM     15  C   UNL     1      -2.240  -3.898  -5.122  0.00  0.00    +0.050 A 
ATOM     16  C   UNL     1      -2.279  -3.869  -6.510  0.00  0.00    +0.166 A 
ATOM     17  C   UNL     1      -3.414  -4.316  -7.189  0.00  0.00    +0.167 A 
ATOM     18  C   UNL     1      -4.499  -4.794  -6.481  0.00  0.00    +0.057 A 
ATOM     19  O   UNL     1      -3.199  -4.183  -8.530  0.00  0.00    -0.453 OA
ATOM     20  C   UNL     1      -2.090  -3.273  -8.653  0.00  0.00    +0.466 C 
ATOM     21  O   UNL     1      -1.358  -3.458  -7.428  0.00  0.00    -0.453 OA
ENDBRANCH   9  13
BRANCH   2  22
ATOM     22  O   UNL     1      -4.343  -3.743   2.572  0.00  0.00    -0.506 OA
ATOM     23  H   UNL     1      -4.646  -2.855   2.805  0.00  0.00    +0.292 HD
ENDBRANCH   2  22
BRANCH   1  24
ATOM     24  C   UNL     1      -3.164  -3.250   0.064  0.00  0.00    -0.036 C 
BRANCH  24  25
ATOM     25  N   UNL     1      -3.510  -1.833  -0.110  0.00  0.00    +0.381 N 
ATOM     26  C   UNL     1      -4.244  -1.659  -1.370  0.00  0.00    -0.096 C 
ATOM     27  H   UNL     1      -4.087  -1.531   0.660  0.00  0.00    -0.082 HD
BRANCH  25  28
ATOM     28  C   UNL     1      -2.280  -1.030  -0.144  0.00  0.00    -0.079 C 
BRANCH  28  29
ATOM     29  C   UNL     1      -2.643   0.456  -0.200  0.00  0.00    -0.019 C 
BRANCH  29  31
ATOM     30  C   UNL     1      -1.725   2.777  -0.291  0.00  0.00    +0.004 C 
ATOM     31  C   UNL     1      -1.362   1.292  -0.236  0.00  0.00    -0.005 C 
ENDBRANCH  29  31
ENDBRANCH  28  29
ENDBRANCH  25  28
ENDBRANCH  24  25
ENDBRANCH   1  24
TORSDOF 7
