REMARK  Name = ZINC39533505
REMARK  11 active torsions:
REMARK  status: ('A' for Active; 'I' for Inactive)
REMARK    1  A    between atoms: C_1  and  C_2
REMARK    2  A    between atoms: C_2  and  C_3
REMARK    3  A    between atoms: C_2  and  C_4
REMARK    4  A    between atoms: C_4  and  C_5
REMARK    5  A    between atoms: C_8  and  C_11
REMARK    6  A    between atoms: C_11  and  C_13
REMARK    7  A    between atoms: C_11  and  N_25
REMARK    8  A    between atoms: C_13  and  N_14
REMARK    9  A    between atoms: N_14  and  S_15
REMARK   10  A    between atoms: S_15  and  O_18
REMARK   11  A    between atoms: O_18  and  C_19
REMARK                            x       y       z     vdW  Elec       q    Type
REMARK                         _______ _______ _______ _____ _____    ______ ____
ROOT
ATOM      1  C   UNL     1      -0.995  -6.668  -1.102  0.00  0.00    +0.065 C 
ENDROOT
BRANCH   1   2
ATOM      2  N   UNL     1      -0.151  -7.643  -0.399  0.00  0.00    -0.294 NA
ATOM      3  C   UNL     1       1.254  -7.212  -0.386  0.00  0.00    +0.100 C 
ATOM      4  C   UNL     1       2.084  -8.212   0.422  0.00  0.00    +0.097 C 
ATOM      5  N   UNL     1       1.952  -9.549  -0.173  0.00  0.00    -0.302 NA
ATOM      6  C   UNL     1       0.547  -9.980  -0.186  0.00  0.00    +0.136 C 
ATOM      7  C   UNL     1      -0.284  -8.980  -0.994  0.00  0.00    +0.115 C 
ATOM      8 BR   UNL     1       0.414 -11.761  -1.009  0.00  0.00    -0.070 Br
ATOM      9  H   UNL     1       2.345  -9.572  -1.102  0.00  0.00    +0.123 HD
ENDBRANCH   1   2
BRANCH   1  13
ATOM     10  C   UNL     1      -0.699  -2.871   0.832  0.00  0.00    -0.047 A 
ATOM     11  C   UNL     1      -0.735  -2.943  -0.548  0.00  0.00    +0.004 A 
ATOM     12  C   UNL     1      -0.830  -4.171  -1.174  0.00  0.00    +0.005 A 
ATOM     13  C   UNL     1      -0.890  -5.328  -0.420  0.00  0.00    -0.032 A 
ATOM     14  C   UNL     1      -0.854  -5.256   0.960  0.00  0.00    +0.005 A 
ATOM     15  C   UNL     1      -0.754  -4.028   1.586  0.00  0.00    +0.004 A 
BRANCH  10  16
ATOM     16  C   UNL     1      -0.595  -1.531   1.514  0.00  0.00    +0.038 C 
BRANCH  16  18
ATOM     17  C   UNL     1       0.987   0.242   2.285  0.00  0.00    +0.007 C 
ATOM     18  C   UNL     1       0.879  -1.170   1.707  0.00  0.00    -0.013 C 
ATOM     19  C   UNL     1       1.526  -2.167   2.671  0.00  0.00    +0.007 C 
ENDBRANCH  16  18
ENDBRANCH  10  16
ENDBRANCH   1  13
BRANCH   1  20
ATOM     20  C   UNL     1      -2.450  -7.140  -1.077  0.00  0.00    -0.087 C 
BRANCH  20  21
ATOM     21  N   UNL     1      -3.280  -6.208  -1.845  0.00  0.00    +0.494 NA
BRANCH  21  22
ATOM     22  S   UNL     1      -4.923  -6.403  -1.885  0.00  0.00    +0.067 S 
ATOM     23  O   UNL     1      -5.164  -7.728  -2.340  0.00  0.00    -0.159 OA
ATOM     24  O   UNL     1      -5.420  -5.922  -0.644  0.00  0.00    -0.159 OA
BRANCH  22  25
ATOM     25  O   UNL     1      -5.461  -5.469  -2.960  0.00  0.00    -0.362 OA
BRANCH  25  26
ATOM     26  C   UNL     1      -5.205  -5.882  -4.229  0.00  0.00    +0.154 A 
ATOM     27  C   UNL     1      -3.992  -5.577  -4.828  0.00  0.00    +0.048 A 
ATOM     28  C   UNL     1      -3.734  -5.998  -6.118  0.00  0.00    +0.004 A 
ATOM     29  C   UNL     1      -4.685  -6.723  -6.813  0.00  0.00    +0.000 A 
ATOM     30  C   UNL     1      -5.896  -7.028  -6.218  0.00  0.00    +0.004 A 
ATOM     31  C   UNL     1      -6.155  -6.614  -4.926  0.00  0.00    +0.048 A 
ENDBRANCH  25  26
ENDBRANCH  22  25
ENDBRANCH  21  22
ENDBRANCH  20  21
ENDBRANCH   1  20
TORSDOF 9
