REMARK  Name = ZINC63686269
REMARK  8 active torsions:
REMARK  status: ('A' for Active; 'I' for Inactive)
REMARK    1  A    between atoms: C_4  and  N_7
REMARK    2  A    between atoms: C_8  and  C_10
REMARK    3  A    between atoms: C_14  and  C_17
REMARK    4  A    between atoms: C_17  and  C_18
REMARK    5  A    between atoms: C_18  and  C_19
REMARK    6  A    between atoms: N_21  and  C_22
REMARK    7  A    between atoms: C_22  and  C_23
REMARK    8  A    between atoms: C_23  and  C_24
REMARK                            x       y       z     vdW  Elec       q    Type
REMARK                         _______ _______ _______ _____ _____    ______ ____
ROOT
ATOM      1  C   UNL     1       8.710  -1.202   0.628  0.00  0.00    +0.040 C 
ENDROOT
BRANCH   1   5
ATOM      2  C   UNL     1       4.962  -2.721   0.153  0.00  0.00    +0.214 C 
ATOM      3  N   UNL     1       5.748  -2.579  -1.101  0.00  0.00    -0.234 NA
ATOM      4  N   UNL     1       7.163  -2.361  -0.941  0.00  0.00    -0.242 NA
ATOM      5  C   UNL     1       7.663  -2.305   0.457  0.00  0.00    +0.129 C 
ATOM      6  S   UNL     1       6.098  -1.891   1.351  0.00  0.00    -0.112 S 
ATOM      7  H   UNL     1       5.341  -1.882  -1.706  0.00  0.00    +0.142 HD
ATOM      8  H   UNL     1       7.466  -1.555  -1.466  0.00  0.00    +0.142 HD
BRANCH   2  10
ATOM      9  N   UNL     1       3.622  -0.651  -0.037  0.00  0.00    -0.283 N 
ATOM     10  C   UNL     1       3.645  -1.995   0.057  0.00  0.00    +0.246 C 
ATOM     11  O   UNL     1       2.606  -2.620   0.064  0.00  0.00    -0.273 OA
ATOM     12  H   UNL     1       4.452  -0.156  -0.121  0.00  0.00    +0.155 HD
BRANCH   9  16
ATOM     13  C   UNL     1      -0.015   1.381   0.030  0.00  0.00    +0.000 A 
ATOM     14  C   UNL     1       0.140   0.219   0.763  0.00  0.00    +0.002 A 
ATOM     15  C   UNL     1       1.344  -0.457   0.743  0.00  0.00    +0.023 A 
ATOM     16  C   UNL     1       2.400   0.031  -0.015  0.00  0.00    +0.033 A 
ATOM     17  C   UNL     1       2.241   1.198  -0.751  0.00  0.00    +0.023 A 
ATOM     18  C   UNL     1       1.034   1.870  -0.726  0.00  0.00    +0.002 A 
ENDBRANCH   9  16
ENDBRANCH   2  10
ENDBRANCH   1   5
BRANCH   1  19
ATOM     19  C   UNL     1       9.286  -1.261   2.044  0.00  0.00    +0.098 C 
BRANCH  19  20
ATOM     20  C   UNL     1      10.317  -0.175   2.212  0.00  0.00    +0.213 C 
ATOM     21  O   UNL     1      10.566   0.573   1.290  0.00  0.00    -0.276 OA
ATOM     22  N   UNL     1      10.962  -0.034   3.387  0.00  0.00    -0.315 N 
ATOM     23  H   UNL     1      10.763  -0.632   4.125  0.00  0.00    +0.149 HD
BRANCH  22  24
ATOM     24  C   UNL     1      11.964   1.022   3.551  0.00  0.00    +0.108 C 
BRANCH  24  25
ATOM     25  C   UNL     1      12.541   0.963   4.967  0.00  0.00    +0.052 C 
BRANCH  25  26
ATOM     26  C   UNL     1      13.572   2.050   5.135  0.00  0.00    -0.040 C 
ATOM     27  C   UNL     1      13.377   3.281   5.660  0.00  0.00    +0.000 A 
ATOM     28  C   UNL     1      12.193   3.952   6.209  0.00  0.00    +0.030 A 
ATOM     29  C   UNL     1      12.311   5.219   6.670  0.00  0.00    +0.042 A 
ATOM     30  C   UNL     1      13.534   5.905   6.636  0.00  0.00    +0.022 A 
ATOM     31  C   UNL     1      14.665   5.354   6.146  0.00  0.00    +0.027 A 
ATOM     32  C   UNL     1      14.656   4.027   5.635  0.00  0.00    +0.043 A 
ATOM     33  N   UNL     1      15.604   3.285   5.116  0.00  0.00    -0.380 N 
ATOM     34  C   UNL     1      15.034   1.981   4.758  0.00  0.00    +0.144 C 
ATOM     35 CL   UNL     1      10.912   6.015   7.320  0.00  0.00    -0.084 Cl
ATOM     36  H   UNL     1      16.528   3.553   4.992  0.00  0.00    +0.160 HD
ENDBRANCH  25  26
ENDBRANCH  24  25
ENDBRANCH  22  24
ENDBRANCH  19  20
ENDBRANCH   1  19
TORSDOF 8
