REMARK  Name = ZINC37055435
REMARK  6 active torsions:
REMARK  status: ('A' for Active; 'I' for Inactive)
REMARK    1  A    between atoms: C_1  and  C_2
REMARK    2  A    between atoms: C_5  and  C_21
REMARK    3  A    between atoms: C_6  and  N_8
REMARK    4  A    between atoms: N_8  and  S_9
REMARK    5  A    between atoms: S_9  and  C_12
REMARK    6  A    between atoms: C_15  and  N_19
REMARK                            x       y       z     vdW  Elec       q    Type
REMARK                         _______ _______ _______ _____ _____    ______ ____
ROOT
ATOM      1  S   UNL     1      -0.668  -2.154   3.737  0.00  0.00    +0.075 S 
ATOM      2  O   UNL     1      -0.407  -3.055   4.805  0.00  0.00    -0.150 OA
ATOM      3  O   UNL     1      -0.290  -0.785   3.785  0.00  0.00    -0.150 OA
ENDROOT
BRANCH   1   4
ATOM      4  C   UNL     1      -2.408  -2.187   3.464  0.00  0.00    +0.145 A 
ATOM      5  C   UNL     1      -3.033  -1.109   2.860  0.00  0.00    +0.071 A 
ATOM      6  C   UNL     1      -4.398  -1.132   2.645  0.00  0.00    +0.044 A 
ATOM      7  C   UNL     1      -5.143  -2.238   3.034  0.00  0.00    +0.027 A 
ATOM      8  C   UNL     1      -4.513  -3.319   3.639  0.00  0.00    +0.044 A 
ATOM      9  C   UNL     1      -3.147  -3.292   3.847  0.00  0.00    +0.071 A 
ATOM     10 CL   UNL     1      -2.358  -4.645   4.597  0.00  0.00    -0.081 Cl
ATOM     11 CL   UNL     1      -2.101   0.273   2.375  0.00  0.00    -0.081 Cl
BRANCH   7  12
ATOM     12  N   UNL     1      -6.522  -2.264   2.818  0.00  0.00    -0.358 N 
ATOM     13  H   UNL     1      -6.961  -1.509   2.396  0.00  0.00    +0.142 HD
ATOM     14  H   UNL     1      -7.042  -3.037   3.090  0.00  0.00    +0.142 HD
ENDBRANCH   7  12
ENDBRANCH   1   4
BRANCH   1  15
ATOM     15  N   UNL     1       0.051  -2.796   2.390  0.00  0.00    -0.216 N 
ATOM     16  H   UNL     1       0.550  -3.626   2.456  0.00  0.00    +0.174 HD
BRANCH  15  22
ATOM     17  C   UNL     1      -2.474  -1.963  -1.743  0.00  0.00    +0.044 C 
ATOM     18  C   UNL     1      -1.274  -1.721  -0.864  0.00  0.00    -0.049 A 
ATOM     19  C   UNL     1      -0.281  -0.850  -1.276  0.00  0.00    +0.004 A 
ATOM     20  C   UNL     1       0.822  -0.625  -0.473  0.00  0.00    +0.005 A 
ATOM     21  C   UNL     1       0.935  -1.269   0.744  0.00  0.00    -0.028 A 
ATOM     22  C   UNL     1      -0.060  -2.144   1.161  0.00  0.00    +0.051 A 
ATOM     23  C   UNL     1      -1.169  -2.364   0.353  0.00  0.00    +0.028 A 
ATOM     24  C   UNL     1       2.138  -1.024   1.618  0.00  0.00    +0.046 C 
ENDBRANCH  15  22
ENDBRANCH   1  15
TORSDOF 4
