REMARK  Name = ZINC35743110
REMARK  14 active torsions:
REMARK  status: ('A' for Active; 'I' for Inactive)
REMARK    1  A    between atoms: C_1  and  C_2
REMARK    2  A    between atoms: C_2  and  C_3
REMARK    3  A    between atoms: C_3  and  C_4
REMARK    4  A    between atoms: C_4  and  O_6
REMARK    5  A    between atoms: O_6  and  C_7
REMARK    6  A    between atoms: C_7  and  C_8
REMARK    7  A    between atoms: C_8  and  C_10
REMARK    8  A    between atoms: C_8  and  O_35
REMARK    9  A    between atoms: C_10  and  N_11
REMARK   10  A    between atoms: N_11  and  C_12
REMARK   11  A    between atoms: N_11  and  C_20
REMARK   12  A    between atoms: C_12  and  C_13
REMARK   13  A    between atoms: C_20  and  C_21
REMARK   14  A    between atoms: C_24  and  C_27
REMARK                            x       y       z     vdW  Elec       q    Type
REMARK                         _______ _______ _______ _____ _____    ______ ____
ROOT
ATOM      1  N   UNL     1      -5.218  -7.043  -0.098  0.00  0.00    +0.387 N 
ATOM      2  H   UNL     1      -5.915  -6.876   0.612  0.00  0.00    -0.081 HD
ENDROOT
BRANCH   1   3
ATOM      3  C   UNL     1      -3.950  -6.419   0.305  0.00  0.00    -0.043 C 
BRANCH   3   4
ATOM      4  C   UNL     1      -4.182  -4.935   0.597  0.00  0.00    +0.136 C 
BRANCH   4   5
ATOM      5  O   UNL     1      -5.046  -4.801   1.727  0.00  0.00    -0.390 OA
ATOM      6  H   UNL     1      -4.699  -5.200   2.537  0.00  0.00    +0.210 HD
ENDBRANCH   4   5
BRANCH   4   7
ATOM      7  C   UNL     1      -2.842  -4.259   0.895  0.00  0.00    +0.261 C 
BRANCH   7   8
ATOM      8  O   UNL     1      -3.043  -2.853   1.053  0.00  0.00    -0.462 OA
BRANCH   8   9
ATOM      9  C   UNL     1      -1.959  -2.108   1.321  0.00  0.00    +0.307 C 
ATOM     10  O   UNL     1      -0.875  -2.633   1.419  0.00  0.00    -0.251 OA
BRANCH   9  11
ATOM     11  C   UNL     1      -2.094  -0.618   1.500  0.00  0.00    +0.120 C 
BRANCH  11  13
ATOM     12  C   UNL     1      -0.856   1.499   1.976  0.00  0.00    +0.004 C 
ATOM     13  C   UNL     1      -0.719  -0.014   1.794  0.00  0.00    +0.008 C 
ENDBRANCH  11  13
ENDBRANCH   9  11
ENDBRANCH   8   9
ENDBRANCH   7   8
ENDBRANCH   4   7
ENDBRANCH   3   4
ENDBRANCH   1   3
BRANCH   1  14
ATOM     14  C   UNL     1      -5.666  -6.462  -1.371  0.00  0.00    -0.043 C 
BRANCH  14  15
ATOM     15  C   UNL     1      -4.604  -6.670  -2.420  0.00  0.00    -0.063 A 
ATOM     16  C   UNL     1      -3.589  -5.744  -2.569  0.00  0.00    +0.002 A 
ATOM     17  C   UNL     1      -2.615  -5.934  -3.531  0.00  0.00    +0.002 A 
ATOM     18  C   UNL     1      -2.655  -7.051  -4.344  0.00  0.00    +0.020 A 
ATOM     19  C   UNL     1      -3.671  -7.979  -4.196  0.00  0.00    +0.041 A 
ATOM     20  C   UNL     1      -4.643  -7.790  -3.228  0.00  0.00    +0.021 A 
ATOM     21 CL   UNL     1      -3.723  -9.381  -5.217  0.00  0.00    -0.084 Cl
ENDBRANCH  14  15
ENDBRANCH   1  14
BRANCH   1  22
ATOM     22  C   UNL     1      -5.021  -8.489  -0.262  0.00  0.00    -0.030 C 
BRANCH  22  23
ATOM     23  C   UNL     1      -6.378  -9.169  -0.458  0.00  0.00    +0.194 C 
ATOM     24  C   UNL     1      -6.211 -10.697  -0.637  0.00  0.00    +0.104 C 
ATOM     25  C   UNL     1      -7.264 -11.024  -1.679  0.00  0.00    +0.091 C 
ATOM     26  N   UNL     1      -7.640  -9.920  -2.234  0.00  0.00    -0.089 NA
ATOM     27  O   UNL     1      -6.969  -8.788  -1.717  0.00  0.00    -0.392 OA
BRANCH  25  28
ATOM     28  C   UNL     1      -7.771 -12.372  -2.004  0.00  0.00    +0.001 A 
ATOM     29  C   UNL     1      -7.280 -13.488  -1.322  0.00  0.00    +0.011 A 
ATOM     30  C   UNL     1      -7.758 -14.745  -1.629  0.00  0.00    +0.022 A 
ATOM     31  C   UNL     1      -8.721 -14.902  -2.611  0.00  0.00    +0.059 A 
ATOM     32  C   UNL     1      -9.212 -13.799  -3.292  0.00  0.00    +0.060 A 
ATOM     33  C   UNL     1      -8.746 -12.535  -2.990  0.00  0.00    +0.031 A 
ATOM     34 CL   UNL     1     -10.419 -14.006  -4.521  0.00  0.00    -0.082 Cl
ATOM     35 CL   UNL     1      -9.316 -16.488  -2.992  0.00  0.00    -0.082 Cl
ENDBRANCH  25  28
ENDBRANCH  22  23
ENDBRANCH   1  22
TORSDOF 13
