REMARK  Name = ZINC15823469
REMARK  7 active torsions:
REMARK  status: ('A' for Active; 'I' for Inactive)
REMARK    1  A    between atoms: C_1  and  C_2
REMARK    2  A    between atoms: C_2  and  N_47
REMARK    3  A    between atoms: C_8  and  N_14
REMARK    4  A    between atoms: C_9  and  C_10
REMARK    5  A    between atoms: C_10  and  O_12
REMARK    6  A    between atoms: O_12  and  C_13
REMARK    7  A    between atoms: C_15  and  C_17
REMARK                            x       y       z     vdW  Elec       q    Type
REMARK                         _______ _______ _______ _____ _____    ______ ____
ROOT
ATOM      1  C   UNL     1       7.083  11.320  -0.451  0.00  0.00    -0.074 C 
ATOM      2  C   UNL     1       7.374   9.879  -0.022  0.00  0.00    +0.018 C 
ATOM      3  C   UNL     1       6.057   9.111  -0.009  0.00  0.00    -0.025 A 
ATOM      4  C   UNL     1       4.883   9.781   0.006  0.00  0.00    -0.021 A 
ATOM      5  S   UNL     1       3.643   8.518   0.004  0.00  0.00    -0.079 S 
ATOM      6  C   UNL     1       4.668   7.120  -0.006  0.00  0.00    +0.086 A 
ATOM      7  C   UNL     1       5.947   7.665  -0.015  0.00  0.00    +0.091 A 
ATOM      8  C   UNL     1       4.707  11.267   0.018  0.00  0.00    -0.035 C 
ATOM      9  N   UNL     1       6.006  11.874   0.395  0.00  0.00    +0.383 N 
ATOM     10  H   UNL     1       6.206  11.654   1.378  0.00  0.00    -0.081 HD
ENDROOT
BRANCH   6  11
ATOM     11  N   UNL     1       4.301   5.785  -0.009  0.00  0.00    -0.275 N 
ATOM     12  C   UNL     1       2.997   5.445   0.002  0.00  0.00    +0.257 C 
ATOM     13  O   UNL     1       2.142   6.311   0.015  0.00  0.00    -0.269 OA
ATOM     14  H   UNL     1       4.982   5.095  -0.019  0.00  0.00    +0.156 HD
BRANCH  12  15
ATOM     15  C   UNL     1       2.608   4.030  -0.001  0.00  0.00    +0.094 A 
ATOM     16  C   UNL     1       1.357   3.494   0.008  0.00  0.00    +0.068 A 
ATOM     17  C   UNL     1       1.193   2.096   0.002  0.00  0.00    +0.008 A 
ATOM     18  C   UNL     1      -0.016   1.354   0.009  0.00  0.00    +0.010 A 
ATOM     19  C   UNL     1       0.002  -0.004   0.002  0.00  0.00    +0.001 A 
ATOM     20  C   UNL     1       1.195  -0.717  -0.014  0.00  0.00    +0.001 A 
ATOM     21  C   UNL     1       2.394  -0.034  -0.022  0.00  0.00    +0.016 A 
ATOM     22  C   UNL     1       2.392   1.345  -0.014  0.00  0.00    +0.021 A 
ATOM     23  S   UNL     1       3.659   2.588  -0.020  0.00  0.00    -0.082 S 
ATOM     24 CL   UNL     1      -0.034   4.533   0.027  0.00  0.00    -0.082 Cl
ENDBRANCH  12  15
ENDBRANCH   6  11
BRANCH   9  26
ATOM     25  C   UNL     1       5.752  13.713  -1.237  0.00  0.00    -0.017 C 
ATOM     26  C   UNL     1       5.943  13.343   0.235  0.00  0.00    -0.082 C 
ENDBRANCH   9  26
BRANCH   7  27
ATOM     27  C   UNL     1       7.136   6.811  -0.032  0.00  0.00    +0.342 C 
ATOM     28  O   UNL     1       7.620   6.462  -1.092  0.00  0.00    -0.245 OA
BRANCH  27  29
ATOM     29  O   UNL     1       7.696   6.412   1.129  0.00  0.00    -0.464 OA
ATOM     30  C   UNL     1       8.873   5.567   1.037  0.00  0.00    +0.280 C 
ENDBRANCH  27  29
ENDBRANCH   7  27
TORSDOF 5
