REMARK  Name = ZINC40930544
REMARK  7 active torsions:
REMARK  status: ('A' for Active; 'I' for Inactive)
REMARK    1  A    between atoms: C_7  and  C_11
REMARK    2  A    between atoms: C_11  and  C_12
REMARK    3  A    between atoms: C_12  and  N_13
REMARK    4  A    between atoms: C_14  and  C_16
REMARK    5  A    between atoms: N_19  and  C_22
REMARK    6  A    between atoms: C_22  and  C_23
REMARK    7  A    between atoms: C_25  and  C_28
REMARK                            x       y       z     vdW  Elec       q    Type
REMARK                         _______ _______ _______ _____ _____    ______ ____
ROOT
ATOM      1  C   UNL     1      -2.123  -6.375  -2.609  0.00  0.00    +0.071 C 
ATOM      2  C   UNL     1      -1.408  -7.595  -2.021  0.00  0.00    -0.006 C 
ATOM      3  C   UNL     1      -2.337  -8.808  -2.094  0.00  0.00    -0.077 C 
ATOM      4  N   UNL     1      -2.693  -9.074  -3.493  0.00  0.00    +0.386 N 
ATOM      5  C   UNL     1      -3.442  -7.937  -4.041  0.00  0.00    -0.077 C 
ATOM      6  C   UNL     1      -2.554  -6.690  -4.044  0.00  0.00    -0.006 C 
ATOM      7  H   UNL     1      -1.851  -9.212  -4.032  0.00  0.00    -0.081 HD
ENDROOT
BRANCH   1   9
ATOM      8  N   UNL     1      -0.675  -4.736  -1.452  0.00  0.00    -0.315 N 
ATOM      9  C   UNL     1      -1.186  -5.195  -2.612  0.00  0.00    +0.216 C 
ATOM     10  O   UNL     1      -0.891  -4.657  -3.659  0.00  0.00    -0.276 OA
ATOM     11  H   UNL     1      -0.911  -5.166  -0.615  0.00  0.00    +0.149 HD
BRANCH   8  12
ATOM     12  C   UNL     1       0.236  -3.589  -1.455  0.00  0.00    +0.109 C 
BRANCH  12  13
ATOM     13  C   UNL     1       0.666  -3.275  -0.021  0.00  0.00    +0.056 C 
BRANCH  13  20
ATOM     14  C   UNL     1      -0.017   1.362   0.009  0.00  0.00    +0.001 A 
ATOM     15  C   UNL     1       1.170   2.083   0.002  0.00  0.00    +0.002 A 
ATOM     16  C   UNL     1       2.386   1.436  -0.013  0.00  0.00    +0.026 A 
ATOM     17  C   UNL     1       2.428   0.046  -0.021  0.00  0.00    +0.047 A 
ATOM     18  C   UNL     1       1.223  -0.681  -0.013  0.00  0.00    +0.003 A 
ATOM     19  C   UNL     1       0.002  -0.004   0.002  0.00  0.00    +0.010 A 
ATOM     20  C   UNL     1       1.604  -2.095  -0.025  0.00  0.00    -0.021 A 
ATOM     21  C   UNL     1       2.945  -2.141  -0.038  0.00  0.00    +0.087 A 
ATOM     22  N   UNL     1       3.455  -0.871  -0.036  0.00  0.00    -0.360 N 
ATOM     23  H   UNL     1       4.399  -0.650  -0.044  0.00  0.00    +0.165 HD
ENDBRANCH  13  20
ENDBRANCH  12  13
ENDBRANCH   8  12
ENDBRANCH   1   9
BRANCH   4  24
ATOM     24  C   UNL     1      -3.521 -10.285  -3.565  0.00  0.00    +0.022 C 
BRANCH  24  25
ATOM     25  C   UNL     1      -3.784 -10.628  -5.008  0.00  0.00    +0.211 A 
ATOM     26  N   UNL     1      -3.047 -11.402  -5.752  0.00  0.00    -0.192 NA
ATOM     27  C   UNL     1      -3.574 -11.491  -6.989  0.00  0.00    +0.209 A 
ATOM     28  N   UNL     1      -4.664 -10.761  -7.032  0.00  0.00    -0.056 NA
ATOM     29  O   UNL     1      -4.819 -10.194  -5.740  0.00  0.00    -0.340 OA
BRANCH  27  30
ATOM     30  C   UNL     1      -3.018 -12.277  -8.109  0.00  0.00    +0.060 A 
ATOM     31  C   UNL     1      -3.490 -12.411  -9.388  0.00  0.00    +0.019 A 
ATOM     32  C   UNL     1      -2.795 -13.207 -10.270  0.00  0.00    +0.008 A 
ATOM     33  C   UNL     1      -1.665 -13.834  -9.848  0.00  0.00    +0.046 A 
ATOM     34  S   UNL     1      -1.551 -13.294  -8.150  0.00  0.00    -0.093 S 
ENDBRANCH  27  30
ENDBRANCH  24  25
ENDBRANCH   4  24
TORSDOF 7
