REMARK  Name = ZINC09167560
REMARK  11 active torsions:
REMARK  status: ('A' for Active; 'I' for Inactive)
REMARK    1  A    between atoms: C_1  and  C_2
REMARK    2  A    between atoms: C_2  and  CA_3
REMARK    3  A    between atoms: CA_3  and  C_5
REMARK    4  A    between atoms: CA_3  and  N_75
REMARK    5  A    between atoms: C_5  and  O_6
REMARK    6  A    between atoms: C_7  and  C_8
REMARK    7  A    between atoms: C_11  and  O_38
REMARK    8  A    between atoms: C_14  and  O_37
REMARK    9  A    between atoms: C_23  and  C_36
REMARK   10  A    between atoms: C_24  and  O_35
REMARK   11  A    between atoms: C_27  and  C_29
REMARK                            x       y       z     vdW  Elec       q    Type
REMARK                         _______ _______ _______ _____ _____    ______ ____
ROOT
ATOM      1  C   UNL     1      -0.021   1.800   0.734  0.00  0.00    +0.036 C 
ATOM      2  C   UNL     1      -0.686   2.455   1.936  0.00  0.00    +0.018 C 
ATOM      3  C   UNL     1      -2.022   1.781   2.243  0.00  0.00    +0.032 C 
ATOM      4  C   UNL     1      -1.825   0.293   2.509  0.00  0.00    +0.117 C 
ATOM      5  C   UNL     1      -1.090  -0.391   1.367  0.00  0.00    +0.067 C 
ATOM      6  C   UNL     1       0.215   0.310   0.997  0.00  0.00    +0.079 C 
ATOM      7  C   UNL     1       1.254   0.075   2.090  0.00  0.00    +0.036 C 
ATOM      8  C   UNL     1       2.578   0.772   1.730  0.00  0.00    +0.009 C 
ATOM      9  C   UNL     1       2.261   2.258   1.615  0.00  0.00    +0.025 C 
ATOM     10  C   UNL     1       1.322   2.468   0.425  0.00  0.00    +0.009 C 
ATOM     11  C   UNL     1       1.209   3.950   0.115  0.00  0.00    +0.005 C 
ATOM     12  C   UNL     1       2.554   4.522  -0.370  0.00  0.00    +0.010 C 
ATOM     13  C   UNL     1       3.715   3.719   0.148  0.00  0.00    +0.004 C 
ATOM     14  C   UNL     1       3.440   3.178   1.565  0.00  0.00    +0.075 C 
ATOM     15  C   UNL     1       4.803   2.571   1.941  0.00  0.00    +0.036 C 
ATOM     16  C   UNL     1       5.813   3.612   1.388  0.00  0.00    +0.011 C 
ATOM     17  C   UNL     1       5.054   4.451   0.329  0.00  0.00    +0.027 C 
ATOM     18  C   UNL     1       4.024   2.571  -0.834  0.00  0.00    +0.014 C 
ENDROOT
BRANCH  17  19
ATOM     19  C   UNL     1       4.901   5.878   0.787  0.00  0.00    -0.022 C 
ATOM     20  C   UNL     1       5.432   6.955   0.214  0.00  0.00    +0.094 C 
ATOM     21  C   UNL     1       5.042   8.152   0.964  0.00  0.00    +0.332 C 
ATOM     22  O   UNL     1       5.367   9.289   0.684  0.00  0.00    -0.246 OA
ATOM     23  O   UNL     1       4.272   7.805   2.014  0.00  0.00    -0.457 OA
ATOM     24  C   UNL     1       4.122   6.358   1.989  0.00  0.00    +0.264 C 
ENDBRANCH  17  19
BRANCH   1  25
ATOM     25  C   UNL     1      -0.910   1.939  -0.484  0.00  0.00    +0.060 C 
ATOM     26  N   UNL     1      -1.304   0.832  -1.072  0.00  0.00    -0.388 N 
ATOM     27  H   UNL     1      -1.008  -0.079  -0.702  0.00  0.00    +0.159 HD
BRANCH  26  28
ATOM     28  CA  UNL     1      -2.188   0.899  -2.286  0.00  0.00    +0.104 C 
BRANCH  28  30
ATOM     29  C   UNL     1      -4.269   0.908  -0.904  0.00  0.00    +0.006 C 
ATOM     30  C   UNL     1      -3.486   0.150  -1.978  0.00  0.00    +0.023 C 
ENDBRANCH  28  30
BRANCH  28  31
ATOM     31  C   UNL     1      -1.465   0.211  -3.446  0.00  0.00    +0.180 C 
BRANCH  31  32
ATOM     32  O   UNL     1      -1.266  -1.169  -3.132  0.00  0.00    -0.393 OA
ATOM     33  H   UNL     1      -0.812  -1.668  -3.824  0.00  0.00    +0.209 HD
ENDBRANCH  31  32
ENDBRANCH  28  31
ENDBRANCH  26  28
ENDBRANCH   1  25
BRANCH  14  34
ATOM     34  O   UNL     1       3.182   4.277   2.467  0.00  0.00    -0.388 OA
ATOM     35  H   UNL     1       3.038   4.008   3.385  0.00  0.00    +0.210 HD
ENDBRANCH  14  34
BRANCH   6  36
ATOM     36  O   UNL     1       0.705  -0.284  -0.219  0.00  0.00    -0.388 OA
ATOM     37  H   UNL     1       0.885  -1.232  -0.150  0.00  0.00    +0.210 HD
ENDBRANCH   6  36
BRANCH   4  38
ATOM     38  O   UNL     1      -1.136   0.100   3.744  0.00  0.00    -0.392 OA
ATOM     39  H   UNL     1      -1.565   0.517   4.503  0.00  0.00    +0.210 HD
ENDBRANCH   4  38
TORSDOF 9
