REMARK  Name = ZINC40319529
REMARK  12 active torsions:
REMARK  status: ('A' for Active; 'I' for Inactive)
REMARK    1  A    between atoms: C_1  and  C_2
REMARK    2  A    between atoms: C_2  and  C_4
REMARK    3  A    between atoms: C_8  and  O_10
REMARK    4  A    between atoms: O_10  and  C_11
REMARK    5  A    between atoms: C_11  and  C_12
REMARK    6  A    between atoms: C_12  and  C_14
REMARK    7  A    between atoms: C_12  and  O_37
REMARK    8  A    between atoms: C_14  and  N_15
REMARK    9  A    between atoms: N_15  and  C_16
REMARK   10  A    between atoms: N_15  and  C_29
REMARK   11  A    between atoms: C_16  and  C_17
REMARK   12  A    between atoms: C_20  and  C_22
REMARK                            x       y       z     vdW  Elec       q    Type
REMARK                         _______ _______ _______ _____ _____    ______ ____
ROOT
ATOM      1  N   UNL     1      -4.829  -8.396   0.491  0.00  0.00    +0.389 N 
ATOM      2  H   UNL     1      -4.741  -8.793   1.415  0.00  0.00    -0.081 HD
ENDROOT
BRANCH   1   3
ATOM      3  C   UNL     1      -3.546  -8.513  -0.216  0.00  0.00    -0.045 C 
ATOM      4  C   UNL     1      -3.050  -9.967  -0.153  0.00  0.00    +0.009 C 
ATOM      5  C   UNL     1      -1.571 -10.039  -0.604  0.00  0.00    +0.164 C 
ATOM      6  S   UNL     1      -0.931  -8.373  -0.160  0.00  0.00    -0.033 S 
ATOM      7  O   UNL     1      -0.532  -7.700  -1.346  0.00  0.00    -0.174 OA
ATOM      8  O   UNL     1      -0.009  -8.503   0.914  0.00  0.00    -0.174 OA
ATOM      9  C   UNL     1      -2.484  -7.609   0.471  0.00  0.00    +0.151 C 
ENDBRANCH   1   3
BRANCH   1  10
ATOM     10  C   UNL     1      -5.201  -6.980   0.599  0.00  0.00    -0.043 C 
BRANCH  10  11
ATOM     11  C   UNL     1      -5.196  -6.561   2.071  0.00  0.00    +0.135 C 
BRANCH  11  12
ATOM     12  O   UNL     1      -6.225  -7.264   2.769  0.00  0.00    -0.390 OA
ATOM     13  H   UNL     1      -7.115  -7.098   2.429  0.00  0.00    +0.210 HD
ENDBRANCH  11  12
BRANCH  11  14
ATOM     14  C   UNL     1      -5.445  -5.056   2.174  0.00  0.00    +0.258 C 
BRANCH  14  15
ATOM     15  O   UNL     1      -5.324  -4.645   3.537  0.00  0.00    -0.489 OA
BRANCH  15  20
ATOM     16  C   UNL     1      -5.617  -1.506   5.374  0.00  0.00    +0.021 A 
ATOM     17  C   UNL     1      -5.919  -0.628   4.327  0.00  0.00    +0.011 A 
ATOM     18  C   UNL     1      -6.017  -1.104   3.037  0.00  0.00    +0.004 A 
ATOM     19  C   UNL     1      -5.818  -2.447   2.773  0.00  0.00    +0.046 A 
ATOM     20  C   UNL     1      -5.518  -3.327   3.804  0.00  0.00    +0.121 A 
ATOM     21  C   UNL     1      -5.411  -2.861   5.104  0.00  0.00    +0.057 A 
BRANCH  16  23
ATOM     22  C   UNL     1      -5.734   0.460   7.041  0.00  0.00    +0.091 C 
ATOM     23  C   UNL     1      -5.511  -1.002   6.753  0.00  0.00    +0.160 C 
ATOM     24  O   UNL     1      -5.244  -1.765   7.658  0.00  0.00    -0.292 OA
ENDBRANCH  16  23
ENDBRANCH  15  20
ENDBRANCH  14  15
ENDBRANCH  11  14
ENDBRANCH  10  11
ENDBRANCH   1  10
BRANCH   1  25
ATOM     25  C   UNL     1      -5.867  -9.120  -0.256  0.00  0.00    -0.003 C 
BRANCH  25  26
ATOM     26  C   UNL     1      -5.561 -10.596  -0.239  0.00  0.00    +0.089 A 
ATOM     27  C   UNL     1      -5.552 -11.383   0.854  0.00  0.00    +0.043 A 
ATOM     28  C   UNL     1      -5.220 -12.684   0.422  0.00  0.00    +0.050 A 
ATOM     29  C   UNL     1      -5.043 -12.616  -0.924  0.00  0.00    +0.135 A 
ATOM     30  O   UNL     1      -5.259 -11.345  -1.312  0.00  0.00    -0.462 OA
BRANCH  29  31
ATOM     31  C   UNL     1      -4.681 -13.744  -1.808  0.00  0.00    +0.017 A 
ATOM     32  C   UNL     1      -4.496 -15.021  -1.276  0.00  0.00    +0.014 A 
ATOM     33  C   UNL     1      -4.159 -16.069  -2.106  0.00  0.00    +0.039 A 
ATOM     34  C   UNL     1      -4.004 -15.857  -3.466  0.00  0.00    +0.123 A 
ATOM     35  C   UNL     1      -4.187 -14.591  -4.001  0.00  0.00    +0.039 A 
ATOM     36  C   UNL     1      -4.530 -13.537  -3.181  0.00  0.00    +0.014 A 
ATOM     37  F   UNL     1      -3.673 -16.887  -4.275  0.00  0.00    -0.205 F 
ENDBRANCH  29  31
ENDBRANCH  25  26
ENDBRANCH   1  25
TORSDOF 11
