REMARK  Name = ZINC40798965
REMARK  4 active torsions:
REMARK  status: ('A' for Active; 'I' for Inactive)
REMARK    1  A    between atoms: C_4  and  C_7
REMARK    2  A    between atoms: C_7  and  N_8
REMARK    3  A    between atoms: C_16  and  N_33
REMARK    4  A    between atoms: C_17  and  N_21
REMARK                            x       y       z     vdW  Elec       q    Type
REMARK                         _______ _______ _______ _____ _____    ______ ____
ROOT
ATOM      1  N   UNL     1       4.100  -1.045   1.546  0.00  0.00    -0.266 N 
ATOM      2  C   UNL     1       2.732  -0.945   1.780  0.00  0.00    +0.127 A 
ATOM      3  C   UNL     1       1.868  -1.885   1.227  0.00  0.00    +0.044 A 
ATOM      4  C   UNL     1       0.510  -1.774   1.467  0.00  0.00    +0.005 A 
ATOM      5  C   UNL     1       0.061  -0.722   2.256  0.00  0.00    +0.020 A 
ATOM      6  C   UNL     1       0.975   0.174   2.772  0.00  0.00    +0.113 A 
ATOM      7  N   UNL     1       2.265   0.040   2.531  0.00  0.00    -0.240 NA
ATOM      8  C   UNL     1       4.972  -0.123   2.115  0.00  0.00    +0.130 A 
ATOM      9  C   UNL     1       5.615  -0.405   3.322  0.00  0.00    +0.104 A 
ATOM     10  C   UNL     1       6.480   0.556   3.848  0.00  0.00    +0.147 A 
ATOM     11  N   UNL     1       6.658   1.696   3.185  0.00  0.00    -0.221 NA
ATOM     12  C   UNL     1       6.032   1.923   2.048  0.00  0.00    +0.200 A 
ATOM     13  N   UNL     1       5.211   1.041   1.514  0.00  0.00    -0.332 N 
ATOM     14  H   UNL     1       4.772   1.244   0.673  0.00  0.00    +0.168 HD
ENDROOT
BRANCH  10  15
ATOM     15  N   UNL     1       7.145   0.326   5.046  0.00  0.00    -0.311 N 
ATOM     16  C   UNL     1       8.418  -0.408   5.067  0.00  0.00    +0.125 C 
ATOM     17  C   UNL     1       9.473   0.460   5.764  0.00  0.00    +0.125 C 
ATOM     18  N   UNL     1       8.916   0.946   7.034  0.00  0.00    -0.314 N 
ATOM     19  C   UNL     1       7.643   1.680   7.014  0.00  0.00    +0.125 C 
ATOM     20  C   UNL     1       6.591   0.817   6.316  0.00  0.00    +0.125 C 
ATOM     21  C   UNL     1       9.581   0.716   8.233  0.00  0.00    +0.099 A 
ATOM     22  C   UNL     1      10.850   0.145   8.219  0.00  0.00    +0.042 A 
ATOM     23  C   UNL     1      11.500  -0.078   9.419  0.00  0.00    +0.005 A 
ATOM     24  C   UNL     1      10.857   0.278  10.597  0.00  0.00    +0.018 A 
ATOM     25  C   UNL     1       9.598   0.840  10.537  0.00  0.00    +0.084 A 
ATOM     26  N   UNL     1       9.004   1.047   9.377  0.00  0.00    -0.350 N 
ATOM     27  H   UNL     1       8.120   1.447   9.363  0.00  0.00    +0.166 HD
ENDBRANCH  10  15
BRANCH   9  28
ATOM     28  N   UNL     1       5.397  -1.621   3.988  0.00  0.00    -0.353 N 
ATOM     29  H   UNL     1       4.850  -2.309   3.575  0.00  0.00    +0.143 HD
ATOM     30  H   UNL     1       5.792  -1.774   4.860  0.00  0.00    +0.143 HD
ENDBRANCH   9  28
BRANCH   1  31
ATOM     31  C   UNL     1       4.622  -2.123   0.702  0.00  0.00    +0.149 C 
BRANCH  31  35
ATOM     32  C   UNL     1       4.750  -0.814  -3.362  0.00  0.00    +0.000 A 
ATOM     33  C   UNL     1       5.842  -0.616  -2.538  0.00  0.00    +0.000 A 
ATOM     34  C   UNL     1       5.801  -1.039  -1.223  0.00  0.00    +0.005 A 
ATOM     35  C   UNL     1       4.667  -1.660  -0.732  0.00  0.00    -0.030 A 
ATOM     36  C   UNL     1       3.575  -1.857  -1.556  0.00  0.00    +0.005 A 
ATOM     37  C   UNL     1       3.617  -1.435  -2.872  0.00  0.00    +0.000 A 
ENDBRANCH  31  35
ENDBRANCH   1  31
TORSDOF 4
