REMARK  Name = ZINC45606277
REMARK  8 active torsions:
REMARK  status: ('A' for Active; 'I' for Inactive)
REMARK    1  A    between atoms: C_1  and  C_2
REMARK    2  A    between atoms: C_2  and  C_3
REMARK    3  A    between atoms: C_2  and  C_4
REMARK    4  A    between atoms: C_2  and  N_5
REMARK    5  A    between atoms: C_6  and  C_8
REMARK    6  A    between atoms: C_8  and  N_9
REMARK    7  A    between atoms: N_13  and  C_16
REMARK    8  A    between atoms: C_16  and  C_17
REMARK                            x       y       z     vdW  Elec       q    Type
REMARK                         _______ _______ _______ _____ _____    ______ ____
ROOT
ATOM      1  C   UNL     1       8.102   0.886  -5.060  0.00  0.00    -0.001 C 
ENDROOT
BRANCH   1   2
ATOM      2  C   UNL     1       8.042   2.201  -5.792  0.00  0.00    +0.116 A 
ATOM      3  N   UNL     1       7.591   2.229  -7.034  0.00  0.00    -0.219 NA
ATOM      4  C   UNL     1       7.513   3.352  -7.730  0.00  0.00    +0.128 A 
ATOM      5  C   UNL     1       7.928   4.571  -7.125  0.00  0.00    +0.051 A 
ATOM      6  C   UNL     1       7.931   5.921  -7.699  0.00  0.00    -0.025 A 
ATOM      7  C   UNL     1       8.383   6.915  -6.908  0.00  0.00    -0.004 A 
ATOM      8  S   UNL     1       8.815   6.131  -5.376  0.00  0.00    -0.073 S 
ATOM      9  C   UNL     1       8.395   4.462  -5.801  0.00  0.00    +0.114 A 
ATOM     10  N   UNL     1       8.435   3.300  -5.177  0.00  0.00    -0.227 NA
ATOM     11  C   UNL     1       8.511   8.368  -7.243  0.00  0.00    +0.043 C 
ATOM     12  C   UNL     1       7.197   8.864  -7.861  0.00  0.00    +0.005 C 
ATOM     13  C   UNL     1       7.271   8.664  -9.371  0.00  0.00    +0.001 C 
ATOM     14  C   UNL     1       8.096   7.419  -9.693  0.00  0.00    +0.005 C 
ATOM     15  C   UNL     1       7.431   6.174  -9.119  0.00  0.00    +0.037 C 
ATOM     16  N   UNL     1       7.036   3.340  -9.028  0.00  0.00    -0.343 N 
ATOM     17  H   UNL     1       6.620   4.134  -9.399  0.00  0.00    +0.144 HD
ATOM     18  H   UNL     1       7.118   2.538  -9.568  0.00  0.00    +0.144 HD
ENDBRANCH   1   2
BRANCH   1  23
ATOM     19  N   UNL     1       4.581  -0.795  -2.864  0.00  0.00    -0.296 NA
ATOM     20  C   UNL     1       4.399   0.676  -2.850  0.00  0.00    +0.083 C 
ATOM     21  C   UNL     1       5.629   1.305  -2.248  0.00  0.00    -0.003 C 
ATOM     22  C   UNL     1       6.675   1.691  -3.307  0.00  0.00    -0.077 C 
ATOM     23  N   UNL     1       6.833   0.659  -4.356  0.00  0.00    +0.385 N 
ATOM     24  C   UNL     1       6.832  -0.680  -3.810  0.00  0.00    -0.063 C 
ATOM     25  C   UNL     1       5.403  -1.245  -3.902  0.00  0.00    +0.066 C 
ATOM     26  H   UNL     1       6.075   0.744  -5.016  0.00  0.00    -0.081 HD
BRANCH  19  27
ATOM     27  C   UNL     1       3.285  -1.486  -2.882  0.00  0.00    +0.180 C 
BRANCH  27  29
ATOM     28  N   UNL     1       1.302  -1.690  -1.418  0.00  0.00    -0.310 N 
ATOM     29  C   UNL     1       2.526  -1.163  -1.621  0.00  0.00    +0.227 C 
ATOM     30  O   UNL     1       3.016  -0.429  -0.789  0.00  0.00    -0.274 OA
ATOM     31  H   UNL     1       0.909  -2.276  -2.083  0.00  0.00    +0.149 HD
BRANCH  28  33
ATOM     32  C   UNL     1       0.335   0.135  -0.107  0.00  0.00    +0.031 C 
ATOM     33  C   UNL     1       0.564  -1.375  -0.192  0.00  0.00    +0.026 C 
ATOM     34  C   UNL     1       1.371  -1.838   1.022  0.00  0.00    +0.031 C 
ATOM     35  C   UNL     1      -0.786  -2.095  -0.211  0.00  0.00    +0.031 C 
ENDBRANCH  28  33
ENDBRANCH  27  29
ENDBRANCH  19  27
ENDBRANCH   1  23
TORSDOF 5
