REMARK  Name = ZINC39769704
REMARK  9 active torsions:
REMARK  status: ('A' for Active; 'I' for Inactive)
REMARK    1  A    between atoms: C_1  and  C_2
REMARK    2  A    between atoms: C_2  and  C_3
REMARK    3  A    between atoms: N_17  and  N_18
REMARK    4  A    between atoms: C_19  and  C_20
REMARK    5  A    between atoms: C_22  and  O_29
REMARK    6  A    between atoms: C_23  and  O_28
REMARK    7  A    between atoms: C_24  and  O_26
REMARK    8  A    between atoms: O_26  and  C_27
REMARK    9  A    between atoms: O_29  and  C_30
REMARK                            x       y       z     vdW  Elec       q    Type
REMARK                         _______ _______ _______ _____ _____    ______ ____
ROOT
ATOM      1  C   UNL     1      -1.412  -0.526   0.013  0.00  0.00    -0.047 A 
ATOM      2  C   UNL     1      -2.035  -0.760   1.246  0.00  0.00    +0.005 A 
ATOM      3  C   UNL     1      -3.304  -1.222   1.326  0.00  0.00    +0.026 A 
ATOM      4  C   UNL     1      -4.051  -1.486   0.090  0.00  0.00    +0.046 A 
ATOM      5  N   UNL     1      -5.257  -1.957  -0.118  0.00  0.00    -0.358 N 
ATOM      6  C   UNL     1      -5.543  -1.899  -1.542  0.00  0.00    +0.253 C 
ATOM      7  C   UNL     1      -4.224  -1.565  -2.216  0.00  0.00    +0.115 C 
ATOM      8  C   UNL     1      -3.358  -1.238  -1.200  0.00  0.00    +0.025 A 
ATOM      9  C   UNL     1      -2.034  -0.745  -1.168  0.00  0.00    +0.015 A 
ATOM     10  N   UNL     1      -4.041  -1.740  -3.527  0.00  0.00    -0.171 NA
ATOM     11  N   UNL     1      -4.774  -2.661  -4.075  0.00  0.00    -0.247 N 
ATOM     12  C   UNL     1      -5.618  -3.437  -3.352  0.00  0.00    +0.227 C 
ATOM     13  N   UNL     1      -6.003  -3.158  -2.128  0.00  0.00    -0.220 NA
ATOM     14  N   UNL     1      -6.105  -4.587  -3.938  0.00  0.00    -0.206 N 
ATOM     15  H   UNL     1      -5.841  -4.820  -4.842  0.00  0.00    +0.177 HD
ATOM     16  H   UNL     1      -4.716  -2.798  -5.034  0.00  0.00    +0.192 HD
ATOM     17  H   UNL     1      -5.859  -2.290   0.566  0.00  0.00    +0.162 HD
ENDROOT
BRANCH   1  19
ATOM     18  C   UNL     1      -0.019   1.526   0.010  0.00  0.00    +0.009 C 
ATOM     19  C   UNL     1       0.002  -0.004   0.002  0.00  0.00    +0.032 C 
ENDBRANCH   1  19
BRANCH  14  20
ATOM     20  N   UNL     1      -6.980  -5.419  -3.227  0.00  0.00    -0.188 NA
ATOM     21  C   UNL     1      -7.438  -6.502  -3.778  0.00  0.00    +0.138 C 
BRANCH  21  22
ATOM     22  C   UNL     1      -8.358  -7.377  -3.030  0.00  0.00    +0.002 A 
ATOM     23  C   UNL     1      -8.743  -7.040  -1.730  0.00  0.00    +0.059 A 
ATOM     24  C   UNL     1      -9.608  -7.863  -1.030  0.00  0.00    +0.166 A 
ATOM     25  C   UNL     1     -10.094  -9.025  -1.621  0.00  0.00    +0.201 A 
ATOM     26  C   UNL     1      -9.712  -9.364  -2.915  0.00  0.00    +0.166 A 
ATOM     27  C   UNL     1      -8.853  -8.542  -3.622  0.00  0.00    +0.059 A 
BRANCH  26  28
ATOM     28  O   UNL     1     -10.189 -10.502  -3.488  0.00  0.00    -0.491 OA
ATOM     29  C   UNL     1      -9.756 -10.788  -4.820  0.00  0.00    +0.277 C 
ENDBRANCH  26  28
BRANCH  25  30
ATOM     30  O   UNL     1     -10.944  -9.833  -0.930  0.00  0.00    -0.501 OA
ATOM     31  H   UNL     1     -11.878  -9.616  -1.052  0.00  0.00    +0.292 HD
ENDBRANCH  25  30
BRANCH  24  32
ATOM     32  O   UNL     1      -9.982  -7.536   0.235  0.00  0.00    -0.491 OA
ATOM     33  C   UNL     1      -9.445  -6.328   0.779  0.00  0.00    +0.277 C 
ENDBRANCH  24  32
ENDBRANCH  21  22
ENDBRANCH  14  20
TORSDOF 6
