REMARK  Name = ZINC09282140
REMARK  11 active torsions:
REMARK  status: ('A' for Active; 'I' for Inactive)
REMARK    1  A    between atoms: C_1  and  C_2
REMARK    2  A    between atoms: C_2  and  O_3
REMARK    3  A    between atoms: O_3  and  C_4
REMARK    4  A    between atoms: C_7  and  C_10
REMARK    5  A    between atoms: C_17  and  N_34
REMARK    6  A    between atoms: C_18  and  C_32
REMARK    7  A    between atoms: C_19  and  C_21
REMARK    8  A    between atoms: C_23  and  O_30
REMARK    9  A    between atoms: C_24  and  O_28
REMARK   10  A    between atoms: O_28  and  C_29
REMARK   11  A    between atoms: O_30  and  C_31
REMARK                            x       y       z     vdW  Elec       q    Type
REMARK                         _______ _______ _______ _____ _____    ______ ____
ROOT
ATOM      1  C   UNL     1       1.356  -6.497  -1.912  0.00  0.00    +0.100 A 
ATOM      2  C   UNL     1       1.051  -6.965  -3.193  0.00  0.00    +0.054 A 
ATOM      3  C   UNL     1       1.140  -8.327  -3.178  0.00  0.00    +0.223 A 
ATOM      4  N   UNL     1       1.490  -8.702  -1.930  0.00  0.00    -0.246 N 
ATOM      5  H   UNL     1       1.628  -9.612  -1.626  0.00  0.00    +0.192 HD
ATOM      6  N   UNL     1       1.626  -7.542  -1.152  0.00  0.00    -0.171 NA
ATOM      7  O   UNL     1       0.898  -9.089  -4.274  0.00  0.00    -0.423 OA
ATOM      8  C   UNL     1       0.297  -8.497  -5.326  0.00  0.00    +0.200 C 
ATOM      9  C   UNL     1       0.162  -7.159  -5.460  0.00  0.00    +0.098 C 
ATOM     10  C   UNL     1       0.681  -6.187  -4.429  0.00  0.00    +0.103 C 
ENDROOT
BRANCH  10  11
ATOM     11  C   UNL     1       1.897  -5.478  -4.967  0.00  0.00    -0.017 A 
ATOM     12  C   UNL     1       3.055  -6.191  -5.222  0.00  0.00    +0.055 A 
ATOM     13  C   UNL     1       4.174  -5.541  -5.717  0.00  0.00    +0.162 A 
ATOM     14  C   UNL     1       4.130  -4.171  -5.956  0.00  0.00    +0.163 A 
ATOM     15  C   UNL     1       2.968  -3.462  -5.699  0.00  0.00    +0.065 A 
ATOM     16  C   UNL     1       1.852  -4.118  -5.210  0.00  0.00    +0.026 A 
ATOM     17 BR   UNL     1       0.265  -3.150  -4.866  0.00  0.00    -0.050 Br
BRANCH  14  18
ATOM     18  O   UNL     1       5.226  -3.529  -6.442  0.00  0.00    -0.491 OA
ATOM     19  C   UNL     1       5.109  -2.122  -6.663  0.00  0.00    +0.277 C 
ENDBRANCH  14  18
BRANCH  13  20
ATOM     20  O   UNL     1       5.313  -6.241  -5.968  0.00  0.00    -0.491 OA
ATOM     21  C   UNL     1       5.285  -7.644  -5.698  0.00  0.00    +0.277 C 
ENDBRANCH  13  20
ENDBRANCH  10  11
BRANCH   1  25
ATOM     22  C   UNL     1       1.423  -2.425  -0.685  0.00  0.00    +0.121 A 
ATOM     23  C   UNL     1       2.437  -3.285  -0.287  0.00  0.00    +0.046 A 
ATOM     24  C   UNL     1       2.418  -4.606  -0.683  0.00  0.00    +0.013 A 
ATOM     25  C   UNL     1       1.379  -5.077  -1.483  0.00  0.00    +0.003 A 
ATOM     26  C   UNL     1       0.362  -4.211  -1.881  0.00  0.00    +0.013 A 
ATOM     27  C   UNL     1       0.384  -2.892  -1.478  0.00  0.00    +0.046 A 
BRANCH  22  28
ATOM     28  O   UNL     1       1.445  -1.123  -0.293  0.00  0.00    -0.492 OA
BRANCH  28  30
ATOM     29  C   UNL     1       2.396   0.775   0.860  0.00  0.00    +0.048 C 
ATOM     30  C   UNL     1       2.543  -0.709   0.522  0.00  0.00    +0.225 C 
ENDBRANCH  28  30
ENDBRANCH  22  28
ENDBRANCH   1  25
BRANCH   8  31
ATOM     31  N   UNL     1      -0.205  -9.300  -6.320  0.00  0.00    -0.328 N 
ATOM     32  H   UNL     1      -0.123 -10.264  -6.252  0.00  0.00    +0.145 HD
ATOM     33  H   UNL     1      -0.643  -8.903  -7.089  0.00  0.00    +0.145 HD
ENDBRANCH   8  31
BRANCH   9  34
ATOM     34  C   UNL     1      -0.499  -6.645  -6.621  0.00  0.00    +0.101 C 
ATOM     35  N   UNL     1      -1.023  -6.237  -7.543  0.00  0.00    -0.191 NA
ENDBRANCH   9  34
TORSDOF 8
