REMARK  Name = ZINC03151143
REMARK  4 active torsions:
REMARK  status: ('A' for Active; 'I' for Inactive)
REMARK    1  A    between atoms: C_3  and  C_8
REMARK    2  A    between atoms: N_9  and  N_10
REMARK    3  A    between atoms: C_11  and  C_13
REMARK    4  A    between atoms: N_15  and  C_16
REMARK                            x       y       z     vdW  Elec       q    Type
REMARK                         _______ _______ _______ _____ _____    ______ ____
ROOT
ATOM      1  N   UNL     1       2.443   1.315  -0.010  0.00  0.00    -0.199 N 
ATOM      2  C   UNL     1       1.267   1.973   0.007  0.00  0.00    +0.318 C 
ATOM      3  O   UNL     1       1.250   3.187   0.023  0.00  0.00    -0.263 OA
ATOM      4  H   UNL     1       2.456   0.346  -0.022  0.00  0.00    +0.178 HD
ENDROOT
BRANCH   2   5
ATOM      5  C   UNL     1      -0.014   1.210   0.007  0.00  0.00    +0.305 C 
ATOM      6  O   UNL     1       0.002  -0.004  -0.009  0.00  0.00    -0.265 OA
ATOM      7  N   UNL     1      -1.191   1.868   0.018  0.00  0.00    -0.278 N 
ATOM      8  H   UNL     1      -1.205   2.834   0.098  0.00  0.00    +0.155 HD
BRANCH   7   9
ATOM      9  C   UNL     1      -2.389   1.157  -0.086  0.00  0.00    +0.037 A 
ATOM     10  C   UNL     1      -3.467   1.707  -0.770  0.00  0.00    +0.023 A 
ATOM     11  C   UNL     1      -4.649   1.001  -0.876  0.00  0.00    +0.005 A 
ATOM     12  C   UNL     1      -4.766  -0.248  -0.293  0.00  0.00    +0.038 A 
ATOM     13  C   UNL     1      -3.696  -0.797   0.395  0.00  0.00    +0.125 A 
ATOM     14  C   UNL     1      -2.508  -0.096   0.499  0.00  0.00    +0.061 A 
ATOM     15  F   UNL     1      -3.813  -2.017   0.964  0.00  0.00    -0.205 F 
ENDBRANCH   7   9
ENDBRANCH   2   5
BRANCH   1  17
ATOM     16  C   UNL     1       4.780   1.399  -0.025  0.00  0.00    +0.138 C 
ATOM     17  N   UNL     1       3.647   2.033  -0.009  0.00  0.00    -0.187 NA
BRANCH  16  20
ATOM     18  C   UNL     1       8.449   2.187  -0.042  0.00  0.00    +0.002 A 
ATOM     19  C   UNL     1       7.268   1.475  -0.042  0.00  0.00    +0.009 A 
ATOM     20  C   UNL     1       6.047   2.153  -0.025  0.00  0.00    -0.004 A 
ATOM     21  C   UNL     1       6.031   3.550  -0.013  0.00  0.00    +0.024 A 
ATOM     22  C   UNL     1       7.221   4.250  -0.008  0.00  0.00    +0.018 A 
ATOM     23  C   UNL     1       8.427   3.570  -0.025  0.00  0.00    +0.015 A 
ATOM     24 BR   UNL     1       7.203   6.141   0.016  0.00  0.00    -0.050 Br
ENDBRANCH  16  20
ENDBRANCH   1  17
TORSDOF 4
