REMARK  Name = ZINC03655224
REMARK  9 active torsions:
REMARK  status: ('A' for Active; 'I' for Inactive)
REMARK    1  A    between atoms: C_1  and  C_2
REMARK    2  A    between atoms: C_2  and  C_3
REMARK    3  A    between atoms: C_3  and  C_4
REMARK    4  A    between atoms: C_4  and  C_5
REMARK    5  A    between atoms: C_5  and  C_6
REMARK    6  A    between atoms: C_6  and  S_7
REMARK    7  A    between atoms: S_7  and  C_8
REMARK    8  A    between atoms: C_21  and  C_24
REMARK    9  A    between atoms: C_28  and  O_30
REMARK                            x       y       z     vdW  Elec       q    Type
REMARK                         _______ _______ _______ _____ _____    ______ ____
ROOT
ATOM      1  C   UNL     1      -3.534   3.493   0.090  0.00  0.00    +0.212 A 
ATOM      2  N   UNL     1      -2.610   3.852  -0.797  0.00  0.00    -0.184 NA
ATOM      3  C   UNL     1      -1.464   3.194  -0.839  0.00  0.00    +0.248 A 
ATOM      4  C   UNL     1      -1.257   2.132   0.070  0.00  0.00    +0.156 A 
ATOM      5  N   UNL     1      -2.219   1.823   0.925  0.00  0.00    -0.141 NA
ATOM      6  N   UNL     1      -3.323   2.487   0.929  0.00  0.00    -0.122 NA
ATOM      7  C   UNL     1       0.023   1.394   0.050  0.00  0.00    +0.029 A 
ATOM      8  C   UNL     1       0.061   0.005   0.062  0.00  0.00    +0.027 A 
ATOM      9  C   UNL     1       1.279  -0.648   0.066  0.00  0.00    +0.019 A 
ATOM     10  C   UNL     1       2.461   0.073   0.058  0.00  0.00    +0.017 A 
ATOM     11  C   UNL     1       2.437   1.456   0.041  0.00  0.00    +0.025 A 
ATOM     12  C   UNL     1       1.227   2.123   0.031  0.00  0.00    +0.040 A 
ATOM     13  N   UNL     1       1.165   3.520  -0.015  0.00  0.00    -0.305 N 
ATOM     14  C   UNL     1       0.667   4.162  -1.228  0.00  0.00    +0.294 C 
ATOM     15  O   UNL     1      -0.497   3.516  -1.730  0.00  0.00    -0.449 OA
ATOM     16 BR   UNL     1       1.331  -2.538   0.081  0.00  0.00    -0.050 Br
ATOM     17  H   UNL     1       1.447   4.052   0.745  0.00  0.00    +0.150 HD
ENDROOT
BRANCH  14  18
ATOM     18  C   UNL     1       1.744   4.121  -2.282  0.00  0.00    +0.015 A 
ATOM     19  C   UNL     1       3.065   4.326  -1.928  0.00  0.00    +0.009 A 
ATOM     20  C   UNL     1       4.056   4.284  -2.892  0.00  0.00    +0.004 A 
ATOM     21  C   UNL     1       3.727   4.047  -4.213  0.00  0.00    +0.045 A 
ATOM     22  C   UNL     1       2.402   3.847  -4.571  0.00  0.00    +0.117 A 
ATOM     23  C   UNL     1       1.410   3.885  -3.601  0.00  0.00    +0.054 A 
BRANCH  22  24
ATOM     24  O   UNL     1       2.075   3.615  -5.870  0.00  0.00    -0.507 OA
ATOM     25  H   UNL     1       1.886   4.416  -6.377  0.00  0.00    +0.292 HD
ENDBRANCH  22  24
ENDBRANCH  14  18
BRANCH   1  26
ATOM     26  S   UNL     1      -5.063   4.366   0.151  0.00  0.00    -0.084 S 
BRANCH  26  27
ATOM     27  C   UNL     1      -5.884   3.470   1.492  0.00  0.00    +0.077 C 
BRANCH  27  28
ATOM     28  C   UNL     1      -7.271   4.069   1.732  0.00  0.00    +0.011 C 
BRANCH  28  29
ATOM     29  C   UNL     1      -7.965   3.311   2.865  0.00  0.00    +0.001 C 
BRANCH  29  30
ATOM     30  C   UNL     1      -9.352   3.910   3.106  0.00  0.00    -0.000 C 
BRANCH  30  32
ATOM     31  C   UNL     1     -11.433   3.752   4.479  0.00  0.00    +0.004 C 
ATOM     32  C   UNL     1     -10.046   3.153   4.239  0.00  0.00    -0.003 C 
ENDBRANCH  30  32
ENDBRANCH  29  30
ENDBRANCH  28  29
ENDBRANCH  27  28
ENDBRANCH  26  27
ENDBRANCH   1  26
TORSDOF 8
