REMARK  Name = ZINC13570085
REMARK  4 active torsions:
REMARK  status: ('A' for Active; 'I' for Inactive)
REMARK    1  A    between atoms: C_7  and  C_11
REMARK    2  A    between atoms: C_11  and  C_12
REMARK    3  A    between atoms: C_12  and  N_13
REMARK    4  A    between atoms: C_14  and  C_16
REMARK                            x       y       z     vdW  Elec       q    Type
REMARK                         _______ _______ _______ _____ _____    ______ ____
ROOT
ATOM      1  C   UNL     1      -2.130  -6.391  -2.585  0.00  0.00    +0.092 C 
ATOM      2  C   UNL     1      -3.374  -6.050  -1.762  0.00  0.00    +0.016 C 
ATOM      3  C   UNL     1      -4.323  -7.251  -1.746  0.00  0.00    +0.020 C 
ATOM      4  C   UNL     1      -4.763  -7.567  -3.179  0.00  0.00    +0.106 C 
ATOM      5  N   UNL     1      -3.567  -7.754  -4.011  0.00  0.00    -0.313 N 
ATOM      6  C   UNL     1      -2.545  -6.698  -4.028  0.00  0.00    +0.119 C 
ATOM      7  C   UNL     1      -3.405  -8.903  -4.766  0.00  0.00    +0.154 A 
ATOM      8  C   UNL     1      -2.326  -9.031  -5.657  0.00  0.00    +0.148 A 
ATOM      9  C   UNL     1      -2.214 -10.221  -6.396  0.00  0.00    +0.164 A 
ATOM     10  N   UNL     1      -1.091 -10.079  -7.172  0.00  0.00    -0.329 N 
ATOM     11  H   UNL     1      -0.740 -10.732  -7.798  0.00  0.00    +0.168 HD
ATOM     12  C   UNL     1      -0.560  -8.853  -6.903  0.00  0.00    +0.198 A 
ATOM     13  N   UNL     1      -1.286  -8.240  -6.014  0.00  0.00    -0.231 NA
ATOM     14  N   UNL     1      -3.124 -11.175  -6.228  0.00  0.00    -0.198 NA
ATOM     15  C   UNL     1      -4.120 -11.010  -5.380  0.00  0.00    +0.226 A 
ATOM     16  N   UNL     1      -4.263  -9.912  -4.659  0.00  0.00    -0.200 NA
ATOM     17 CL   UNL     1      -5.282 -12.287  -5.199  0.00  0.00    -0.041 Cl
ENDROOT
BRANCH   1  19
ATOM     18  N   UNL     1      -0.684  -4.769  -1.405  0.00  0.00    -0.315 N 
ATOM     19  C   UNL     1      -1.182  -5.220  -2.573  0.00  0.00    +0.218 C 
ATOM     20  O   UNL     1      -0.868  -4.683  -3.614  0.00  0.00    -0.275 OA
ATOM     21  H   UNL     1      -0.935  -5.198  -0.572  0.00  0.00    +0.149 HD
BRANCH  18  22
ATOM     22  C   UNL     1       0.238  -3.630  -1.393  0.00  0.00    +0.109 C 
BRANCH  22  23
ATOM     23  C   UNL     1       0.651  -3.323   0.048  0.00  0.00    +0.056 C 
BRANCH  23  30
ATOM     24  C   UNL     1       0.011   1.321   0.078  0.00  0.00    +0.001 A 
ATOM     25  C   UNL     1       1.204   2.031   0.089  0.00  0.00    +0.002 A 
ATOM     26  C   UNL     1       2.413   1.373   0.090  0.00  0.00    +0.026 A 
ATOM     27  C   UNL     1       2.443  -0.018   0.080  0.00  0.00    +0.047 A 
ATOM     28  C   UNL     1       1.232  -0.734   0.069  0.00  0.00    +0.003 A 
ATOM     29  C   UNL     1       0.017  -0.045   0.068  0.00  0.00    +0.010 A 
ATOM     30  C   UNL     1       1.599  -2.152   0.060  0.00  0.00    -0.021 A 
ATOM     31  C   UNL     1       2.940  -2.210   0.066  0.00  0.00    +0.087 A 
ATOM     32  N   UNL     1       3.462  -0.945   0.077  0.00  0.00    -0.360 N 
ATOM     33  H   UNL     1       4.408  -0.733   0.083  0.00  0.00    +0.165 HD
ENDBRANCH  23  30
ENDBRANCH  22  23
ENDBRANCH  18  22
ENDBRANCH   1  19
TORSDOF 4
