REMARK  Name = ZINC22189125
REMARK  4 active torsions:
REMARK  status: ('A' for Active; 'I' for Inactive)
REMARK    1  A    between atoms: C_7  and  S_16
REMARK    2  A    between atoms: C_9  and  C_11
REMARK    3  A    between atoms: S_16  and  C_17
REMARK    4  A    between atoms: C_17  and  C_18
REMARK                            x       y       z     vdW  Elec       q    Type
REMARK                         _______ _______ _______ _____ _____    ______ ____
ROOT
ATOM      1  C   UNL     1      -7.011   1.647   0.080  0.00  0.00    +0.001 A 
ATOM      2  C   UNL     1      -8.052   0.723   0.085  0.00  0.00    +0.002 A 
ATOM      3  C   UNL     1      -7.803  -0.618   0.076  0.00  0.00    +0.028 A 
ATOM      4  C   UNL     1      -6.478  -1.075   0.061  0.00  0.00    +0.076 A 
ATOM      5  C   UNL     1      -5.420  -0.131   0.055  0.00  0.00    +0.032 A 
ATOM      6  C   UNL     1      -5.710   1.236   0.065  0.00  0.00    +0.012 A 
ATOM      7  C   UNL     1      -4.049  -0.638   0.039  0.00  0.00    +0.109 A 
ATOM      8  N   UNL     1      -3.878  -1.953   0.025  0.00  0.00    -0.218 NA
ATOM      9  C   UNL     1      -4.919  -2.786   0.036  0.00  0.00    +0.197 A 
ATOM     10  N   UNL     1      -6.176  -2.379   0.051  0.00  0.00    -0.225 NA
ENDROOT
BRANCH   9  11
ATOM     11  C   UNL     1      -4.653  -4.237   0.025  0.00  0.00    +0.172 A 
ATOM     12  C   UNL     1      -3.425  -4.825   0.010  0.00  0.00    +0.053 A 
ATOM     13  C   UNL     1      -3.642  -6.215   0.004  0.00  0.00    +0.042 A 
ATOM     14  C   UNL     1      -4.977  -6.408   0.017  0.00  0.00    +0.196 A 
ATOM     15  O   UNL     1      -5.584  -5.212   0.035  0.00  0.00    -0.460 OA
ENDBRANCH   9  11
BRANCH   7  16
ATOM     16  S   UNL     1      -2.672   0.461   0.031  0.00  0.00    -0.097 S 
BRANCH  16  17
ATOM     17  C   UNL     1      -1.315  -0.737   0.011  0.00  0.00    +0.150 C 
BRANCH  17  18
ATOM     18  C   UNL     1       0.002  -0.004   0.002  0.00  0.00    +0.121 A 
ATOM     19  N   UNL     1       1.147  -0.736  -0.013  0.00  0.00    -0.310 N 
ATOM     20  H   UNL     1       1.097  -1.835  -0.018  0.00  0.00    +0.170 HD
ATOM     21  C   UNL     1       2.355  -0.125  -0.021  0.00  0.00    +0.259 A 
ATOM     22  O   UNL     1       3.388  -0.768  -0.035  0.00  0.00    -0.267 OA
ATOM     23  C   UNL     1       2.370   1.345  -0.013  0.00  0.00    +0.066 A 
ATOM     24  C   UNL     1       3.560   2.070  -0.020  0.00  0.00    +0.035 A 
ATOM     25  C   UNL     1       3.517   3.448  -0.012  0.00  0.00    +0.042 A 
ATOM     26  C   UNL     1       2.298   4.115   0.004  0.00  0.00    +0.022 A 
ATOM     27  C   UNL     1       1.111   3.417   0.011  0.00  0.00    +0.030 A 
ATOM     28  C   UNL     1       1.130   2.021   0.002  0.00  0.00    +0.078 A 
ATOM     29  N   UNL     1      -0.015   1.294   0.009  0.00  0.00    -0.233 NA
ATOM     30 CL   UNL     1       4.996   4.356  -0.021  0.00  0.00    -0.084 Cl
ENDBRANCH  17  18
ENDBRANCH  16  17
ENDBRANCH   7  16
TORSDOF 4
