REMARK  Name = ZINC22339961
REMARK  9 active torsions:
REMARK  status: ('A' for Active; 'I' for Inactive)
REMARK    1  A    between atoms: C_1  and  C_2
REMARK    2  A    between atoms: C_6  and  C_30
REMARK    3  A    between atoms: C_7  and  O_8
REMARK    4  A    between atoms: O_8  and  C_9
REMARK    5  A    between atoms: C_9  and  C_10
REMARK    6  A    between atoms: N_12  and  N_13
REMARK    7  A    between atoms: C_14  and  C_15
REMARK    8  A    between atoms: N_18  and  N_19
REMARK    9  A    between atoms: N_19  and  C_20
REMARK                            x       y       z     vdW  Elec       q    Type
REMARK                         _______ _______ _______ _____ _____    ______ ____
ROOT
ATOM      1  N   UNL     1      -1.931   2.064   6.198  0.00  0.00    -0.188 NA
ATOM      2  C   UNL     1      -2.960   2.442   6.895  0.00  0.00    +0.142 C 
ENDROOT
BRANCH   2   3
ATOM      3  C   UNL     1      -2.766   3.177   8.155  0.00  0.00    +0.043 C 
ATOM      4  C   UNL     1      -3.854   3.579   8.907  0.00  0.00    +0.042 C 
ATOM      5  C   UNL     1      -3.648   4.283  10.112  0.00  0.00    +0.083 C 
ATOM      6  N   UNL     1      -4.695   4.670  10.837  0.00  0.00    -0.183 NA
ATOM      7  C   UNL     1      -2.339   4.580  10.558  0.00  0.00    +0.033 C 
ATOM      8  C   UNL     1      -1.255   4.199   9.841  0.00  0.00    +0.053 C 
ATOM      9  C   UNL     1      -1.415   3.488   8.634  0.00  0.00    +0.188 C 
ATOM     10  O   UNL     1      -0.436   3.139   7.990  0.00  0.00    -0.287 OA
BRANCH   6  11
ATOM     11  N   UNL     1      -4.514   5.217  11.991  0.00  0.00    -0.237 N 
ATOM     12  H   UNL     1      -3.615   5.414  12.299  0.00  0.00    +0.174 HD
BRANCH  11  13
ATOM     13  C   UNL     1      -5.608   5.526  12.796  0.00  0.00    +0.048 A 
ATOM     14  C   UNL     1      -6.897   5.239  12.359  0.00  0.00    +0.025 A 
ATOM     15  C   UNL     1      -7.979   5.546  13.159  0.00  0.00    +0.002 A 
ATOM     16  C   UNL     1      -7.783   6.137  14.394  0.00  0.00    +0.000 A 
ATOM     17  C   UNL     1      -6.503   6.424  14.832  0.00  0.00    +0.002 A 
ATOM     18  C   UNL     1      -5.415   6.115  14.040  0.00  0.00    +0.025 A 
ENDBRANCH  11  13
ENDBRANCH   6  11
ENDBRANCH   2   3
BRANCH   1  21
ATOM     19  C   UNL     1      -1.048   0.971   4.276  0.00  0.00    +0.270 C 
ATOM     20  O   UNL     1       0.073   1.224   4.664  0.00  0.00    -0.270 OA
ATOM     21  N   UNL     1      -2.116   1.364   4.999  0.00  0.00    -0.204 N 
ATOM     22  H   UNL     1      -3.013   1.162   4.689  0.00  0.00    +0.177 HD
BRANCH  19  23
ATOM     23  C   UNL     1      -1.248   0.218   2.986  0.00  0.00    +0.326 C 
BRANCH  23  24
ATOM     24  O   UNL     1       0.025  -0.084   2.409  0.00  0.00    -0.482 OA
BRANCH  24  31
ATOM     25  C   UNL     1      -0.030   1.432   0.026  0.00  0.00    +0.047 C 
ATOM     26  C   UNL     1      -0.003  -0.075   0.031  0.00  0.00    -0.007 A 
ATOM     27  C   UNL     1       0.001  -0.770  -1.163  0.00  0.00    +0.022 A 
ATOM     28  C   UNL     1       0.025  -2.153  -1.160  0.00  0.00    +0.019 A 
ATOM     29  C   UNL     1       0.046  -2.844   0.039  0.00  0.00    +0.022 A 
ATOM     30  C   UNL     1       0.043  -2.153   1.235  0.00  0.00    -0.007 A 
ATOM     31  C   UNL     1       0.023  -0.765   1.234  0.00  0.00    +0.127 A 
ATOM     32  C   UNL     1       0.065  -2.905   2.540  0.00  0.00    +0.047 C 
ATOM     33 BR   UNL     1       0.030  -3.101  -2.796  0.00  0.00    -0.050 Br
ENDBRANCH  24  31
ENDBRANCH  23  24
ENDBRANCH  19  23
ENDBRANCH   1  21
TORSDOF 7
