REMARK  Name = ZINC35557479
REMARK  5 active torsions:
REMARK  status: ('A' for Active; 'I' for Inactive)
REMARK    1  A    between atoms: C_1  and  C_2
REMARK    2  A    between atoms: N_8  and  S_9
REMARK    3  A    between atoms: S_9  and  C_12
REMARK    4  A    between atoms: C_14  and  C_17
REMARK    5  A    between atoms: C_19  and  C_22
REMARK                            x       y       z     vdW  Elec       q    Type
REMARK                         _______ _______ _______ _____ _____    ______ ____
ROOT
ATOM      1  C   UNL     1       0.087  -5.011   3.896  0.00  0.00    +0.150 A 
ATOM      2  C   UNL     1      -0.959  -5.301   4.703  0.00  0.00    +0.048 A 
ATOM      3  C   UNL     1      -0.645  -5.729   5.993  0.00  0.00    +0.031 A 
ATOM      4  C   UNL     1       0.669  -5.824   6.339  0.00  0.00    +0.058 A 
ATOM      5  S   UNL     1       1.484  -5.350   4.949  0.00  0.00    -0.076 S 
ENDROOT
BRANCH   3   6
ATOM      6  C   UNL     1      -1.714  -6.073   6.962  0.00  0.00    +0.203 A 
ATOM      7  N   UNL     1      -1.522  -6.490   8.227  0.00  0.00    -0.191 NA
ATOM      8  C   UNL     1      -2.669  -6.705   8.804  0.00  0.00    +0.231 A 
ATOM      9  O   UNL     1      -3.644  -6.432   7.927  0.00  0.00    -0.337 OA
ATOM     10  N   UNL     1      -3.003  -6.016   6.731  0.00  0.00    -0.056 NA
BRANCH   8  11
ATOM     11  C   UNL     1      -2.867  -7.180  10.221  0.00  0.00    +0.078 C 
ATOM     12  C   UNL     1      -3.692  -8.483  10.230  0.00  0.00    +0.013 C 
ATOM     13  C   UNL     1      -4.593  -8.353  11.484  0.00  0.00    +0.001 C 
ATOM     14  C   UNL     1      -4.964  -6.849  11.483  0.00  0.00    +0.001 C 
ATOM     15  C   UNL     1      -3.675  -6.141  11.017  0.00  0.00    +0.013 C 
ENDBRANCH   8  11
ENDBRANCH   3   6
BRANCH   1  16
ATOM     16  S   UNL     1       0.072  -4.449   2.227  0.00  0.00    +0.107 S 
ATOM     17  O   UNL     1      -1.171  -4.858   1.672  0.00  0.00    -0.146 OA
ATOM     18  O   UNL     1       1.319  -4.825   1.660  0.00  0.00    -0.146 OA
BRANCH  16  26
ATOM     19  C   UNL     1      -0.018   1.503   0.010  0.00  0.00    +0.044 C 
ATOM     20  C   UNL     1       0.002  -0.004   0.002  0.00  0.00    -0.046 A 
ATOM     21  C   UNL     1       0.006  -0.704  -1.217  0.00  0.00    +0.021 A 
ATOM     22  C   UNL     1       0.024  -2.053  -1.230  0.00  0.00    +0.084 A 
ATOM     23  N   UNL     1       0.039  -2.761  -0.066  0.00  0.00    -0.345 N 
ATOM     24  C   UNL     1       0.036  -2.108   1.143  0.00  0.00    +0.153 A 
ATOM     25  C   UNL     1       0.022  -0.693   1.173  0.00  0.00    +0.051 A 
ATOM     26  N   UNL     1       0.051  -2.794   2.267  0.00  0.00    -0.110 NA
ATOM     27  H   UNL     1       0.052  -3.731  -0.090  0.00  0.00    +0.167 HD
ENDBRANCH  16  26
ENDBRANCH   1  16
TORSDOF 4
