REMARK  Name = ZINC04078793
REMARK  5 active torsions:
REMARK  status: ('A' for Active; 'I' for Inactive)
REMARK    1  A    between atoms: C_1  and  C_2
REMARK    2  A    between atoms: C_9  and  N_13
REMARK    3  A    between atoms: C_10  and  C_11
REMARK    4  A    between atoms: C_14  and  C_16
REMARK    5  A    between atoms: C_20  and  N_25
REMARK                            x       y       z     vdW  Elec       q    Type
REMARK                         _______ _______ _______ _____ _____    ______ ____
ROOT
ATOM      1  N   UNL     1       4.727   4.293   0.265  0.00  0.00    -0.275 N 
ATOM      2  C   UNL     1       4.468   5.567   0.620  0.00  0.00    +0.255 C 
ATOM      3  O   UNL     1       3.321   5.920   0.823  0.00  0.00    -0.269 OA
ATOM      4  H   UNL     1       5.641   4.011   0.103  0.00  0.00    +0.156 HD
ENDROOT
BRANCH   1  12
ATOM      5  C   UNL     1      -1.402  -0.534  -0.293  0.00  0.00    +0.008 C 
ATOM      6  C   UNL     1       0.002  -0.004   0.002  0.00  0.00    -0.009 C 
ATOM      7  C   UNL     1       0.972  -0.478  -1.084  0.00  0.00    +0.008 C 
ATOM      8  C   UNL     1       2.411  -0.167  -0.669  0.00  0.00    +0.037 C 
ATOM      9  C   UNL     1       2.505   1.307  -0.294  0.00  0.00    -0.018 A 
ATOM     10  C   UNL     1       1.396   2.022  -0.000  0.00  0.00    -0.004 A 
ATOM     11  S   UNL     1       1.991   3.650   0.363  0.00  0.00    -0.077 S 
ATOM     12  C   UNL     1       3.688   3.385   0.130  0.00  0.00    +0.090 A 
ATOM     13  C   UNL     1       3.753   2.046  -0.224  0.00  0.00    +0.084 A 
ATOM     14  C   UNL     1      -0.019   1.531   0.011  0.00  0.00    +0.046 C 
BRANCH  13  15
ATOM     15  C   UNL     1       5.006   1.414  -0.510  0.00  0.00    +0.102 C 
ATOM     16  N   UNL     1       6.000   0.913  -0.737  0.00  0.00    -0.191 NA
ENDBRANCH  13  15
ENDBRANCH   1  12
BRANCH   2  17
ATOM     17  C   UNL     1       5.570   6.529   0.763  0.00  0.00    +0.075 A 
ATOM     18  C   UNL     1       5.508   7.842   1.109  0.00  0.00    +0.029 A 
ATOM     19  C   UNL     1       6.689   8.602   1.192  0.00  0.00    -0.008 A 
ATOM     20  C   UNL     1       6.830   9.972   1.534  0.00  0.00    +0.041 A 
ATOM     21  C   UNL     1       8.054  10.557   1.567  0.00  0.00    +0.127 A 
ATOM     22  C   UNL     1       9.210   9.845   1.270  0.00  0.00    +0.034 A 
ATOM     23  C   UNL     1       9.119   8.510   0.933  0.00  0.00    +0.018 A 
ATOM     24  C   UNL     1       7.882   7.902   0.895  0.00  0.00    +0.020 A 
ATOM     25  S   UNL     1       7.318   6.259   0.531  0.00  0.00    -0.084 S 
BRANCH  21  26
ATOM     26  N   UNL     1       8.161  11.989   1.928  0.00  0.00    +0.056 N 
ATOM     27  O   UNL     1       7.157  12.627   2.191  0.00  0.00    -0.126 OA
ATOM     28  O   UNL     1       9.252  12.528   1.963  0.00  0.00    -0.126 OA
ENDBRANCH  21  26
ENDBRANCH   2  17
TORSDOF 4
