REMARK  Name = ZINC13205869
REMARK  11 active torsions:
REMARK  status: ('A' for Active; 'I' for Inactive)
REMARK    1  A    between atoms: C_1  and  C_2
REMARK    2  A    between atoms: C_6  and  C_8
REMARK    3  A    between atoms: C_11  and  S_16
REMARK    4  A    between atoms: N_12  and  C_13
REMARK    5  A    between atoms: C_13  and  C_14
REMARK    6  A    between atoms: S_16  and  C_17
REMARK    7  A    between atoms: C_17  and  C_19
REMARK    8  A    between atoms: C_17  and  C_20
REMARK    9  A    between atoms: N_22  and  C_23
REMARK   10  A    between atoms: C_23  and  C_25
REMARK   11  A    between atoms: C_23  and  C_26
REMARK                            x       y       z     vdW  Elec       q    Type
REMARK                         _______ _______ _______ _____ _____    ______ ____
ROOT
ATOM      1  S   UNL     1      -2.181   2.672   0.112  0.00  0.00    -0.074 S 
ENDROOT
BRANCH   1   5
ATOM      2  C   UNL     1       0.832   0.208  -0.224  0.00  0.00    +0.165 A 
ATOM      3  N   UNL     1       1.415   1.384  -0.270  0.00  0.00    -0.128 NA
ATOM      4  N   UNL     1       0.534   2.314  -0.167  0.00  0.00    -0.122 NA
ATOM      5  C   UNL     1      -0.665   1.789  -0.050  0.00  0.00    +0.193 A 
ATOM      6  N   UNL     1      -0.518   0.432  -0.082  0.00  0.00    -0.291 N 
BRANCH   2  12
ATOM      7  C   UNL     1       4.956  -2.573   0.176  0.00  0.00    +0.044 C 
ATOM      8  C   UNL     1       3.483  -2.450  -0.118  0.00  0.00    -0.050 A 
ATOM      9  C   UNL     1       2.754  -3.572  -0.469  0.00  0.00    +0.003 A 
ATOM     10  C   UNL     1       1.401  -3.468  -0.741  0.00  0.00    +0.001 A 
ATOM     11  C   UNL     1       0.771  -2.243  -0.663  0.00  0.00    +0.011 A 
ATOM     12  C   UNL     1       1.501  -1.108  -0.309  0.00  0.00    +0.020 A 
ATOM     13  C   UNL     1       2.866  -1.219  -0.041  0.00  0.00    +0.015 A 
ENDBRANCH   2  12
BRANCH   6  14
ATOM     14  C   UNL     1      -1.576  -0.576   0.016  0.00  0.00    +0.250 C 
BRANCH  14  15
ATOM     15  C   UNL     1      -2.136  -0.851  -1.355  0.00  0.00    +0.375 C 
ATOM     16  O   UNL     1      -1.696  -0.265  -2.316  0.00  0.00    -0.244 OA
ATOM     17  O   UNL     1      -3.124  -1.747  -1.510  0.00  0.00    -0.244 OA
ENDBRANCH  14  15
ENDBRANCH   6  14
ENDBRANCH   1   5
BRANCH   1  18
ATOM     18  C   UNL     1      -1.561   4.372   0.072  0.00  0.00    +0.137 C 
ATOM     19  C   UNL     1      -0.945   4.658  -1.299  0.00  0.00    +0.029 C 
BRANCH  18  20
ATOM     20  C   UNL     1      -2.699   5.328   0.321  0.00  0.00    +0.227 C 
ATOM     21  O   UNL     1      -3.844   4.966   0.149  0.00  0.00    -0.275 OA
ATOM     22  N   UNL     1      -2.444   6.585   0.736  0.00  0.00    -0.308 N 
ATOM     23  H   UNL     1      -1.529   6.874   0.873  0.00  0.00    +0.149 HD
BRANCH  22  24
ATOM     24  C   UNL     1      -3.550   7.514   0.978  0.00  0.00    +0.102 C 
ATOM     25  C   UNL     1      -4.014   7.388   2.430  0.00  0.00    +0.033 C 
BRANCH  24  26
ATOM     26  C   UNL     1      -3.087   8.925   0.720  0.00  0.00    -0.009 A 
ATOM     27  C   UNL     1      -1.754   9.254   0.879  0.00  0.00    +0.008 A 
ATOM     28  C   UNL     1      -1.328  10.548   0.642  0.00  0.00    +0.020 A 
ATOM     29  C   UNL     1      -2.236  11.514   0.247  0.00  0.00    +0.042 A 
ATOM     30  C   UNL     1      -3.570  11.185   0.087  0.00  0.00    +0.040 A 
ATOM     31  C   UNL     1      -3.995   9.889   0.318  0.00  0.00    +0.047 A 
ATOM     32 CL   UNL     1      -5.668   9.473   0.111  0.00  0.00    -0.083 Cl
ATOM     33 CL   UNL     1      -1.701  13.139  -0.050  0.00  0.00    -0.083 Cl
ENDBRANCH  24  26
ENDBRANCH  22  24
ENDBRANCH  18  20
ENDBRANCH   1  18
TORSDOF 8
