REMARK  Name = ZINC09984047
REMARK  11 active torsions:
REMARK  status: ('A' for Active; 'I' for Inactive)
REMARK    1  A    between atoms: C_1  and  C_2
REMARK    2  A    between atoms: C_2  and  C_3
REMARK    3  A    between atoms: C_2  and  C_4
REMARK    4  A    between atoms: C_7  and  C_10
REMARK    5  A    between atoms: C_10  and  C_12
REMARK    6  A    between atoms: C_10  and  N_17
REMARK    7  A    between atoms: C_18  and  C_20
REMARK    8  A    between atoms: C_20  and  C_21
REMARK    9  A    between atoms: C_21  and  C_22
REMARK   10  A    between atoms: C_25  and  S_28
REMARK   11  A    between atoms: S_28  and  N_31
REMARK                            x       y       z     vdW  Elec       q    Type
REMARK                         _______ _______ _______ _____ _____    ______ ____
ROOT
ATOM      1  N   UNL     1      -0.721   1.571  -1.179  0.00  0.00    -0.304 N 
ATOM      2  C   UNL     1      -1.773   0.883  -1.664  0.00  0.00    +0.214 C 
ATOM      3  O   UNL     1      -2.134  -0.139  -1.118  0.00  0.00    -0.276 OA
ATOM      4  H   UNL     1      -0.433   2.388  -1.615  0.00  0.00    +0.150 HD
ENDROOT
BRANCH   1   5
ATOM      5  C   UNL     1      -0.013   1.086   0.008  0.00  0.00    +0.140 C 
BRANCH   5   9
ATOM      6  C   UNL     1       3.995   2.564  -0.023  0.00  0.00    -0.045 A 
ATOM      7  C   UNL     1       3.740   1.267   0.382  0.00  0.00    +0.004 A 
ATOM      8  C   UNL     1       2.443   0.789   0.392  0.00  0.00    +0.006 A 
ATOM      9  C   UNL     1       1.401   1.607  -0.003  0.00  0.00    -0.022 A 
ATOM     10  C   UNL     1       1.657   2.902  -0.413  0.00  0.00    +0.006 A 
ATOM     11  C   UNL     1       2.953   3.383  -0.418  0.00  0.00    +0.004 A 
BRANCH   6  13
ATOM     12  C   UNL     1       5.787   3.504  -1.456  0.00  0.00    +0.012 C 
ATOM     13  C   UNL     1       5.409   3.086  -0.034  0.00  0.00    +0.013 C 
ATOM     14  C   UNL     1       5.514   4.294   0.898  0.00  0.00    +0.012 C 
ENDBRANCH   6  13
ENDBRANCH   5   9
BRANCH   5  15
ATOM     15  C   UNL     1      -0.718   1.572   1.248  0.00  0.00    +0.014 A 
ATOM     16  C   UNL     1      -0.954   0.914   2.409  0.00  0.00    +0.013 A 
ATOM     17  C   UNL     1      -1.627   1.566   3.425  0.00  0.00    +0.008 A 
ATOM     18  C   UNL     1      -2.033   2.845   3.229  0.00  0.00    +0.045 A 
ATOM     19  S   UNL     1      -1.454   3.166   1.571  0.00  0.00    -0.099 S 
ENDBRANCH   5  15
ENDBRANCH   1   5
BRANCH   2  20
ATOM     20  C   UNL     1      -2.502   1.382  -2.885  0.00  0.00    +0.100 C 
BRANCH  20  21
ATOM     21  C   UNL     1      -3.647   0.424  -3.223  0.00  0.00    +0.044 C 
BRANCH  21  22
ATOM     22  C   UNL     1      -4.375   0.923  -4.444  0.00  0.00    -0.047 A 
ATOM     23  C   UNL     1      -5.450   1.781  -4.304  0.00  0.00    +0.005 A 
ATOM     24  C   UNL     1      -6.116   2.243  -5.425  0.00  0.00    +0.029 A 
ATOM     25  C   UNL     1      -5.713   1.839  -6.684  0.00  0.00    +0.105 A 
ATOM     26  C   UNL     1      -4.641   0.977  -6.823  0.00  0.00    +0.029 A 
ATOM     27  C   UNL     1      -3.973   0.519  -5.703  0.00  0.00    +0.005 A 
BRANCH  25  28
ATOM     28  S   UNL     1      -6.564   2.424  -8.111  0.00  0.00    +0.056 S 
ATOM     29  O   UNL     1      -7.185   3.647  -7.741  0.00  0.00    -0.153 OA
ATOM     30  O   UNL     1      -5.651   2.330  -9.196  0.00  0.00    -0.153 OA
BRANCH  28  31
ATOM     31  N   UNL     1      -7.785   1.350  -8.427  0.00  0.00    -0.204 NA
ATOM     32  H   UNL     1      -8.603   1.656  -8.848  0.00  0.00    +0.144 HD
ATOM     33  H   UNL     1      -7.682   0.415  -8.191  0.00  0.00    +0.144 HD
ENDBRANCH  28  31
ENDBRANCH  25  28
ENDBRANCH  21  22
ENDBRANCH  20  21
ENDBRANCH   2  20
TORSDOF 9
