REMARK  Name = ZINC05949485
REMARK  17 active torsions:
REMARK  status: ('A' for Active; 'I' for Inactive)
REMARK    1  A    between atoms: C_1  and  C_2
REMARK    2  A    between atoms: C_2  and  O_3
REMARK    3  A    between atoms: O_3  and  C_4
REMARK    4  A    between atoms: C_9  and  C_10
REMARK    5  A    between atoms: C_10  and  N_11
REMARK    6  A    between atoms: N_11  and  C_12
REMARK    7  A    between atoms: N_11  and  C_21
REMARK    8  A    between atoms: C_14  and  C_19
REMARK    9  A    between atoms: C_14  and  C_20
REMARK   10  A    between atoms: C_15  and  C_17
REMARK   11  A    between atoms: C_15  and  C_18
REMARK   12  A    between atoms: C_21  and  N_23
REMARK   13  A    between atoms: N_23  and  C_24
REMARK   14  A    between atoms: C_26  and  O_32
REMARK   15  A    between atoms: C_29  and  O_30
REMARK   16  A    between atoms: O_30  and  C_31
REMARK   17  A    between atoms: O_32  and  C_33
REMARK                            x       y       z     vdW  Elec       q    Type
REMARK                         _______ _______ _______ _____ _____    ______ ____
ROOT
ATOM      1  N   UNL     1       1.391   3.340  -2.576  0.00  0.00    -0.305 N 
ENDROOT
BRANCH   1   2
ATOM      2  C   UNL     1       2.117   2.303  -3.319  0.00  0.00    +0.073 C 
ATOM      3  C   UNL     1       2.913   1.444  -2.336  0.00  0.00    +0.009 C 
ATOM      4  C   UNL     1       3.664   0.343  -3.080  0.00  0.00    -0.072 C 
ATOM      5  C   UNL     1       1.841   0.303  -4.808  0.00  0.00    -0.072 C 
ATOM      6  C   UNL     1       1.114   1.407  -4.044  0.00  0.00    +0.009 C 
ATOM      7  C   UNL     1       2.481   0.889  -6.072  0.00  0.00    -0.010 C 
ATOM      8  C   UNL     1       0.780  -0.722  -5.266  0.00  0.00    -0.010 C 
ATOM      9  C   UNL     1       4.205  -0.647  -2.025  0.00  0.00    -0.010 C 
ATOM     10  C   UNL     1       4.876   0.945  -3.801  0.00  0.00    -0.010 C 
ATOM     11  N   UNL     1       2.829  -0.469  -4.006  0.00  0.00    +0.386 N 
ATOM     12  H   UNL     1       2.314  -1.159  -3.447  0.00  0.00    -0.084 HD
ATOM     13  H   UNL     1       3.456  -0.955  -4.657  0.00  0.00    -0.084 HD
ENDBRANCH   1   2
BRANCH   1  14
ATOM     14  C   UNL     1       0.369   2.999  -1.766  0.00  0.00    +0.138 C 
ATOM     15  S   UNL     1      -0.603   4.215  -1.056  0.00  0.00    -0.018 S 
BRANCH  14  16
ATOM     16  N   UNL     1       0.113   1.699  -1.516  0.00  0.00    -0.294 N 
ATOM     17  H   UNL     1       0.602   1.009  -1.990  0.00  0.00    +0.154 HD
BRANCH  16  18
ATOM     18  C   UNL     1      -0.861   1.347  -0.573  0.00  0.00    +0.078 A 
ATOM     19  C   UNL     1      -1.962   2.166  -0.371  0.00  0.00    +0.072 A 
ATOM     20  C   UNL     1      -2.924   1.814   0.563  0.00  0.00    +0.122 A 
ATOM     21  C   UNL     1      -2.786   0.644   1.295  0.00  0.00    +0.049 A 
ATOM     22  C   UNL     1      -1.690  -0.174   1.096  0.00  0.00    +0.051 A 
ATOM     23  C   UNL     1      -0.729   0.169   0.160  0.00  0.00    +0.141 A 
BRANCH  23  24
ATOM     24  O   UNL     1       0.347  -0.639  -0.040  0.00  0.00    -0.493 OA
ATOM     25  C   UNL     1       0.418  -1.831   0.746  0.00  0.00    +0.277 C 
ENDBRANCH  23  24
BRANCH  20  26
ATOM     26  O   UNL     1      -4.004   2.616   0.761  0.00  0.00    -0.495 OA
ATOM     27  C   UNL     1      -4.956   2.193   1.739  0.00  0.00    +0.277 C 
ENDBRANCH  20  26
ENDBRANCH  16  18
ENDBRANCH  14  16
ENDBRANCH   1  14
BRANCH   1  28
ATOM     28  C   UNL     1       1.777   4.747  -2.715  0.00  0.00    +0.145 C 
BRANCH  28  34
ATOM     29  C   UNL     1       1.024   6.741  -4.035  0.00  0.00    +0.125 A 
ATOM     30  C   UNL     1       0.326   7.308  -5.092  0.00  0.00    +0.046 A 
ATOM     31  C   UNL     1      -0.383   6.501  -5.961  0.00  0.00    +0.004 A 
ATOM     32  C   UNL     1      -0.394   5.130  -5.781  0.00  0.00    +0.001 A 
ATOM     33  C   UNL     1       0.304   4.563  -4.731  0.00  0.00    +0.009 A 
ATOM     34  C   UNL     1       1.016   5.365  -3.860  0.00  0.00    +0.011 A 
BRANCH  29  35
ATOM     35  O   UNL     1       1.718   7.533  -3.176  0.00  0.00    -0.492 OA
BRANCH  35  37
ATOM     36  C   UNL     1       2.515   9.662  -2.356  0.00  0.00    +0.048 C 
ATOM     37  C   UNL     1       1.682   8.941  -3.418  0.00  0.00    +0.225 C 
ENDBRANCH  35  37
ENDBRANCH  29  35
ENDBRANCH  28  34
ENDBRANCH   1  28
TORSDOF 10
