REMARK  Name = ZINC63531014
REMARK  12 active torsions:
REMARK  status: ('A' for Active; 'I' for Inactive)
REMARK    1  A    between atoms: C_1  and  N_2
REMARK    2  A    between atoms: N_2  and  C_3
REMARK    3  A    between atoms: N_2  and  C_28
REMARK    4  A    between atoms: C_3  and  C_4
REMARK    5  A    between atoms: C_4  and  C_5
REMARK    6  A    between atoms: C_5  and  N_6
REMARK    7  A    between atoms: C_7  and  C_9
REMARK    8  A    between atoms: C_11  and  S_21
REMARK    9  A    between atoms: C_15  and  O_19
REMARK   10  A    between atoms: O_19  and  C_20
REMARK   11  A    between atoms: S_21  and  C_22
REMARK   12  A    between atoms: C_28  and  C_29
REMARK                            x       y       z     vdW  Elec       q    Type
REMARK                         _______ _______ _______ _____ _____    ______ ____
ROOT
ATOM      1  C   UNL     1      -5.711  -0.225  -3.614  0.00  0.00    +0.204 C 
ATOM      2  C   UNL     1      -5.621  -1.087  -4.853  0.00  0.00    +0.030 C 
ATOM      3  C   UNL     1      -6.917  -1.517  -5.109  0.00  0.00    +0.010 A 
ATOM      4  C   UNL     1      -7.465  -2.339  -6.120  0.00  0.00    +0.014 A 
ATOM      5  C   UNL     1      -8.795  -2.599  -6.129  0.00  0.00    +0.046 A 
ATOM      6  C   UNL     1      -9.651  -2.071  -5.153  0.00  0.00    +0.122 A 
ATOM      7  C   UNL     1      -9.188  -1.271  -4.152  0.00  0.00    +0.071 A 
ATOM      8  C   UNL     1      -7.810  -0.959  -4.082  0.00  0.00    +0.048 A 
ATOM      9  N   UNL     1      -7.125  -0.218  -3.226  0.00  0.00    -0.369 N 
ATOM     10  H   UNL     1      -7.497   0.252  -2.463  0.00  0.00    +0.161 HD
ENDROOT
BRANCH   1  12
ATOM     11  N   UNL     1      -3.541  -0.602  -2.487  0.00  0.00    -0.313 N 
ATOM     12  C   UNL     1      -4.872  -0.814  -2.510  0.00  0.00    +0.240 C 
ATOM     13  O   UNL     1      -5.394  -1.480  -1.641  0.00  0.00    -0.273 OA
ATOM     14  H   UNL     1      -3.124  -0.069  -3.183  0.00  0.00    +0.149 HD
BRANCH  11  15
ATOM     15  C   UNL     1      -2.726  -1.175  -1.414  0.00  0.00    +0.102 C 
BRANCH  15  16
ATOM     16  C   UNL     1      -1.261  -0.786  -1.623  0.00  0.00    +0.000 C 
BRANCH  16  17
ATOM     17  C   UNL     1      -0.409  -1.384  -0.502  0.00  0.00    -0.077 C 
BRANCH  17  19
ATOM     18  C   UNL     1       1.142   0.445  -0.566  0.00  0.00    -0.096 C 
ATOM     19  N   UNL     1       0.997  -1.010  -0.703  0.00  0.00    +0.381 N 
ATOM     20  H   UNL     1       1.292  -1.292  -1.626  0.00  0.00    -0.082 HD
BRANCH  19  21
ATOM     21  C   UNL     1       1.831  -1.682   0.304  0.00  0.00    -0.043 C 
BRANCH  21  22
ATOM     22  C   UNL     1       3.284  -1.397   0.023  0.00  0.00    -0.064 A 
ATOM     23  C   UNL     1       4.005  -2.236  -0.805  0.00  0.00    +0.002 A 
ATOM     24  C   UNL     1       5.338  -1.976  -1.063  0.00  0.00    +0.000 A 
ATOM     25  C   UNL     1       5.950  -0.875  -0.492  0.00  0.00    +0.000 A 
ATOM     26  C   UNL     1       5.228  -0.036   0.336  0.00  0.00    +0.000 A 
ATOM     27  C   UNL     1       3.894  -0.294   0.590  0.00  0.00    +0.002 A 
ENDBRANCH  21  22
ENDBRANCH  19  21
ENDBRANCH  17  19
ENDBRANCH  16  17
ENDBRANCH  15  16
ENDBRANCH  11  15
ENDBRANCH   1  12
BRANCH   6  28
ATOM     28  O   UNL     1     -10.975  -2.362  -5.208  0.00  0.00    -0.495 OA
ATOM     29  C   UNL     1     -11.411  -3.203  -6.277  0.00  0.00    +0.277 C 
ENDBRANCH   6  28
BRANCH   2  30
ATOM     30  S   UNL     1      -4.256  -1.446  -5.727  0.00  0.00    -0.091 S 
BRANCH  30  31
ATOM     31  C   UNL     1      -3.795   0.095  -6.449  0.00  0.00    +0.013 A 
ATOM     32  C   UNL     1      -4.622   1.203  -6.311  0.00  0.00    +0.015 A 
ATOM     33  C   UNL     1      -4.257   2.408  -6.878  0.00  0.00    +0.001 A 
ATOM     34  C   UNL     1      -3.071   2.513  -7.581  0.00  0.00    +0.000 A 
ATOM     35  C   UNL     1      -2.246   1.412  -7.720  0.00  0.00    +0.001 A 
ATOM     36  C   UNL     1      -2.601   0.205  -7.151  0.00  0.00    +0.015 A 
ENDBRANCH  30  31
ENDBRANCH   2  30
TORSDOF 10
