REMARK  Name = ZINC50845347
REMARK  5 active torsions:
REMARK  status: ('A' for Active; 'I' for Inactive)
REMARK    1  A    between atoms: C_1  and  C_2
REMARK    2  A    between atoms: C_2  and  C_3
REMARK    3  A    between atoms: C_4  and  C_17
REMARK    4  A    between atoms: C_6  and  C_10
REMARK    5  A    between atoms: C_8  and  N_9
REMARK                            x       y       z     vdW  Elec       q    Type
REMARK                         _______ _______ _______ _____ _____    ______ ____
ROOT
ATOM      1  C   UNL     1       0.731  -0.503   1.223  0.00  0.00    +0.013 A 
ATOM      2  C   UNL     1       2.096  -0.715   1.194  0.00  0.00    +0.047 A 
ATOM      3  N   UNL     1       2.708  -1.154   2.283  0.00  0.00    -0.232 NA
ATOM      4  C   UNL     1       2.028  -1.392   3.396  0.00  0.00    +0.162 A 
ATOM      5  N   UNL     1       0.718  -1.202   3.466  0.00  0.00    -0.213 NA
ATOM      6  C   UNL     1       0.043  -0.757   2.412  0.00  0.00    +0.123 A 
ATOM      7  C   UNL     1       2.881  -0.449  -0.065  0.00  0.00    +0.066 C 
ENDROOT
BRANCH   4   8
ATOM      8  C   UNL     1       2.752  -1.884   4.593  0.00  0.00    +0.019 A 
ATOM      9  C   UNL     1       4.130  -2.085   4.543  0.00  0.00    +0.014 A 
ATOM     10  C   UNL     1       4.800  -2.542   5.660  0.00  0.00    +0.039 A 
ATOM     11  C   UNL     1       4.104  -2.801   6.830  0.00  0.00    +0.123 A 
ATOM     12  C   UNL     1       2.733  -2.602   6.884  0.00  0.00    +0.039 A 
ATOM     13  C   UNL     1       2.057  -2.140   5.774  0.00  0.00    +0.014 A 
ATOM     14  F   UNL     1       4.763  -3.248   7.921  0.00  0.00    -0.205 F 
ENDBRANCH   4   8
BRANCH   6  15
ATOM     15  N   UNL     1      -1.326  -0.554   2.489  0.00  0.00    -0.343 N 
ATOM     16  H   UNL     1      -1.813  -0.233   1.714  0.00  0.00    +0.144 HD
ATOM     17  H   UNL     1      -1.797  -0.733   3.318  0.00  0.00    +0.144 HD
ENDBRANCH   6  15
BRANCH   1  19
ATOM     18  C   UNL     1      -0.019   1.526   0.010  0.00  0.00    +0.009 C 
ATOM     19  C   UNL     1       0.002  -0.004   0.002  0.00  0.00    +0.037 C 
ENDBRANCH   1  19
TORSDOF 3
