REMARK  Name = ZINC34757457
REMARK  12 active torsions:
REMARK  status: ('A' for Active; 'I' for Inactive)
REMARK    1  A    between atoms: C_1  and  C_2
REMARK    2  A    between atoms: C_2  and  C_3
REMARK    3  A    between atoms: C_3  and  C_4
REMARK    4  A    between atoms: C_9  and  S_13
REMARK    5  A    between atoms: S_13  and  C_14
REMARK    6  A    between atoms: C_14  and  C_15
REMARK    7  A    between atoms: N_25  and  C_28
REMARK    8  A    between atoms: C_28  and  C_29
REMARK    9  A    between atoms: N_31  and  C_32
REMARK   10  A    between atoms: N_31  and  C_34
REMARK   11  A    between atoms: C_32  and  C_33
REMARK   12  A    between atoms: C_34  and  C_35
REMARK                            x       y       z     vdW  Elec       q    Type
REMARK                         _______ _______ _______ _____ _____    ______ ____
ROOT
ATOM      1  C   UNL     1       2.237  -5.840   0.714  0.00  0.00    -0.007 A 
ATOM      2  C   UNL     1       1.226  -5.606   1.563  0.00  0.00    +0.024 A 
ATOM      3  C   UNL     1      -0.137  -5.603   1.059  0.00  0.00    +0.048 A 
ATOM      4  C   UNL     1      -1.360  -5.383   1.751  0.00  0.00    +0.134 A 
ATOM      5  N   UNL     1      -2.500  -5.427   1.082  0.00  0.00    -0.206 NA
ATOM      6  C   UNL     1      -2.543  -5.671  -0.223  0.00  0.00    +0.191 A 
ATOM      7  N   UNL     1      -1.435  -5.883  -0.920  0.00  0.00    -0.215 NA
ATOM      8  C   UNL     1      -0.258  -5.856  -0.325  0.00  0.00    +0.115 A 
ATOM      9  S   UNL     1       1.421  -6.069  -0.854  0.00  0.00    -0.073 S 
ATOM     10  N   UNL     1      -1.358  -5.127   3.110  0.00  0.00    -0.318 N 
ATOM     11  C   UNL     1      -1.270  -3.750   3.620  0.00  0.00    +0.088 C 
ATOM     12  C   UNL     1      -2.389  -3.539   4.644  0.00  0.00    -0.059 C 
ATOM     13  N   UNL     1      -2.305  -4.575   5.681  0.00  0.00    +0.387 N 
ATOM     14  C   UNL     1      -2.555  -5.896   5.089  0.00  0.00    -0.059 C 
ATOM     15  C   UNL     1      -1.449  -6.223   4.087  0.00  0.00    +0.088 C 
ATOM     16  H   UNL     1      -1.385  -4.562   6.094  0.00  0.00    -0.081 HD
ENDROOT
BRANCH   1  17
ATOM     17  C   UNL     1       3.714  -5.890   1.013  0.00  0.00    +0.042 C 
BRANCH  17  19
ATOM     18  C   UNL     1       5.611  -7.373   1.678  0.00  0.00    +0.004 C 
ATOM     19  C   UNL     1       4.112  -7.322   1.374  0.00  0.00    +0.002 C 
ENDBRANCH  17  19
ENDBRANCH   1  17
BRANCH   6  20
ATOM     20  S   UNL     1      -4.102  -5.713  -1.043  0.00  0.00    -0.081 S 
BRANCH  20  21
ATOM     21  C   UNL     1      -3.679  -6.071  -2.770  0.00  0.00    +0.112 C 
BRANCH  21  22
ATOM     22  C   UNL     1      -4.940  -6.135  -3.593  0.00  0.00    -0.037 A 
ATOM     23  C   UNL     1      -5.606  -7.337  -3.744  0.00  0.00    +0.006 A 
ATOM     24  C   UNL     1      -6.763  -7.397  -4.498  0.00  0.00    +0.020 A 
ATOM     25  C   UNL     1      -7.254  -6.253  -5.103  0.00  0.00    +0.041 A 
ATOM     26  C   UNL     1      -6.587  -5.051  -4.952  0.00  0.00    +0.020 A 
ATOM     27  C   UNL     1      -5.434  -4.991  -4.192  0.00  0.00    +0.006 A 
ATOM     28 CL   UNL     1      -8.706  -6.328  -6.051  0.00  0.00    -0.084 Cl
ENDBRANCH  21  22
ENDBRANCH  20  21
ENDBRANCH   6  20
BRANCH  13  29
ATOM     29  C   UNL     1      -3.308  -4.309   6.720  0.00  0.00    +0.019 C 
BRANCH  29  30
ATOM     30  C   UNL     1      -3.143  -5.298   7.844  0.00  0.00    +0.199 C 
ATOM     31  O   UNL     1      -2.274  -6.143   7.785  0.00  0.00    -0.278 OA
ATOM     32  N   UNL     1      -3.959  -5.245   8.915  0.00  0.00    -0.304 N 
BRANCH  32  33
ATOM     33  C   UNL     1      -3.798  -6.208  10.008  0.00  0.00    +0.104 C 
ATOM     34  C   UNL     1      -2.824  -5.644  11.044  0.00  0.00    +0.024 C 
ENDBRANCH  32  33
BRANCH  32  35
ATOM     35  C   UNL     1      -5.008  -4.225   8.986  0.00  0.00    +0.104 C 
ATOM     36  C   UNL     1      -6.292  -4.769   8.355  0.00  0.00    +0.024 C 
ENDBRANCH  32  35
ENDBRANCH  29  30
ENDBRANCH  13  29
TORSDOF 9
