REMARK  Name = ZINC39388076
REMARK  9 active torsions:
REMARK  status: ('A' for Active; 'I' for Inactive)
REMARK    1  A    between atoms: C_1  and  C_2
REMARK    2  A    between atoms: C_2  and  C_3
REMARK    3  A    between atoms: C_2  and  C_4
REMARK    4  A    between atoms: C_6  and  C_10
REMARK    5  A    between atoms: C_10  and  N_11
REMARK    6  A    between atoms: C_23  and  N_29
REMARK    7  A    between atoms: C_25  and  O_27
REMARK    8  A    between atoms: O_27  and  C_28
REMARK    9  A    between atoms: C_30  and  C_32
REMARK                            x       y       z     vdW  Elec       q    Type
REMARK                         _______ _______ _______ _____ _____    ______ ____
ROOT
ATOM      1  N   UNL     1      -5.764  -1.043  -1.007  0.00  0.00    +0.381 N 
ATOM      2  C   UNL     1      -5.939  -0.118   0.119  0.00  0.00    -0.078 C 
ATOM      3  C   UNL     1      -7.365  -0.238   0.664  0.00  0.00    -0.005 C 
ATOM      4  C   UNL     1      -8.360   0.089  -0.447  0.00  0.00    +0.021 C 
ATOM      5  C   UNL     1      -8.114  -0.808  -1.658  0.00  0.00    -0.005 C 
ATOM      6  C   UNL     1      -6.658  -0.665  -2.108  0.00  0.00    -0.078 C 
ATOM      7  C   UNL     1      -9.776  -0.074   0.049  0.00  0.00    -0.034 A 
ATOM      8  C   UNL     1     -10.536  -1.215   0.246  0.00  0.00    +0.004 A 
ATOM      9  C   UNL     1     -11.832  -1.116   0.713  0.00  0.00    +0.000 A 
ATOM     10  C   UNL     1     -12.374   0.127   0.985  0.00  0.00    +0.000 A 
ATOM     11  C   UNL     1     -11.618   1.266   0.790  0.00  0.00    +0.006 A 
ATOM     12  C   UNL     1     -10.318   1.169   0.323  0.00  0.00    -0.021 A 
ATOM     13  C   UNL     1      -9.296   2.248   0.035  0.00  0.00    +0.133 C 
ATOM     14  C   UNL     1      -8.230   1.568  -0.852  0.00  0.00    +0.153 C 
ATOM     15  H   UNL     1      -5.982  -1.981  -0.705  0.00  0.00    -0.082 HD
ENDROOT
BRANCH  13  16
ATOM     16  N   UNL     1      -8.694   2.724   1.282  0.00  0.00    -0.302 N 
ATOM     17  C   UNL     1      -9.289   3.708   1.985  0.00  0.00    +0.245 C 
ATOM     18  O   UNL     1     -10.325   4.201   1.584  0.00  0.00    -0.270 OA
ATOM     19  H   UNL     1      -7.867   2.331   1.603  0.00  0.00    +0.150 HD
BRANCH  17  20
ATOM     20  C   UNL     1      -8.681   4.189   3.244  0.00  0.00    +0.039 A 
ATOM     21  C   UNL     1      -7.488   3.629   3.705  0.00  0.00    +0.013 A 
ATOM     22  C   UNL     1      -6.924   4.081   4.880  0.00  0.00    +0.004 A 
ATOM     23  C   UNL     1      -7.539   5.088   5.603  0.00  0.00    +0.038 A 
ATOM     24  C   UNL     1      -8.723   5.649   5.153  0.00  0.00    +0.124 A 
ATOM     25  C   UNL     1      -9.294   5.208   3.974  0.00  0.00    +0.051 A 
ATOM     26  F   UNL     1      -9.318   6.631   5.864  0.00  0.00    -0.205 F 
ENDBRANCH  17  20
ENDBRANCH  13  16
BRANCH  14  27
ATOM     27  O   UNL     1      -8.534   1.745  -2.237  0.00  0.00    -0.377 OA
ATOM     28  C   UNL     1      -7.836   2.830  -2.852  0.00  0.00    +0.194 C 
ENDBRANCH  14  27
BRANCH   1  29
ATOM     29  C   UNL     1      -4.371  -0.991  -1.469  0.00  0.00    -0.046 C 
BRANCH  29  32
ATOM     30  C   UNL     1      -2.300  -3.341  -2.632  0.00  0.00    +0.064 C 
ATOM     31  C   UNL     1      -2.688  -2.107  -2.957  0.00  0.00    +0.024 C 
ATOM     32  C   UNL     1      -4.147  -2.061  -2.539  0.00  0.00    +0.136 C 
ATOM     33  N   UNL     1      -4.377  -3.408  -1.990  0.00  0.00    -0.182 NA
ATOM     34  N   UNL     1      -3.321  -4.038  -2.085  0.00  0.00    -0.159 NA
BRANCH  30  36
ATOM     35  C   UNL     1      -0.310  -4.303  -1.506  0.00  0.00    +0.014 C 
ATOM     36  C   UNL     1      -0.912  -3.887  -2.850  0.00  0.00    +0.033 C 
ATOM     37  C   UNL     1      -0.981  -5.103  -3.776  0.00  0.00    +0.014 C 
ENDBRANCH  30  36
ENDBRANCH  29  32
ENDBRANCH   1  29
TORSDOF 6
