REMARK  Name = ZINC43772629
REMARK  12 active torsions:
REMARK  status: ('A' for Active; 'I' for Inactive)
REMARK    1  A    between atoms: C_1  and  C_2
REMARK    2  A    between atoms: C_2  and  C_4
REMARK    3  A    between atoms: C_2  and  C_10
REMARK    4  A    between atoms: C_4  and  C_5
REMARK    5  A    between atoms: C_5  and  C_6
REMARK    6  A    between atoms: C_6  and  C_7
REMARK    7  A    between atoms: C_7  and  C_8
REMARK    8  A    between atoms: C_7  and  C_9
REMARK    9  A    between atoms: C_16  and  C_36
REMARK   10  A    between atoms: C_26  and  O_35
REMARK   11  A    between atoms: C_27  and  C_34
REMARK   12  A    between atoms: C_30  and  O_33
REMARK                            x       y       z     vdW  Elec       q    Type
REMARK                         _______ _______ _______ _____ _____    ______ ____
ROOT
ATOM      1  C   UNL     1       0.644  -0.578  -1.267  0.00  0.00    -0.002 C 
ATOM      2  C   UNL     1      -0.144  -0.094  -2.499  0.00  0.00    +0.004 C 
ATOM      3  C   UNL     1      -0.739  -1.356  -3.166  0.00  0.00    +0.004 C 
ATOM      4  C   UNL     1      -0.781  -2.382  -2.019  0.00  0.00    -0.001 C 
ATOM      5  C   UNL     1       0.531  -2.126  -1.256  0.00  0.00    -0.026 C 
ATOM      6  C   UNL     1       1.726  -2.660  -2.049  0.00  0.00    +0.007 C 
ATOM      7  C   UNL     1       1.527  -4.135  -2.385  0.00  0.00    +0.005 C 
ATOM      8  C   UNL     1       0.295  -4.274  -3.287  0.00  0.00    +0.002 C 
ATOM      9  C   UNL     1      -0.916  -3.802  -2.515  0.00  0.00    +0.004 C 
ATOM     10  C   UNL     1      -2.148  -3.916  -3.423  0.00  0.00    +0.081 C 
ATOM     11  C   UNL     1      -2.229  -5.324  -3.965  0.00  0.00    +0.165 C 
ATOM     12  O   UNL     1      -3.246  -5.969  -3.873  0.00  0.00    -0.294 OA
ATOM     13  C   UNL     1      -0.996  -5.903  -4.628  0.00  0.00    +0.131 C 
ATOM     14  C   UNL     1       0.142  -5.743  -3.686  0.00  0.00    +0.007 C 
ATOM     15  C   UNL     1       1.421  -6.239  -4.357  0.00  0.00    +0.012 C 
ATOM     16  C   UNL     1       1.675  -5.443  -5.639  0.00  0.00    +0.032 C 
ATOM     17  C   UNL     1       0.492  -5.627  -6.591  0.00  0.00    +0.118 C 
ATOM     18  C   UNL     1      -0.720  -5.125  -5.916  0.00  0.00    +0.074 C 
ATOM     19  C   UNL     1      -0.104  -6.583  -2.431  0.00  0.00    +0.015 C 
ATOM     20  C   UNL     1       0.483  -2.686   0.167  0.00  0.00    +0.012 C 
ENDROOT
BRANCH   1  22
ATOM     21  C   UNL     1      -1.479  -0.234   0.004  0.00  0.00    +0.008 C 
ATOM     22  C   UNL     1       0.032   0.003   0.009  0.00  0.00    -0.010 C 
BRANCH  22  23
ATOM     23  C   UNL     1       0.313   1.506   0.071  0.00  0.00    +0.003 C 
BRANCH  23  24
ATOM     24  C   UNL     1      -0.204   2.067   1.397  0.00  0.00    +0.001 C 
BRANCH  24  25
ATOM     25  C   UNL     1       0.077   3.570   1.458  0.00  0.00    +0.003 C 
BRANCH  25  26
ATOM     26  C   UNL     1      -0.440   4.131   2.785  0.00  0.00    -0.017 C 
ATOM     27  C   UNL     1       0.356   3.523   3.941  0.00  0.00    +0.007 C 
ATOM     28  C   UNL     1      -0.273   5.652   2.795  0.00  0.00    +0.007 C 
ENDBRANCH  25  26
ENDBRANCH  24  25
ENDBRANCH  23  24
ENDBRANCH  22  23
ENDBRANCH   1  22
BRANCH  17  29
ATOM     29  O   UNL     1       0.730  -4.894  -7.795  0.00  0.00    -0.392 OA
ATOM     30  H   UNL     1       1.525  -5.169  -8.272  0.00  0.00    +0.210 HD
ENDBRANCH  17  29
BRANCH  13  31
ATOM     31  O   UNL     1      -1.205  -7.285  -4.926  0.00  0.00    -0.380 OA
ATOM     32  H   UNL     1      -1.948  -7.450  -5.523  0.00  0.00    +0.211 HD
ENDBRANCH  13  31
TORSDOF 7
