REMARK  Name = ZINC02955756
REMARK  8 active torsions:
REMARK  status: ('A' for Active; 'I' for Inactive)
REMARK    1  A    between atoms: C_1  and  C_2
REMARK    2  A    between atoms: C_2  and  C_3
REMARK    3  A    between atoms: C_6  and  N_9
REMARK    4  A    between atoms: C_11  and  C_23
REMARK    5  A    between atoms: C_14  and  C_21
REMARK    6  A    between atoms: C_17  and  C_20
REMARK    7  A    between atoms: C_21  and  O_22
REMARK    8  A    between atoms: N_25  and  C_26
REMARK                            x       y       z     vdW  Elec       q    Type
REMARK                         _______ _______ _______ _____ _____    ______ ____
ROOT
ATOM      1  N   UNL     1       2.358  -1.537  -5.746  0.00  0.00    -0.325 N 
ATOM      2  C   UNL     1       3.531  -1.186  -5.267  0.00  0.00    +0.212 A 
ATOM      3  C   UNL     1       4.755  -1.922  -5.643  0.00  0.00    +0.098 A 
ATOM      4  C   UNL     1       5.946  -1.231  -5.595  0.00  0.00    +0.030 A 
ATOM      5  C   UNL     1       5.893   0.170  -5.173  0.00  0.00    +0.027 A 
ATOM      6  C   UNL     1       6.986   1.030  -5.335  0.00  0.00    +0.007 A 
ATOM      7  C   UNL     1       6.861   2.338  -4.916  0.00  0.00    +0.117 A 
ATOM      8  N   UNL     1       5.740   2.779  -4.373  0.00  0.00    -0.256 NA
ATOM      9  C   UNL     1       4.686   2.008  -4.199  0.00  0.00    +0.081 A 
ATOM     10  C   UNL     1       4.717   0.677  -4.588  0.00  0.00    +0.159 A 
ATOM     11  O   UNL     1       3.650  -0.133  -4.418  0.00  0.00    -0.437 OA
ATOM     12  C   UNL     1       3.438   2.577  -3.572  0.00  0.00    +0.069 C 
ATOM     13  H   UNL     1       2.300  -2.217  -6.436  0.00  0.00    +0.169 HD
ENDROOT
BRANCH   1  17
ATOM     14  C   UNL     1      -1.084   0.255  -4.313  0.00  0.00    -0.047 A 
ATOM     15  C   UNL     1      -0.913   0.083  -5.676  0.00  0.00    +0.005 A 
ATOM     16  C   UNL     1       0.232  -0.514  -6.160  0.00  0.00    +0.026 A 
ATOM     17  C   UNL     1       1.220  -0.945  -5.272  0.00  0.00    +0.042 A 
ATOM     18  C   UNL     1       1.041  -0.767  -3.898  0.00  0.00    +0.026 A 
ATOM     19  C   UNL     1      -0.106  -0.164  -3.428  0.00  0.00    +0.005 A 
BRANCH  14  21
ATOM     20  C   UNL     1      -2.127   2.421  -3.705  0.00  0.00    +0.009 C 
ATOM     21  C   UNL     1      -2.338   0.908  -3.791  0.00  0.00    +0.032 C 
ENDBRANCH  14  21
ENDBRANCH   1  17
BRANCH   3  22
ATOM     22  C   UNL     1       4.705  -3.337  -6.051  0.00  0.00    +0.253 C 
ATOM     23  O   UNL     1       5.705  -3.884  -6.475  0.00  0.00    -0.270 OA
ATOM     24  N   UNL     1       3.550  -4.025  -5.956  0.00  0.00    -0.281 N 
ATOM     25  H   UNL     1       2.739  -3.576  -5.670  0.00  0.00    +0.155 HD
BRANCH  24  26
ATOM     26  C   UNL     1       3.520  -5.388  -6.270  0.00  0.00    +0.034 A 
ATOM     27  C   UNL     1       4.326  -5.886  -7.285  0.00  0.00    +0.024 A 
ATOM     28  C   UNL     1       4.294  -7.232  -7.593  0.00  0.00    +0.017 A 
ATOM     29  C   UNL     1       3.460  -8.084  -6.891  0.00  0.00    +0.018 A 
ATOM     30  C   UNL     1       2.655  -7.591  -5.880  0.00  0.00    +0.017 A 
ATOM     31  C   UNL     1       2.687  -6.247  -5.563  0.00  0.00    +0.024 A 
ATOM     32 BR   UNL     1       3.419  -9.926  -7.316  0.00  0.00    -0.050 Br
ENDBRANCH  24  26
ENDBRANCH   3  22
BRANCH   6  33
ATOM     33  C   UNL     1       8.269   0.538  -5.953  0.00  0.00    +0.193 C 
BRANCH  33  34
ATOM     34  O   UNL     1       9.216   1.608  -6.001  0.00  0.00    -0.390 OA
ATOM     35  H   UNL     1      10.067   1.363  -6.388  0.00  0.00    +0.210 HD
ENDBRANCH  33  34
ENDBRANCH   6  33
TORSDOF 6
