REMARK  Name = ZINC05588282
REMARK  6 active torsions:
REMARK  status: ('A' for Active; 'I' for Inactive)
REMARK    1  A    between atoms: C_1  and  C_2
REMARK    2  A    between atoms: C_5  and  N_8
REMARK    3  A    between atoms: C_11  and  C_18
REMARK    4  A    between atoms: C_13  and  C_16
REMARK    5  A    between atoms: C_14  and  N_15
REMARK    6  A    between atoms: C_21  and  N_24
REMARK                            x       y       z     vdW  Elec       q    Type
REMARK                         _______ _______ _______ _____ _____    ______ ____
ROOT
ATOM      1  N   UNL     1       0.026   1.785   2.369  0.00  0.00    -0.260 N 
ATOM      2  C   UNL     1      -0.791   2.075   1.309  0.00  0.00    +0.024 C 
ATOM      3  C   UNL     1      -2.109   2.296   1.497  0.00  0.00    +0.025 C 
ATOM      4  C   UNL     1      -2.715   2.238   2.877  0.00  0.00    +0.097 C 
ATOM      5  C   UNL     1      -1.817   1.515   3.834  0.00  0.00    +0.077 C 
ATOM      6  C   UNL     1      -0.502   1.322   3.553  0.00  0.00    +0.107 C 
ATOM      7  C   UNL     1      -2.956   2.593   0.415  0.00  0.00    +0.162 C 
ATOM      8  O   UNL     1      -4.141   2.767   0.616  0.00  0.00    -0.292 OA
ATOM      9  C   UNL     1      -2.421   2.698  -0.987  0.00  0.00    +0.080 C 
ATOM     10  C   UNL     1      -0.955   3.139  -0.930  0.00  0.00    +0.014 C 
ATOM     11  C   UNL     1      -0.181   2.136  -0.070  0.00  0.00    +0.052 C 
ENDROOT
BRANCH   1  16
ATOM     12  C   UNL     1       5.633   2.502   1.883  0.00  0.00    +0.044 C 
ATOM     13  C   UNL     1       4.144   2.312   2.012  0.00  0.00    -0.050 A 
ATOM     14  C   UNL     1       3.351   3.355   2.453  0.00  0.00    +0.005 A 
ATOM     15  C   UNL     1       1.986   3.184   2.573  0.00  0.00    +0.024 A 
ATOM     16  C   UNL     1       1.409   1.962   2.249  0.00  0.00    +0.040 A 
ATOM     17  C   UNL     1       2.209   0.915   1.811  0.00  0.00    +0.024 A 
ATOM     18  C   UNL     1       3.573   1.094   1.689  0.00  0.00    +0.005 A 
ENDBRANCH   1  16
BRANCH   4  19
ATOM     19  C   UNL     1      -2.941   3.641   3.377  0.00  0.00    -0.035 A 
ATOM     20  C   UNL     1      -1.871   4.505   3.519  0.00  0.00    +0.007 A 
ATOM     21  C   UNL     1      -2.079   5.794   3.973  0.00  0.00    +0.033 A 
ATOM     22  C   UNL     1      -3.355   6.216   4.296  0.00  0.00    +0.126 A 
ATOM     23  C   UNL     1      -4.425   5.350   4.159  0.00  0.00    +0.033 A 
ATOM     24  C   UNL     1      -4.217   4.063   3.700  0.00  0.00    +0.007 A 
BRANCH  22  25
ATOM     25  N   UNL     1      -3.577   7.594   4.788  0.00  0.00    +0.056 N 
ATOM     26  O   UNL     1      -4.702   7.965   5.073  0.00  0.00    -0.126 OA
ATOM     27  O   UNL     1      -2.635   8.357   4.908  0.00  0.00    -0.126 OA
ENDBRANCH  22  25
ENDBRANCH   4  19
BRANCH   6  28
ATOM     28  N   UNL     1       0.301   0.662   4.452  0.00  0.00    -0.345 N 
ATOM     29  H   UNL     1       1.256   0.596   4.291  0.00  0.00    +0.144 HD
ATOM     30  H   UNL     1      -0.086   0.263   5.246  0.00  0.00    +0.144 HD
ENDBRANCH   6  28
BRANCH   5  31
ATOM     31  C   UNL     1      -2.354   1.019   5.065  0.00  0.00    +0.099 C 
ATOM     32  N   UNL     1      -2.780   0.625   6.042  0.00  0.00    -0.191 NA
ENDBRANCH   5  31
TORSDOF 5
