REMARK  Name = ZINC35760626
REMARK  7 active torsions:
REMARK  status: ('A' for Active; 'I' for Inactive)
REMARK    1  A    between atoms: C_1  and  N_2
REMARK    2  A    between atoms: N_2  and  C_3
REMARK    3  A    between atoms: C_3  and  C_4
REMARK    4  A    between atoms: C_10  and  C_12
REMARK    5  A    between atoms: C_12  and  N_13
REMARK    6  A    between atoms: N_15  and  C_34
REMARK    7  A    between atoms: N_26  and  C_27
REMARK                            x       y       z     vdW  Elec       q    Type
REMARK                         _______ _______ _______ _____ _____    ______ ____
ROOT
ATOM      1  N   UNL     1      -0.037  -0.777  -3.660  0.00  0.00    -0.275 N 
ATOM      2  C   UNL     1       1.161  -1.251  -4.354  0.00  0.00    +0.217 C 
ATOM      3  N   UNL     1       0.753  -2.295  -5.302  0.00  0.00    -0.300 N 
ATOM      4  C   UNL     1      -0.702  -2.428  -5.154  0.00  0.00    +0.115 C 
ATOM      5  C   UNL     1      -1.121  -1.441  -4.096  0.00  0.00    +0.241 C 
ATOM      6  O   UNL     1      -2.255  -1.271  -3.702  0.00  0.00    -0.273 OA
ATOM      7  C   UNL     1      -1.052  -3.847  -4.709  0.00  0.00    +0.054 C 
ATOM      8  C   UNL     1      -0.569  -4.845  -5.766  0.00  0.00    +0.112 C 
ATOM      9  N   UNL     1      -1.126  -4.459  -7.070  0.00  0.00    -0.285 N 
ATOM     10  C   UNL     1      -0.910  -3.089  -7.553  0.00  0.00    +0.112 C 
ATOM     11  C   UNL     1      -1.391  -2.106  -6.480  0.00  0.00    +0.054 C 
ATOM     12  C   UNL     1      -1.822  -5.346  -7.808  0.00  0.00    +0.307 C 
ATOM     13  O   UNL     1      -2.072  -6.448  -7.359  0.00  0.00    -0.252 OA
ATOM     14  N   UNL     1      -2.240  -5.012  -9.045  0.00  0.00    -0.267 N 
ATOM     15  H   UNL     1      -1.979  -4.162  -9.432  0.00  0.00    +0.156 HD
ENDROOT
BRANCH  14  16
ATOM     16  C   UNL     1      -3.052  -5.893  -9.771  0.00  0.00    +0.070 A 
ATOM     17  C   UNL     1      -3.345  -7.150  -9.262  0.00  0.00    +0.026 A 
ATOM     18  C   UNL     1      -4.146  -8.016  -9.981  0.00  0.00    +0.002 A 
ATOM     19  C   UNL     1      -4.657  -7.633 -11.207  0.00  0.00    +0.003 A 
ATOM     20  C   UNL     1      -4.369  -6.381 -11.718  0.00  0.00    +0.040 A 
ATOM     21  C   UNL     1      -3.572  -5.506 -11.002  0.00  0.00    +0.145 A 
ATOM     22  F   UNL     1      -3.295  -4.281 -11.499  0.00  0.00    -0.204 F 
ENDBRANCH  14  16
BRANCH   3  23
ATOM     23  C   UNL     1       1.580  -3.015  -6.168  0.00  0.00    +0.032 A 
ATOM     24  C   UNL     1       2.956  -2.832  -6.129  0.00  0.00    +0.023 A 
ATOM     25  C   UNL     1       3.771  -3.546  -6.986  0.00  0.00    +0.002 A 
ATOM     26  C   UNL     1       3.218  -4.442  -7.882  0.00  0.00    +0.000 A 
ATOM     27  C   UNL     1       1.848  -4.626  -7.924  0.00  0.00    +0.002 A 
ATOM     28  C   UNL     1       1.028  -3.920  -7.066  0.00  0.00    +0.023 A 
ENDBRANCH   3  23
BRANCH   1  29
ATOM     29  C   UNL     1      -0.051   0.266  -2.632  0.00  0.00    +0.205 C 
BRANCH  29  32
ATOM     30  C   UNL     1       0.000   1.862  -0.290  0.00  0.00    +0.132 C 
ATOM     31  N   UNL     1       0.165   0.411  -0.172  0.00  0.00    -0.299 N 
ATOM     32  C   UNL     1       0.143  -0.362  -1.276  0.00  0.00    +0.233 C 
ATOM     33  O   UNL     1       0.280  -1.563  -1.178  0.00  0.00    -0.274 OA
BRANCH  31  34
ATOM     34  C   UNL     1       0.354  -0.200   1.147  0.00  0.00    +0.142 C 
BRANCH  34  35
ATOM     35  C   UNL     1      -0.988  -0.558   1.731  0.00  0.00    -0.030 A 
ATOM     36  C   UNL     1      -1.673   0.360   2.504  0.00  0.00    +0.005 A 
ATOM     37  C   UNL     1      -2.904   0.031   3.040  0.00  0.00    +0.000 A 
ATOM     38  C   UNL     1      -3.450  -1.216   2.802  0.00  0.00    +0.000 A 
ATOM     39  C   UNL     1      -2.766  -2.135   2.028  0.00  0.00    +0.000 A 
ATOM     40  C   UNL     1      -1.537  -1.804   1.488  0.00  0.00    +0.005 A 
ENDBRANCH  34  35
ENDBRANCH  31  34
ENDBRANCH  29  32
ENDBRANCH   1  29
TORSDOF 6
