REMARK  Name = ZINC08874046
REMARK  9 active torsions:
REMARK  status: ('A' for Active; 'I' for Inactive)
REMARK    1  A    between atoms: C_1  and  C_2
REMARK    2  A    between atoms: C_3  and  N_9
REMARK    3  A    between atoms: C_10  and  C_12
REMARK    4  A    between atoms: C_12  and  C_13
REMARK    5  A    between atoms: C_13  and  C_14
REMARK    6  A    between atoms: N_16  and  N_17
REMARK    7  A    between atoms: C_18  and  C_20
REMARK    8  A    between atoms: C_20  and  O_21
REMARK    9  A    between atoms: O_21  and  C_22
REMARK                            x       y       z     vdW  Elec       q    Type
REMARK                         _______ _______ _______ _____ _____    ______ ____
ROOT
ATOM      1  C   UNL     1       4.017  12.513  -0.004  0.00  0.00    +0.230 C 
ATOM      2  O   UNL     1       5.144  12.063  -0.024  0.00  0.00    -0.274 OA
ATOM      3  N   UNL     1       2.959  11.678  -0.001  0.00  0.00    -0.234 N 
ATOM      4  H   UNL     1       2.058  12.037   0.014  0.00  0.00    +0.173 HD
ENDROOT
BRANCH   3   5
ATOM      5  N   UNL     1       3.160  10.292  -0.021  0.00  0.00    -0.232 N 
ATOM      6  C   UNL     1       2.102   9.457  -0.018  0.00  0.00    +0.267 C 
ATOM      7  O   UNL     1       0.975   9.906   0.002  0.00  0.00    -0.271 OA
ATOM      8  H   UNL     1       4.061   9.932  -0.036  0.00  0.00    +0.173 HD
BRANCH   6   9
ATOM      9  C   UNL     1       2.318   7.966  -0.039  0.00  0.00    +0.326 C 
BRANCH   9  10
ATOM     10  O   UNL     1       1.053   7.301  -0.031  0.00  0.00    -0.482 OA
BRANCH  10  11
ATOM     11  C   UNL     1       1.070   5.942  -0.048  0.00  0.00    +0.136 A 
ATOM     12  C   UNL     1       2.294   5.268  -0.072  0.00  0.00    +0.047 A 
ATOM     13  C   UNL     1       2.344   3.909  -0.089  0.00  0.00    +0.012 A 
ATOM     14  C   UNL     1       1.150   3.167  -0.083  0.00  0.00    -0.017 A 
ATOM     15  C   UNL     1       1.165   1.762  -0.101  0.00  0.00    +0.008 A 
ATOM     16  C   UNL     1      -0.010   1.075  -0.095  0.00  0.00    +0.001 A 
ATOM     17  C   UNL     1      -1.232   1.745  -0.077  0.00  0.00    +0.001 A 
ATOM     18  C   UNL     1      -1.286   3.105  -0.054  0.00  0.00    +0.010 A 
ATOM     19  C   UNL     1      -0.093   3.848  -0.059  0.00  0.00    -0.000 A 
ATOM     20  C   UNL     1      -0.110   5.253  -0.042  0.00  0.00    +0.067 A 
ATOM     21 BR   UNL     1      -1.756   6.184  -0.010  0.00  0.00    -0.046 Br
ENDBRANCH  10  11
ENDBRANCH   9  10
ENDBRANCH   6   9
ENDBRANCH   3   5
BRANCH   1  22
ATOM     22  C   UNL     1       3.801  14.004   0.017  0.00  0.00    +0.106 C 
BRANCH  22  23
ATOM     23  C   UNL     1       5.155  14.716   0.008  0.00  0.00    +0.105 C 
BRANCH  23  25
ATOM     24  N   UNL     1       5.997  17.041   0.026  0.00  0.00    -0.285 N 
ATOM     25  C   UNL     1       4.939  16.207   0.029  0.00  0.00    +0.218 C 
ATOM     26  O   UNL     1       3.813  16.656   0.049  0.00  0.00    -0.275 OA
ATOM     27  H   UNL     1       6.897  16.684   0.091  0.00  0.00    +0.155 HD
BRANCH  24  30
ATOM     28  C   UNL     1       8.002  18.765   1.079  0.00  0.00    +0.047 C 
ATOM     29  C   UNL     1       6.752  19.300   0.430  0.00  0.00    -0.011 A 
ATOM     30  C   UNL     1       5.799  18.423  -0.071  0.00  0.00    +0.038 A 
ATOM     31  C   UNL     1       4.645  18.920  -0.664  0.00  0.00    +0.023 A 
ATOM     32  C   UNL     1       4.451  20.284  -0.758  0.00  0.00    +0.003 A 
ATOM     33  C   UNL     1       5.404  21.156  -0.264  0.00  0.00    +0.020 A 
ATOM     34  C   UNL     1       6.555  20.664   0.327  0.00  0.00    +0.046 A 
ATOM     35 CL   UNL     1       7.749  21.762   0.946  0.00  0.00    -0.083 Cl
ENDBRANCH  24  30
ENDBRANCH  23  25
ENDBRANCH  22  23
ENDBRANCH   1  22
TORSDOF 8
