REMARK  Name = ZINC09636419
REMARK  11 active torsions:
REMARK  status: ('A' for Active; 'I' for Inactive)
REMARK    1  A    between atoms: C_1  and  N_2
REMARK    2  A    between atoms: C_6  and  S_15
REMARK    3  A    between atoms: N_11  and  C_14
REMARK    4  A    between atoms: S_15  and  N_18
REMARK    5  A    between atoms: N_18  and  C_19
REMARK    6  A    between atoms: C_19  and  C_21
REMARK    7  A    between atoms: C_19  and  C_27
REMARK    8  A    between atoms: N_29  and  C_30
REMARK    9  A    between atoms: C_30  and  C_31
REMARK   10  A    between atoms: C_31  and  C_32
REMARK   11  A    between atoms: C_32  and  C_33
REMARK                            x       y       z     vdW  Elec       q    Type
REMARK                         _______ _______ _______ _____ _____    ______ ____
ROOT
ATOM      1  C   UNL     1       0.057   7.259   4.725  0.00  0.00    +0.192 C 
ENDROOT
BRANCH   1   2
ATOM      2  C   UNL     1       0.356   8.634   4.186  0.00  0.00    -0.020 A 
ATOM      3  C   UNL     1      -0.022   9.754   4.903  0.00  0.00    +0.006 A 
ATOM      4  C   UNL     1       0.257  11.016   4.412  0.00  0.00    +0.000 A 
ATOM      5  C   UNL     1       0.904  11.157   3.199  0.00  0.00    +0.000 A 
ATOM      6  C   UNL     1       1.277  10.037   2.479  0.00  0.00    +0.000 A 
ATOM      7  C   UNL     1       1.003   8.776   2.973  0.00  0.00    +0.006 A 
ENDBRANCH   1   2
BRANCH   1   8
ATOM      8  C   UNL     1       1.087   6.889   5.760  0.00  0.00    +0.236 C 
ATOM      9  O   UNL     1       0.743   6.645   6.898  0.00  0.00    -0.274 OA
ATOM     10  N   UNL     1       2.390   6.831   5.423  0.00  0.00    -0.314 N 
ATOM     11  H   UNL     1       2.665   7.026   4.514  0.00  0.00    +0.149 HD
BRANCH  10  12
ATOM     12  C   UNL     1       3.392   6.472   6.430  0.00  0.00    +0.104 C 
BRANCH  12  13
ATOM     13  C   UNL     1       4.782   6.478   5.791  0.00  0.00    +0.023 C 
BRANCH  13  14
ATOM     14  C   UNL     1       5.829   6.103   6.843  0.00  0.00    +0.036 C 
BRANCH  14  15
ATOM     15  C   UNL     1       7.198   6.109   6.214  0.00  0.00    -0.047 A 
ATOM     16  C   UNL     1       7.702   4.955   5.644  0.00  0.00    +0.003 A 
ATOM     17  C   UNL     1       8.956   4.962   5.063  0.00  0.00    +0.000 A 
ATOM     18  C   UNL     1       9.710   6.121   5.060  0.00  0.00    +0.000 A 
ATOM     19  C   UNL     1       9.209   7.273   5.635  0.00  0.00    +0.000 A 
ATOM     20  C   UNL     1       7.952   7.268   6.212  0.00  0.00    +0.003 A 
ENDBRANCH  14  15
ENDBRANCH  13  14
ENDBRANCH  12  13
ENDBRANCH  10  12
ENDBRANCH   1   8
BRANCH   1  21
ATOM     21  N   UNL     1      -1.275   7.253   5.336  0.00  0.00    -0.174 NA
ATOM     22  H   UNL     1      -1.387   7.536   6.257  0.00  0.00    +0.149 HD
BRANCH  21  23
ATOM     23  S   UNL     1      -2.588   6.762   4.455  0.00  0.00    +0.059 S 
ATOM     24  O   UNL     1      -2.530   7.458   3.217  0.00  0.00    -0.153 OA
ATOM     25  O   UNL     1      -3.712   6.843   5.322  0.00  0.00    -0.153 OA
BRANCH  23  31
ATOM     26  C   UNL     1      -2.324  -0.015   4.123  0.00  0.00    +0.154 C 
ATOM     27  N   UNL     1      -1.823   1.020   3.215  0.00  0.00    -0.296 N 
ATOM     28  C   UNL     1      -2.014   2.358   3.527  0.00  0.00    +0.058 A 
ATOM     29  C   UNL     1      -2.672   2.748   4.684  0.00  0.00    +0.028 A 
ATOM     30  C   UNL     1      -2.841   4.090   4.957  0.00  0.00    +0.030 A 
ATOM     31  C   UNL     1      -2.360   5.055   4.085  0.00  0.00    +0.106 A 
ATOM     32  C   UNL     1      -1.703   4.686   2.929  0.00  0.00    +0.043 A 
ATOM     33  C   UNL     1      -1.525   3.335   2.643  0.00  0.00    +0.065 A 
ATOM     34  C   UNL     1      -0.826   2.886   1.425  0.00  0.00    +0.264 A 
ATOM     35  O   UNL     1      -0.379   3.690   0.630  0.00  0.00    -0.267 OA
ATOM     36  N   UNL     1      -0.698   1.558   1.213  0.00  0.00    -0.263 N 
ATOM     37  C   UNL     1      -1.183   0.663   2.088  0.00  0.00    +0.332 A 
ATOM     38  O   UNL     1      -1.037  -0.520   1.851  0.00  0.00    -0.246 OA
ATOM     39  C   UNL     1      -0.013   1.086   0.008  0.00  0.00    +0.157 C 
ENDBRANCH  23  31
ENDBRANCH  21  23
ENDBRANCH   1  21
TORSDOF 9
