REMARK  Name = ZINC36824687
REMARK  7 active torsions:
REMARK  status: ('A' for Active; 'I' for Inactive)
REMARK    1  A    between atoms: C_1  and  C_2
REMARK    2  A    between atoms: C_2  and  O_3
REMARK    3  A    between atoms: O_3  and  C_4
REMARK    4  A    between atoms: C_6  and  C_21
REMARK    5  A    between atoms: C_9  and  O_10
REMARK    6  A    between atoms: O_10  and  C_11
REMARK    7  A    between atoms: C_21  and  N_22
REMARK                            x       y       z     vdW  Elec       q    Type
REMARK                         _______ _______ _______ _____ _____    ______ ____
ROOT
ATOM      1  C   UNL     1       0.777  -1.811  -1.336  0.00  0.00    +0.163 A 
ATOM      2  C   UNL     1       0.243  -2.669  -0.388  0.00  0.00    +0.051 A 
ATOM      3  C   UNL     1       0.352  -4.037  -0.554  0.00  0.00    -0.060 A 
ATOM      4  C   UNL     1       0.992  -4.553  -1.665  0.00  0.00    +0.021 A 
ATOM      5  C   UNL     1       1.527  -3.702  -2.616  0.00  0.00    +0.063 A 
ATOM      6  C   UNL     1       1.416  -2.329  -2.458  0.00  0.00    +0.177 A 
ATOM      7 BR   UNL     1       2.403  -4.412  -4.134  0.00  0.00    -0.046 Br
ENDROOT
BRANCH   1   8
ATOM      8  O   UNL     1       0.671  -0.465  -1.174  0.00  0.00    -0.489 OA
BRANCH   8  10
ATOM      9  C   UNL     1      -0.019   1.526   0.010  0.00  0.00    +0.048 C 
ATOM     10  C   UNL     1       0.002  -0.004   0.002  0.00  0.00    +0.226 C 
ENDBRANCH   8  10
ENDBRANCH   1   8
BRANCH   6  11
ATOM     11  O   UNL     1       1.936  -1.491  -3.394  0.00  0.00    -0.475 OA
BRANCH  11  12
ATOM     12  C   UNL     1       3.293  -1.080  -3.215  0.00  0.00    +0.259 C 
ATOM     13  C   UNL     1       3.492   0.312  -3.820  0.00  0.00    +0.054 C 
ATOM     14  C   UNL     1       2.638   0.486  -5.062  0.00  0.00    +0.006 C 
ATOM     15  C   UNL     1       3.054  -0.401  -6.221  0.00  0.00    +0.019 C 
ATOM     16  C   UNL     1       2.800  -1.875  -5.898  0.00  0.00    +0.104 C 
ATOM     17  N   UNL     1       3.971  -2.409  -5.184  0.00  0.00    -0.312 N 
ATOM     18  C   UNL     1       4.216  -2.051  -3.920  0.00  0.00    +0.254 C 
ATOM     19  O   UNL     1       5.181  -2.499  -3.336  0.00  0.00    -0.272 OA
ATOM     20  H   UNL     1       4.569  -3.026  -5.634  0.00  0.00    +0.149 HD
ENDBRANCH  11  12
ENDBRANCH   6  11
BRANCH   3  21
ATOM     21  C   UNL     1      -0.228  -4.968   0.479  0.00  0.00    -0.050 C 
BRANCH  21  22
ATOM     22  N   UNL     1      -1.619  -5.283   0.128  0.00  0.00    +0.381 N 
ATOM     23  H   UNL     1      -1.646  -5.727  -0.777  0.00  0.00    -0.090 HD
ATOM     24  H   UNL     1      -2.008  -5.906   0.820  0.00  0.00    -0.090 HD
ATOM     25  H   UNL     1      -2.160  -4.432   0.101  0.00  0.00    -0.090 HD
ENDBRANCH  21  22
ENDBRANCH   3  21
TORSDOF 6
