REMARK  Name = ZINC08764235
REMARK  8 active torsions:
REMARK  status: ('A' for Active; 'I' for Inactive)
REMARK    1  A    between atoms: C_1  and  C_2
REMARK    2  A    between atoms: C_2  and  C_3
REMARK    3  A    between atoms: C_16  and  C_18
REMARK    4  A    between atoms: C_19  and  O_36
REMARK    5  A    between atoms: N_24  and  C_27
REMARK    6  A    between atoms: C_27  and  C_28
REMARK    7  A    between atoms: C_31  and  O_34
REMARK    8  A    between atoms: O_34  and  C_35
REMARK                            x       y       z     vdW  Elec       q    Type
REMARK                         _______ _______ _______ _____ _____    ______ ____
ROOT
ATOM      1  C   UNL     1       3.292   2.735  -1.180  0.00  0.00    +0.068 A 
ATOM      2  C   UNL     1       3.920   2.957   0.009  0.00  0.00    +0.201 A 
ATOM      3  N   UNL     1       3.256   2.701   1.182  0.00  0.00    -0.278 N 
ATOM      4  H   UNL     1       3.699   2.857   2.031  0.00  0.00    +0.173 HD
ATOM      5  C   UNL     1       1.992   2.240   1.163  0.00  0.00    +0.332 A 
ATOM      6  O   UNL     1       1.417   2.024   2.213  0.00  0.00    -0.246 OA
ATOM      7  N   UNL     1       1.356   2.010  -0.000  0.00  0.00    -0.256 N 
ATOM      8  C   UNL     1       1.972   2.248  -1.175  0.00  0.00    +0.262 A 
ATOM      9  O   UNL     1       1.391   2.042  -2.226  0.00  0.00    -0.267 OA
ENDROOT
BRANCH   1  22
ATOM     10  C   UNL     1       4.478   2.076  -4.674  0.00  0.00    -0.066 C 
ATOM     11  C   UNL     1       3.444   2.917  -5.435  0.00  0.00    +0.022 C 
ATOM     12  C   UNL     1       3.040   4.071  -4.552  0.00  0.00    -0.022 A 
ATOM     13  C   UNL     1       2.350   5.293  -4.898  0.00  0.00    +0.003 A 
ATOM     14  C   UNL     1       1.847   5.792  -6.104  0.00  0.00    +0.010 A 
ATOM     15  C   UNL     1       1.233   7.020  -6.060  0.00  0.00    +0.001 A 
ATOM     16  C   UNL     1       1.111   7.740  -4.883  0.00  0.00    +0.002 A 
ATOM     17  C   UNL     1       1.599   7.271  -3.676  0.00  0.00    +0.026 A 
ATOM     18  C   UNL     1       2.226   6.027  -3.690  0.00  0.00    +0.047 A 
ATOM     19  N   UNL     1       2.807   5.284  -2.701  0.00  0.00    -0.359 N 
ATOM     20  H   UNL     1       2.867   5.546  -1.769  0.00  0.00    +0.166 HD
ATOM     21  C   UNL     1       3.290   4.116  -3.223  0.00  0.00    +0.011 A 
ATOM     22  C   UNL     1       4.000   3.008  -2.481  0.00  0.00    +0.018 C 
ATOM     23  N   UNL     1       3.977   1.786  -3.315  0.00  0.00    +0.390 N 
ATOM     24  H   UNL     1       4.571   1.070  -2.881  0.00  0.00    -0.084 HD
ATOM     25  H   UNL     1       3.012   1.439  -3.377  0.00  0.00    -0.084 HD
BRANCH  10  27
ATOM     26  C   UNL     1       5.825  -0.027  -4.725  0.00  0.00    +0.002 C 
ATOM     27  C   UNL     1       4.706   0.756  -5.414  0.00  0.00    -0.019 C 
ENDBRANCH  10  27
ENDBRANCH   1  22
BRANCH   2  28
ATOM     28  O   UNL     1       5.186   3.424   0.033  0.00  0.00    -0.493 OA
ATOM     29  H   UNL     1       5.543   3.549   0.923  0.00  0.00    +0.294 HD
ENDBRANCH   2  28
BRANCH   7  30
ATOM     30  C   UNL     1      -0.018   1.503   0.010  0.00  0.00    +0.165 C 
BRANCH  30  31
ATOM     31  C   UNL     1       0.002  -0.004   0.002  0.00  0.00    -0.027 A 
ATOM     32  C   UNL     1      -0.006  -0.688  -1.200  0.00  0.00    +0.009 A 
ATOM     33  C   UNL     1       0.019  -2.069  -1.210  0.00  0.00    +0.046 A 
ATOM     34  C   UNL     1       0.040  -2.770  -0.013  0.00  0.00    +0.120 A 
ATOM     35  C   UNL     1       0.042  -2.082   1.191  0.00  0.00    +0.046 A 
ATOM     36  C   UNL     1       0.023  -0.701   1.196  0.00  0.00    +0.009 A 
BRANCH  34  37
ATOM     37  O   UNL     1       0.059  -4.129  -0.021  0.00  0.00    -0.495 OA
ATOM     38  C   UNL     1       0.055  -4.771  -1.297  0.00  0.00    +0.277 C 
ENDBRANCH  34  37
ENDBRANCH  30  31
ENDBRANCH   7  30
TORSDOF 6
