REMARK  Name = ZINC39973230
REMARK  12 active torsions:
REMARK  status: ('A' for Active; 'I' for Inactive)
REMARK    1  A    between atoms: C_1  and  C_2
REMARK    2  A    between atoms: C_2  and  C_3
REMARK    3  A    between atoms: C_3  and  O_4
REMARK    4  A    between atoms: O_4  and  C_5
REMARK    5  A    between atoms: C_6  and  O_27
REMARK    6  A    between atoms: C_8  and  C_12
REMARK    7  A    between atoms: C_13  and  C_14
REMARK    8  A    between atoms: C_13  and  C_16
REMARK    9  A    between atoms: C_20  and  C_26
REMARK   10  A    between atoms: C_21  and  C_25
REMARK   11  A    between atoms: O_27  and  C_28
REMARK   12  A    between atoms: C_28  and  C_29
REMARK                            x       y       z     vdW  Elec       q    Type
REMARK                         _______ _______ _______ _____ _____    ______ ____
ROOT
ATOM      1  C   UNL     1      -7.041  -5.993  -0.601  0.00  0.00    +0.026 C 
ATOM      2  C   UNL     1      -7.861  -5.185  -1.307  0.00  0.00    +0.072 C 
ENDROOT
BRANCH   2   3
ATOM      3  C   UNL     1      -7.281  -4.150  -2.236  0.00  0.00    +0.216 C 
ATOM      4  N   UNL     1      -7.917  -2.848  -1.998  0.00  0.00    -0.359 N 
ATOM      5  C   UNL     1      -8.501  -2.491  -3.106  0.00  0.00    +0.061 A 
ATOM      6  C   UNL     1      -9.287  -1.308  -3.485  0.00  0.00    +0.031 A 
ATOM      7  C   UNL     1      -9.778  -1.209  -4.736  0.00  0.00    -0.045 A 
ATOM      8  C   UNL     1      -9.571  -2.200  -5.712  0.00  0.00    -0.045 A 
ATOM      9  C   UNL     1      -8.867  -3.323  -5.470  0.00  0.00    +0.031 A 
ATOM     10  C   UNL     1      -8.283  -3.539  -4.139  0.00  0.00    +0.061 A 
ATOM     11  N   UNL     1      -7.572  -4.505  -3.630  0.00  0.00    -0.359 N 
ATOM     12  C   UNL     1     -10.161  -1.998  -7.084  0.00  0.00    +0.044 C 
ATOM     13  C   UNL     1     -10.581   0.012  -5.103  0.00  0.00    +0.044 C 
ATOM     14  H   UNL     1      -7.905  -2.346  -1.168  0.00  0.00    +0.162 HD
ATOM     15  H   UNL     1      -7.287  -5.310  -4.089  0.00  0.00    +0.162 HD
ENDBRANCH   2   3
BRANCH   1  19
ATOM     16  C   UNL     1      -2.867  -5.978  -1.377  0.00  0.00    +0.176 A 
ATOM     17  C   UNL     1      -3.328  -6.058  -0.064  0.00  0.00    +0.164 A 
ATOM     18  C   UNL     1      -4.685  -6.063   0.193  0.00  0.00    +0.057 A 
ATOM     19  C   UNL     1      -5.595  -5.987  -0.868  0.00  0.00    -0.019 A 
ATOM     20  C   UNL     1      -5.125  -5.907  -2.183  0.00  0.00    +0.027 A 
ATOM     21  C   UNL     1      -3.768  -5.896  -2.430  0.00  0.00    +0.064 A 
ATOM     22 BR   UNL     1      -3.134  -5.780  -4.208  0.00  0.00    -0.046 Br
BRANCH  16  23
ATOM     23  O   UNL     1      -1.531  -5.973  -1.627  0.00  0.00    -0.487 OA
BRANCH  23  24
ATOM     24  C   UNL     1      -0.882  -4.700  -1.658  0.00  0.00    +0.229 C 
BRANCH  24  26
ATOM     25  C   UNL     1       1.303  -3.532  -1.984  0.00  0.00    +0.007 C 
ATOM     26  C   UNL     1       0.608  -4.895  -1.951  0.00  0.00    +0.038 C 
ENDBRANCH  24  26
ENDBRANCH  23  24
ENDBRANCH  16  23
BRANCH  17  27
ATOM     27  O   UNL     1      -2.442  -6.132   0.965  0.00  0.00    -0.489 OA
BRANCH  27  28
ATOM     28  C   UNL     1      -2.984  -6.212   2.284  0.00  0.00    +0.226 C 
ATOM     29  C   UNL     1      -1.843  -6.288   3.301  0.00  0.00    +0.048 C 
ENDBRANCH  27  28
ENDBRANCH  17  27
ENDBRANCH   1  19
BRANCH   2  30
ATOM     30  C   UNL     1      -9.281  -5.312  -1.172  0.00  0.00    +0.099 C 
ATOM     31  N   UNL     1     -10.407  -5.413  -1.066  0.00  0.00    -0.191 NA
ENDBRANCH   2  30
TORSDOF 8
