REMARK  Name = ZINC39678366
REMARK  9 active torsions:
REMARK  status: ('A' for Active; 'I' for Inactive)
REMARK    1  A    between atoms: C_1  and  C_2
REMARK    2  A    between atoms: C_2  and  C_3
REMARK    3  A    between atoms: C_3  and  C_5
REMARK    4  A    between atoms: C_3  and  C_6
REMARK    5  A    between atoms: C_6  and  C_7
REMARK    6  A    between atoms: C_11  and  C_20
REMARK    7  A    between atoms: N_22  and  C_23
REMARK    8  A    between atoms: C_23  and  C_24
REMARK    9  A    between atoms: C_29  and  N_30
REMARK                            x       y       z     vdW  Elec       q    Type
REMARK                         _______ _______ _______ _____ _____    ______ ____
ROOT
ATOM      1  C   UNL     1      -3.669  -2.733   0.282  0.00  0.00    +0.216 C 
ATOM      2  O   UNL     1      -4.623  -2.052   0.594  0.00  0.00    -0.276 OA
ATOM      3  N   UNL     1      -3.672  -4.056   0.539  0.00  0.00    -0.300 N 
ATOM      4  C   UNL     1      -2.607  -5.041   0.241  0.00  0.00    +0.121 C 
ATOM      5  C   UNL     1      -2.586  -5.978   1.470  0.00  0.00    +0.100 C 
ATOM      6  C   UNL     1      -3.991  -5.851   2.083  0.00  0.00    -0.004 C 
ATOM      7  C   UNL     1      -4.740  -4.853   1.189  0.00  0.00    +0.115 C 
ATOM      8  C   UNL     1      -3.900  -5.311   3.506  0.00  0.00    -0.010 C 
ATOM      9  C   UNL     1      -5.304  -5.248   4.114  0.00  0.00    -0.082 C 
ATOM     10  N   UNL     1      -5.899  -6.590   4.117  0.00  0.00    +0.379 N 
ATOM     11  C   UNL     1      -6.068  -7.065   2.738  0.00  0.00    -0.082 C 
ATOM     12  C   UNL     1      -4.696  -7.204   2.072  0.00  0.00    -0.010 C 
ATOM     13  H   UNL     1      -5.294  -7.224   4.617  0.00  0.00    -0.086 HD
ATOM     14  H   UNL     1      -6.798  -6.557   4.572  0.00  0.00    -0.086 HD
ENDROOT
BRANCH   5  15
ATOM     15  C   UNL     1      -2.323  -7.399   1.043  0.00  0.00    +0.218 C 
ATOM     16  O   UNL     1      -2.868  -7.846   0.056  0.00  0.00    -0.275 OA
ATOM     17  N   UNL     1      -1.483  -8.172   1.758  0.00  0.00    -0.311 N 
ATOM     18  H   UNL     1      -1.047  -7.815   2.547  0.00  0.00    +0.149 HD
BRANCH  17  19
ATOM     19  C   UNL     1      -1.227  -9.554   1.342  0.00  0.00    +0.141 C 
BRANCH  19  20
ATOM     20  C   UNL     1      -0.259 -10.196   2.302  0.00  0.00    -0.009 A 
ATOM     21  C   UNL     1       1.079 -10.296   1.972  0.00  0.00    +0.007 A 
ATOM     22  C   UNL     1       1.967 -10.886   2.853  0.00  0.00    +0.000 A 
ATOM     23  C   UNL     1       1.520 -11.377   4.066  0.00  0.00    +0.002 A 
ATOM     24  C   UNL     1       0.185 -11.280   4.402  0.00  0.00    +0.023 A 
ATOM     25  C   UNL     1      -0.710 -10.683   3.522  0.00  0.00    +0.034 A 
BRANCH  25  26
ATOM     26  N   UNL     1      -2.061 -10.579   3.862  0.00  0.00    -0.330 N 
ATOM     27  C   UNL     1      -3.004 -11.652   3.518  0.00  0.00    +0.105 C 
ATOM     28  C   UNL     1      -3.744 -12.084   4.788  0.00  0.00    +0.019 C 
ATOM     29  C   UNL     1      -4.394 -10.859   5.436  0.00  0.00    +0.003 C 
ATOM     30  C   UNL     1      -3.311  -9.852   5.827  0.00  0.00    +0.019 C 
ATOM     31  C   UNL     1      -2.565  -9.397   4.574  0.00  0.00    +0.105 C 
ENDBRANCH  25  26
ENDBRANCH  19  20
ENDBRANCH  17  19
ENDBRANCH   5  15
BRANCH   1  32
ATOM     32  C   UNL     1      -2.480  -2.099  -0.393  0.00  0.00    +0.099 C 
BRANCH  32  33
ATOM     33  C   UNL     1      -2.731  -0.600  -0.566  0.00  0.00    -0.006 C 
ATOM     34  C   UNL     1      -3.903  -0.386  -1.526  0.00  0.00    +0.008 C 
BRANCH  33  36
ATOM     35  C   UNL     1      -1.683   1.580  -1.193  0.00  0.00    +0.004 C 
ATOM     36  C   UNL     1      -1.476   0.065  -1.137  0.00  0.00    +0.000 C 
ENDBRANCH  33  36
ENDBRANCH  32  33
ENDBRANCH   1  32
TORSDOF 7
