REMARK  Name = ZINC63373917
REMARK  10 active torsions:
REMARK  status: ('A' for Active; 'I' for Inactive)
REMARK    1  A    between atoms: C_1  and  C_2
REMARK    2  A    between atoms: C_5  and  C_8
REMARK    3  A    between atoms: C_8  and  N_9
REMARK    4  A    between atoms: C_10  and  C_12
REMARK    5  A    between atoms: C_12  and  C_14
REMARK    6  A    between atoms: C_12  and  N_18
REMARK    7  A    between atoms: C_14  and  C_15
REMARK    8  A    between atoms: C_15  and  C_16
REMARK    9  A    between atoms: C_15  and  C_17
REMARK   10  A    between atoms: C_21  and  C_37
REMARK                            x       y       z     vdW  Elec       q    Type
REMARK                         _______ _______ _______ _____ _____    ______ ____
ROOT
ATOM      1  N   UNL     1       3.273  -8.137  -0.194  0.00  0.00    -0.212 N 
ATOM      2  C   UNL     1       3.762  -8.896   0.809  0.00  0.00    +0.249 C 
ATOM      3  O   UNL     1       4.167  -8.514   1.886  0.00  0.00    -0.273 OA
ATOM      4  C   UNL     1       3.700 -10.322   0.309  0.00  0.00    +0.136 C 
ATOM      5  C   UNL     1       5.093 -10.951   0.298  0.00  0.00    +0.139 C 
ATOM      6  C   UNL     1       5.493 -11.141  -1.157  0.00  0.00    -0.034 C 
ATOM      7  C   UNL     1       6.653 -10.506  -1.309  0.00  0.00    -0.001 A 
ATOM      8  C   UNL     1       7.558 -10.388  -2.463  0.00  0.00    +0.010 A 
ATOM      9  C   UNL     1       8.677  -9.640  -2.273  0.00  0.00    +0.001 A 
ATOM     10  C   UNL     1       8.981  -9.005  -1.065  0.00  0.00    +0.002 A 
ATOM     11  C   UNL     1       8.208  -9.063   0.049  0.00  0.00    +0.026 A 
ATOM     12  C   UNL     1       7.006  -9.825  -0.027  0.00  0.00    +0.043 A 
ATOM     13  N   UNL     1       6.097 -10.066   0.891  0.00  0.00    -0.375 N 
ATOM     14  C   UNL     1       4.640 -11.860  -2.173  0.00  0.00    +0.052 C 
ATOM     15  C   UNL     1       3.229 -11.245  -2.092  0.00  0.00    +0.115 C 
ATOM     16  N   UNL     1       3.261 -10.172  -1.094  0.00  0.00    -0.269 N 
ATOM     17  C   UNL     1       2.951  -8.879  -1.262  0.00  0.00    +0.313 C 
ATOM     18  O   UNL     1       2.440  -8.430  -2.270  0.00  0.00    -0.252 OA
ATOM     19  C   UNL     1       2.704 -11.154   1.120  0.00  0.00    +0.044 C 
ATOM     20  H   UNL     1       6.084  -9.720   1.798  0.00  0.00    +0.160 HD
ENDROOT
BRANCH   1  21
ATOM     21  C   UNL     1       3.108  -6.684  -0.121  0.00  0.00    +0.171 C 
BRANCH  21  23
ATOM     22  N   UNL     1       1.248  -5.053  -0.131  0.00  0.00    -0.310 N 
ATOM     23  C   UNL     1       1.641  -6.341  -0.182  0.00  0.00    +0.234 C 
ATOM     24  O   UNL     1       0.816  -7.224  -0.277  0.00  0.00    -0.274 OA
ATOM     25  H   UNL     1       1.908  -4.347  -0.055  0.00  0.00    +0.149 HD
BRANCH  22  26
ATOM     26  C   UNL     1      -0.178  -4.720  -0.190  0.00  0.00    +0.139 C 
BRANCH  26  31
ATOM     27  C   UNL     1      -0.832   1.014   0.097  0.00  0.00    +0.044 C 
ATOM     28  C   UNL     1      -0.661  -0.481   0.022  0.00  0.00    -0.050 A 
ATOM     29  C   UNL     1      -0.517  -1.099  -1.205  0.00  0.00    +0.003 A 
ATOM     30  C   UNL     1      -0.360  -2.471  -1.274  0.00  0.00    +0.005 A 
ATOM     31  C   UNL     1      -0.348  -3.224  -0.115  0.00  0.00    -0.030 A 
ATOM     32  C   UNL     1      -0.491  -2.606   1.113  0.00  0.00    +0.005 A 
ATOM     33  C   UNL     1      -0.644  -1.234   1.182  0.00  0.00    +0.003 A 
ENDBRANCH  26  31
ENDBRANCH  22  26
ENDBRANCH  21  23
BRANCH  21  34
ATOM     34  C   UNL     1       3.834  -6.028  -1.297  0.00  0.00    +0.035 C 
BRANCH  34  35
ATOM     35  C   UNL     1       5.333  -6.315  -1.195  0.00  0.00    -0.015 C 
ATOM     36  C   UNL     1       6.040  -5.788  -2.445  0.00  0.00    +0.007 C 
ATOM     37  C   UNL     1       5.902  -5.620   0.044  0.00  0.00    +0.007 C 
ENDBRANCH  34  35
ENDBRANCH  21  34
ENDBRANCH   1  21
TORSDOF 6
