REMARK  Name = ZINC54731235
REMARK  6 active torsions:
REMARK  status: ('A' for Active; 'I' for Inactive)
REMARK    1  A    between atoms: C_1  and  C_2
REMARK    2  A    between atoms: C_5  and  C_7
REMARK    3  A    between atoms: C_7  and  C_9
REMARK    4  A    between atoms: C_7  and  N_10
REMARK    5  A    between atoms: N_13  and  N_14
REMARK    6  A    between atoms: C_15  and  C_17
REMARK                            x       y       z     vdW  Elec       q    Type
REMARK                         _______ _______ _______ _____ _____    ______ ____
ROOT
ATOM      1  N   UNL     1       2.201  -4.137  -0.921  0.00  0.00    -0.291 N 
ATOM      2  C   UNL     1       2.539  -5.311  -1.489  0.00  0.00    +0.316 C 
ATOM      3  O   UNL     1       1.883  -6.309  -1.260  0.00  0.00    -0.251 OA
ATOM      4  N   UNL     1       3.605  -5.380  -2.311  0.00  0.00    -0.218 N 
ATOM      5  H   UNL     1       2.725  -3.341  -1.103  0.00  0.00    +0.151 HD
ATOM      6  H   UNL     1       3.848  -6.226  -2.720  0.00  0.00    +0.174 HD
ENDROOT
BRANCH   4   7
ATOM      7  N   UNL     1       4.362  -4.231  -2.575  0.00  0.00    -0.228 N 
ATOM      8  C   UNL     1       5.427  -4.300  -3.397  0.00  0.00    +0.276 C 
ATOM      9  O   UNL     1       5.732  -5.361  -3.910  0.00  0.00    -0.267 OA
ATOM     10  H   UNL     1       4.119  -3.386  -2.166  0.00  0.00    +0.173 HD
BRANCH   8  11
ATOM     11  C   UNL     1       6.219  -3.097  -3.674  0.00  0.00    +0.104 A 
ATOM     12  C   UNL     1       7.325  -3.020  -4.494  0.00  0.00    +0.047 A 
ATOM     13  C   UNL     1       7.764  -1.692  -4.469  0.00  0.00    +0.036 A 
ATOM     14  C   UNL     1       6.937  -0.997  -3.651  0.00  0.00    +0.098 A 
ATOM     15  N   UNL     1       5.991  -1.839  -3.166  0.00  0.00    -0.356 N 
ATOM     16  H   UNL     1       5.274  -1.595  -2.560  0.00  0.00    +0.166 HD
ATOM     17 BR   UNL     1       9.248  -0.992  -5.409  0.00  0.00    -0.049 Br
ENDBRANCH   8  11
ENDBRANCH   4   7
BRANCH   1  18
ATOM     18  C   UNL     1       1.043  -4.062  -0.027  0.00  0.00    +0.108 C 
ATOM     19  C   UNL     1       1.465  -4.458   1.389  0.00  0.00    +0.033 C 
BRANCH  18  24
ATOM     20  C   UNL     1      -0.018   1.503   0.010  0.00  0.00    +0.051 C 
ATOM     21  C   UNL     1       0.002  -0.004   0.002  0.00  0.00    -0.013 A 
ATOM     22  C   UNL     1      -1.039  -0.872   0.002  0.00  0.00    +0.011 A 
ATOM     23  C   UNL     1      -0.780  -2.230  -0.007  0.00  0.00    +0.013 A 
ATOM     24  C   UNL     1       0.507  -2.653  -0.016  0.00  0.00    +0.010 A 
ATOM     25  S   UNL     1       1.404  -1.109  -0.018  0.00  0.00    -0.097 S 
ENDBRANCH  18  24
ENDBRANCH   1  18
TORSDOF 4
