REMARK  Name = ZINC03343328
REMARK  7 active torsions:
REMARK  status: ('A' for Active; 'I' for Inactive)
REMARK    1  A    between atoms: C_2  and  C_3
REMARK    2  A    between atoms: C_3  and  N_4
REMARK    3  A    between atoms: C_17  and  S_18
REMARK    4  A    between atoms: S_18  and  C_19
REMARK    5  A    between atoms: C_19  and  C_21
REMARK    6  A    between atoms: C_19  and  C_27
REMARK    7  A    between atoms: C_27  and  C_29
REMARK                            x       y       z     vdW  Elec       q    Type
REMARK                         _______ _______ _______ _____ _____    ______ ____
ROOT
ATOM      1  C   UNL     1       4.268   2.513  -0.025  0.00  0.00    +0.155 C 
ENDROOT
BRANCH   1   2
ATOM      2  C   UNL     1       3.784   3.145  -1.305  0.00  0.00    -0.027 A 
ATOM      3  C   UNL     1       4.265   2.699  -2.522  0.00  0.00    +0.005 A 
ATOM      4  C   UNL     1       3.818   3.276  -3.695  0.00  0.00    +0.000 A 
ATOM      5  C   UNL     1       2.896   4.305  -3.652  0.00  0.00    +0.000 A 
ATOM      6  C   UNL     1       2.418   4.754  -2.435  0.00  0.00    +0.000 A 
ATOM      7  C   UNL     1       2.862   4.174  -1.262  0.00  0.00    +0.005 A 
ENDBRANCH   1   2
BRANCH   1   8
ATOM      8  C   UNL     1       5.761   2.682   0.085  0.00  0.00    +0.183 C 
ATOM      9  O   UNL     1       6.502   1.797  -0.293  0.00  0.00    -0.290 OA
BRANCH   8  10
ATOM     10  C   UNL     1       6.301   3.874   0.629  0.00  0.00    +0.044 A 
ATOM     11  C   UNL     1       5.598   4.966   1.092  0.00  0.00    +0.095 A 
ATOM     12  N   UNL     1       6.457   5.903   1.536  0.00  0.00    -0.360 N 
ATOM     13  H   UNL     1       6.195   6.758   1.911  0.00  0.00    +0.165 HD
ATOM     14  C   UNL     1       7.762   5.481   1.379  0.00  0.00    +0.047 A 
ATOM     15  C   UNL     1       7.730   4.200   0.807  0.00  0.00    +0.010 A 
ATOM     16  C   UNL     1       8.916   3.525   0.535  0.00  0.00    +0.011 A 
ATOM     17  C   UNL     1      10.123   4.122   0.830  0.00  0.00    +0.001 A 
ATOM     18  C   UNL     1      10.158   5.388   1.394  0.00  0.00    +0.002 A 
ATOM     19  C   UNL     1       8.990   6.067   1.668  0.00  0.00    +0.026 A 
ENDBRANCH   8  10
ENDBRANCH   1   8
BRANCH   1  20
ATOM     20  S   UNL     1       3.858   0.746  -0.031  0.00  0.00    -0.069 S 
BRANCH  20  34
ATOM     21  N   UNL     1      -1.036  -0.923   0.007  0.00  0.00    -0.273 N 
ATOM     22  C   UNL     1      -0.791  -2.249  -0.003  0.00  0.00    +0.263 A 
ATOM     23  O   UNL     1      -1.708  -3.049   0.001  0.00  0.00    -0.267 OA
ATOM     24  C   UNL     1       0.609  -2.714  -0.019  0.00  0.00    +0.064 A 
ATOM     25  C   UNL     1       0.920  -4.072  -0.030  0.00  0.00    +0.015 A 
ATOM     26  C   UNL     1       2.241  -4.468  -0.045  0.00  0.00    +0.001 A 
ATOM     27  C   UNL     1       3.255  -3.523  -0.050  0.00  0.00    +0.002 A 
ATOM     28  C   UNL     1       2.959  -2.175  -0.039  0.00  0.00    +0.027 A 
ATOM     29  C   UNL     1       1.637  -1.759  -0.024  0.00  0.00    +0.064 A 
ATOM     30  N   UNL     1       1.310  -0.404  -0.013  0.00  0.00    -0.256 N 
ATOM     31  C   UNL     1       0.002  -0.004   0.002  0.00  0.00    +0.240 A 
ATOM     32  N   UNL     1      -0.016   1.310   0.009  0.00  0.00    -0.109 NA
ATOM     33  N   UNL     1       1.309   1.764  -0.001  0.00  0.00    -0.120 NA
ATOM     34  C   UNL     1       2.097   0.716  -0.014  0.00  0.00    +0.199 A 
BRANCH  21  35
ATOM     35  C   UNL     1      -2.421  -0.447   0.024  0.00  0.00    +0.155 C 
BRANCH  35  37
ATOM     36  C   UNL     1      -4.003  -0.881  -1.784  0.00  0.00    +0.005 C 
ATOM     37  C   UNL     1      -2.910  -0.276  -1.391  0.00  0.00    -0.013 C 
ENDBRANCH  35  37
ENDBRANCH  21  35
ENDBRANCH  20  34
ENDBRANCH   1  20
TORSDOF 7
