REMARK  Name = ZINC38598427
REMARK  2 active torsions:
REMARK  status: ('A' for Active; 'I' for Inactive)
REMARK    1  A    between atoms: C_1  and  C_2
REMARK    2  A    between atoms: C_4  and  C_25
REMARK                            x       y       z     vdW  Elec       q    Type
REMARK                         _______ _______ _______ _____ _____    ______ ____
ROOT
ATOM      1  C   UNL     1      -0.376   1.634  -0.872  0.00  0.00    +0.062 C 
ATOM      2  C   UNL     1      -0.286   0.131  -0.921  0.00  0.00    +0.023 C 
ATOM      3  C   UNL     1      -1.212  -0.683  -0.434  0.00  0.00    +0.005 C 
ATOM      4  C   UNL     1      -2.474  -0.248   0.223  0.00  0.00    +0.110 C 
ATOM      5  S   UNL     1      -3.935  -0.656  -0.749  0.00  0.00    -0.139 S 
ATOM      6  C   UNL     1      -4.055  -2.453  -0.727  0.00  0.00    +0.165 C 
ATOM      7  C   UNL     1      -2.906  -3.096  -1.420  0.00  0.00    +0.225 C 
ATOM      8  O   UNL     1      -3.244  -4.021  -2.127  0.00  0.00    -0.275 OA
ATOM      9  N   UNL     1      -1.643  -2.896  -1.440  0.00  0.00    -0.291 N 
ATOM     10  C   UNL     1      -0.735  -2.087  -0.683  0.00  0.00    +0.210 C 
ATOM     11  N   UNL     1       0.556  -1.942  -1.373  0.00  0.00    -0.213 N 
ATOM     12  N   UNL     1       0.768  -0.560  -1.483  0.00  0.00    -0.265 N 
ATOM     13  C   UNL     1       1.364  -2.929  -1.811  0.00  0.00    +0.150 C 
ATOM     14  N   UNL     1       1.041  -4.200  -1.653  0.00  0.00    -0.221 NA
ATOM     15  C   UNL     1       1.826  -5.213  -2.006  0.00  0.00    +0.225 C 
ATOM     16  N   UNL     1       3.122  -5.057  -2.253  0.00  0.00    -0.218 NA
ATOM     17  C   UNL     1       3.580  -3.811  -2.193  0.00  0.00    +0.164 C 
ATOM     18  N   UNL     1       4.715  -3.275  -1.856  0.00  0.00    -0.219 NA
ATOM     19  C   UNL     1       4.582  -1.964  -1.613  0.00  0.00    +0.218 C 
ATOM     20  N   UNL     1       3.404  -1.502  -1.926  0.00  0.00    -0.253 NA
ATOM     21  C   UNL     1       2.664  -2.625  -2.505  0.00  0.00    +0.239 C 
ATOM     22  H   UNL     1      -1.196  -3.413  -2.128  0.00  0.00    +0.151 HD
ATOM     23  H   UNL     1       1.545  -0.149  -1.893  0.00  0.00    +0.170 HD
ENDROOT
BRANCH   4  24
ATOM     24  C   UNL     1      -2.428   1.245   0.426  0.00  0.00    +0.006 A 
ATOM     25  C   UNL     1      -2.864   2.093  -0.576  0.00  0.00    +0.047 A 
ATOM     26  C   UNL     1      -2.821   3.464  -0.388  0.00  0.00    +0.020 A 
ATOM     27  C   UNL     1      -2.342   3.985   0.799  0.00  0.00    +0.003 A 
ATOM     28  C   UNL     1      -1.906   3.137   1.800  0.00  0.00    +0.020 A 
ATOM     29  C   UNL     1      -1.954   1.767   1.617  0.00  0.00    +0.047 A 
ATOM     30 CL   UNL     1      -1.414   0.703   2.877  0.00  0.00    -0.083 Cl
ATOM     31 CL   UNL     1      -3.464   1.439  -2.067  0.00  0.00    -0.083 Cl
ENDBRANCH   4  24
TORSDOF 1
