REMARK  Name = ZINC38564538
REMARK  11 active torsions:
REMARK  status: ('A' for Active; 'I' for Inactive)
REMARK    1  A    between atoms: C_1  and  C_2
REMARK    2  A    between atoms: C_2  and  C_4
REMARK    3  A    between atoms: C_2  and  N_12
REMARK    4  A    between atoms: C_4  and  C_5
REMARK    5  A    between atoms: C_5  and  C_6
REMARK    6  A    between atoms: C_13  and  C_15
REMARK    7  A    between atoms: C_15  and  C_17
REMARK    8  A    between atoms: C_15  and  N_20
REMARK    9  A    between atoms: C_17  and  C_18
REMARK   10  A    between atoms: C_17  and  C_19
REMARK   11  A    between atoms: C_23  and  C_39
REMARK                            x       y       z     vdW  Elec       q    Type
REMARK                         _______ _______ _______ _____ _____    ______ ____
ROOT
ATOM      1  N   UNL     1       4.211  -0.960   2.251  0.00  0.00    -0.211 N 
ATOM      2  C   UNL     1       5.039  -2.018   2.395  0.00  0.00    +0.253 C 
ATOM      3  O   UNL     1       4.746  -3.133   2.768  0.00  0.00    -0.272 OA
ATOM      4  C   UNL     1       6.406  -1.518   1.991  0.00  0.00    +0.153 C 
ATOM      5  C   UNL     1       7.413  -1.697   3.102  0.00  0.00    +0.053 A 
ATOM      6  H   UNL     1       7.325  -3.727   3.563  0.00  0.00    +0.166 HD
ATOM      7  C   UNL     1       8.145  -0.675   3.602  0.00  0.00    -0.015 A 
ATOM      8  C   UNL     1       9.000  -1.244   4.629  0.00  0.00    +0.003 A 
ATOM      9  C   UNL     1       9.964  -0.681   5.470  0.00  0.00    +0.010 A 
ATOM     10  C   UNL     1      10.596  -1.531   6.345  0.00  0.00    +0.001 A 
ATOM     11  C   UNL     1      10.299  -2.883   6.400  0.00  0.00    +0.002 A 
ATOM     12  C   UNL     1       9.349  -3.466   5.578  0.00  0.00    +0.026 A 
ATOM     13  C   UNL     1       8.694  -2.627   4.680  0.00  0.00    +0.047 A 
ATOM     14  N   UNL     1       7.728  -2.863   3.745  0.00  0.00    -0.356 N 
ATOM     15  C   UNL     1       8.064   0.771   3.183  0.00  0.00    +0.056 C 
ATOM     16  C   UNL     1       7.309   0.899   1.852  0.00  0.00    +0.115 C 
ATOM     17  N   UNL     1       6.198  -0.055   1.877  0.00  0.00    -0.266 N 
ATOM     18  C   UNL     1       4.880   0.147   1.888  0.00  0.00    +0.313 C 
ATOM     19  O   UNL     1       4.349   1.204   1.608  0.00  0.00    -0.252 OA
ATOM     20  C   UNL     1       6.876  -2.139   0.675  0.00  0.00    +0.048 C 
ENDROOT
BRANCH   1  21
ATOM     21  C   UNL     1       2.762  -1.014   2.459  0.00  0.00    +0.174 C 
BRANCH  21  23
ATOM     22  N   UNL     1       0.753  -0.935   1.017  0.00  0.00    -0.311 N 
ATOM     23  C   UNL     1       2.057  -0.635   1.182  0.00  0.00    +0.235 C 
ATOM     24  O   UNL     1       2.662  -0.060   0.302  0.00  0.00    -0.274 OA
ATOM     25  H   UNL     1       0.289  -1.464   1.685  0.00  0.00    +0.149 HD
BRANCH  22  27
ATOM     26  C   UNL     1      -0.472   0.961   0.075  0.00  0.00    +0.028 C 
ATOM     27  C   UNL     1       0.036  -0.461  -0.170  0.00  0.00    +0.070 C 
BRANCH  27  28
ATOM     28  C   UNL     1      -1.149  -1.386  -0.452  0.00  0.00    +0.026 C 
BRANCH  28  29
ATOM     29  C   UNL     1      -0.634  -2.779  -0.819  0.00  0.00    +0.037 C 
BRANCH  29  30
ATOM     30  C   UNL     1      -1.802  -3.689  -1.097  0.00  0.00    -0.047 A 
ATOM     31  C   UNL     1      -2.371  -4.418  -0.069  0.00  0.00    +0.003 A 
ATOM     32  C   UNL     1      -3.442  -5.253  -0.325  0.00  0.00    +0.000 A 
ATOM     33  C   UNL     1      -3.945  -5.360  -1.608  0.00  0.00    +0.000 A 
ATOM     34  C   UNL     1      -3.377  -4.630  -2.636  0.00  0.00    +0.000 A 
ATOM     35  C   UNL     1      -2.308  -3.792  -2.380  0.00  0.00    +0.003 A 
ENDBRANCH  29  30
ENDBRANCH  28  29
ENDBRANCH  27  28
ENDBRANCH  22  27
ENDBRANCH  21  23
BRANCH  21  36
ATOM     36  C   UNL     1       2.368  -0.037   3.568  0.00  0.00    +0.013 C 
ATOM     37  C   UNL     1       0.875  -0.181   3.869  0.00  0.00    +0.009 C 
ATOM     38  C   UNL     1       3.175  -0.347   4.830  0.00  0.00    +0.009 C 
ENDBRANCH  21  36
ENDBRANCH   1  21
TORSDOF 7
