REMARK  Name = ZINC36027287
REMARK  9 active torsions:
REMARK  status: ('A' for Active; 'I' for Inactive)
REMARK    1  A    between atoms: C_1  and  C_2
REMARK    2  A    between atoms: C_2  and  C_3
REMARK    3  A    between atoms: C_3  and  C_5
REMARK    4  A    between atoms: C_3  and  N_6
REMARK    5  A    between atoms: C_9  and  C_28
REMARK    6  A    between atoms: N_15  and  S_18
REMARK    7  A    between atoms: S_18  and  C_21
REMARK    8  A    between atoms: C_24  and  C_27
REMARK    9  A    between atoms: C_28  and  C_29
REMARK                            x       y       z     vdW  Elec       q    Type
REMARK                         _______ _______ _______ _____ _____    ______ ____
ROOT
ATOM      1  N   UNL     1       2.115  -0.118  -1.482  0.00  0.00    -0.311 N 
ATOM      2  C   UNL     1       3.171  -0.584  -0.784  0.00  0.00    +0.201 C 
ATOM      3  O   UNL     1       3.122  -1.384   0.126  0.00  0.00    -0.277 OA
ATOM      4  C   UNL     1       4.428   0.061  -1.327  0.00  0.00    +0.023 C 
ATOM      5  N   UNL     1       3.948   1.227  -2.107  0.00  0.00    +0.401 N 
ATOM      6  C   UNL     1       2.582   0.822  -2.505  0.00  0.00    +0.006 C 
ATOM      7  C   UNL     1       2.619   0.140  -3.872  0.00  0.00    +0.023 C 
ATOM      8  C   UNL     1       1.205  -0.309  -4.255  0.00  0.00    +0.109 C 
ATOM      9  N   UNL     1       0.304   0.849  -4.173  0.00  0.00    -0.177 NA
ATOM     10  C   UNL     1       0.252   1.617  -2.922  0.00  0.00    +0.109 C 
ATOM     11  C   UNL     1       1.674   2.050  -2.549  0.00  0.00    +0.023 C 
ATOM     12  H   UNL     1       3.925   2.055  -1.533  0.00  0.00    -0.082 HD
ATOM     13  H   UNL     1       4.526   1.372  -2.922  0.00  0.00    -0.082 HD
ENDROOT
BRANCH   9  14
ATOM     14  S   UNL     1      -0.636   1.280  -5.467  0.00  0.00    +0.061 S 
ATOM     15  O   UNL     1      -0.932   2.661  -5.312  0.00  0.00    -0.153 OA
ATOM     16  O   UNL     1       0.006   0.764  -6.625  0.00  0.00    -0.153 OA
BRANCH  14  17
ATOM     17  C   UNL     1      -2.164   0.416  -5.311  0.00  0.00    +0.105 A 
ATOM     18  C   UNL     1      -2.310  -0.837  -5.877  0.00  0.00    +0.029 A 
ATOM     19  C   UNL     1      -3.509  -1.514  -5.755  0.00  0.00    +0.005 A 
ATOM     20  C   UNL     1      -4.561  -0.939  -5.067  0.00  0.00    -0.050 A 
ATOM     21  C   UNL     1      -4.414   0.314  -4.501  0.00  0.00    +0.005 A 
ATOM     22  C   UNL     1      -3.214   0.990  -4.619  0.00  0.00    +0.029 A 
ATOM     23  C   UNL     1      -5.869  -1.677  -4.935  0.00  0.00    +0.044 C 
ENDBRANCH  14  17
ENDBRANCH   9  14
BRANCH   1  24
ATOM     24  C   UNL     1       0.718  -0.497  -1.257  0.00  0.00    +0.071 C 
ATOM     25  C   UNL     1       0.621  -2.017  -1.103  0.00  0.00    +0.028 C 
BRANCH  24  27
ATOM     26  C   UNL     1       0.185   1.695  -0.184  0.00  0.00    +0.005 C 
ATOM     27  C   UNL     1       0.205   0.178   0.017  0.00  0.00    +0.019 C 
ENDBRANCH  24  27
ENDBRANCH   1  24
BRANCH   4  28
ATOM     28  C   UNL     1       5.330   0.520  -0.179  0.00  0.00    +0.028 C 
BRANCH  28  29
ATOM     29  C   UNL     1       6.612   1.079  -0.740  0.00  0.00    -0.048 A 
ATOM     30  C   UNL     1       7.693   0.245  -0.956  0.00  0.00    +0.003 A 
ATOM     31  C   UNL     1       8.869   0.758  -1.471  0.00  0.00    +0.000 A 
ATOM     32  C   UNL     1       8.964   2.104  -1.770  0.00  0.00    +0.000 A 
ATOM     33  C   UNL     1       7.882   2.937  -1.555  0.00  0.00    +0.000 A 
ATOM     34  C   UNL     1       6.705   2.424  -1.044  0.00  0.00    +0.003 A 
ENDBRANCH  28  29
ENDBRANCH   4  28
TORSDOF 6
