REMARK  Name = ZINC05005251
REMARK  5 active torsions:
REMARK  status: ('A' for Active; 'I' for Inactive)
REMARK    1  A    between atoms: C_4  and  C_7
REMARK    2  A    between atoms: C_7  and  C_26
REMARK    3  A    between atoms: C_9  and  C_11
REMARK    4  A    between atoms: N_13  and  N_14
REMARK    5  A    between atoms: C_15  and  C_16
REMARK                            x       y       z     vdW  Elec       q    Type
REMARK                         _______ _______ _______ _____ _____    ______ ____
ROOT
ATOM      1  C   UNL     1       4.585  -3.318   0.685  0.00  0.00    +0.236 C 
ATOM      2  O   UNL     1       5.502  -2.811   1.296  0.00  0.00    -0.274 OA
ATOM      3  N   UNL     1       4.479  -4.660   0.621  0.00  0.00    -0.207 N 
ATOM      4  H   UNL     1       3.746  -5.066   0.132  0.00  0.00    +0.177 HD
ENDROOT
BRANCH   1   7
ATOM      5  C   UNL     1       2.300  -2.089   0.779  0.00  0.00    +0.033 C 
ATOM      6  C   UNL     1       3.374  -1.027   0.530  0.00  0.00    +0.031 C 
ATOM      7  C   UNL     1       3.565  -2.448  -0.003  0.00  0.00    +0.093 C 
BRANCH   5  11
ATOM      8  C   UNL     1      -1.349  -1.754  -1.416  0.00  0.00    +0.000 A 
ATOM      9  C   UNL     1      -1.315  -1.419  -0.075  0.00  0.00    +0.000 A 
ATOM     10  C   UNL     1      -0.135  -1.528   0.635  0.00  0.00    +0.004 A 
ATOM     11  C   UNL     1       1.013  -1.972   0.005  0.00  0.00    -0.036 A 
ATOM     12  C   UNL     1       0.979  -2.308  -1.336  0.00  0.00    +0.004 A 
ATOM     13  C   UNL     1      -0.201  -2.198  -2.046  0.00  0.00    +0.000 A 
ENDBRANCH   5  11
BRANCH   5  14
ATOM     14  C   UNL     1       2.170  -2.632   2.179  0.00  0.00    -0.036 A 
ATOM     15  C   UNL     1       2.483  -1.833   3.262  0.00  0.00    +0.004 A 
ATOM     16  C   UNL     1       2.364  -2.331   4.546  0.00  0.00    +0.000 A 
ATOM     17  C   UNL     1       1.931  -3.628   4.747  0.00  0.00    +0.000 A 
ATOM     18  C   UNL     1       1.617  -4.427   3.663  0.00  0.00    +0.000 A 
ATOM     19  C   UNL     1       1.732  -3.928   2.379  0.00  0.00    +0.004 A 
ENDBRANCH   5  14
ENDBRANCH   1   7
BRANCH   3  20
ATOM     20  N   UNL     1       5.428  -5.469   1.261  0.00  0.00    -0.185 NA
ATOM     21  C   UNL     1       5.326  -6.763   1.199  0.00  0.00    +0.176 C 
BRANCH  21  22
ATOM     22  C   UNL     1       6.320  -7.611   1.870  0.00  0.00    +0.152 A 
ATOM     23  N   UNL     1       6.318  -8.983   1.869  0.00  0.00    -0.337 N 
ATOM     24  H   UNL     1       5.670  -9.558   1.433  0.00  0.00    +0.167 HD
ATOM     25  C   UNL     1       7.412  -9.389   2.607  0.00  0.00    +0.066 A 
ATOM     26  C   UNL     1       7.930 -10.629   2.958  0.00  0.00    +0.028 A 
ATOM     27  C   UNL     1       9.072 -10.699   3.728  0.00  0.00    +0.002 A 
ATOM     28  C   UNL     1       9.706  -9.540   4.155  0.00  0.00    +0.002 A 
ATOM     29  C   UNL     1       9.211  -8.312   3.821  0.00  0.00    +0.030 A 
ATOM     30  C   UNL     1       8.054  -8.215   3.039  0.00  0.00    +0.089 A 
ATOM     31  N   UNL     1       7.349  -7.171   2.557  0.00  0.00    -0.227 NA
ENDBRANCH  21  22
ENDBRANCH   3  20
TORSDOF 5
