REMARK  Name = ZINC08920786
REMARK  11 active torsions:
REMARK  status: ('A' for Active; 'I' for Inactive)
REMARK    1  A    between atoms: C_1  and  C_2
REMARK    2  A    between atoms: C_5  and  C_37
REMARK    3  A    between atoms: N_8  and  S_10
REMARK    4  A    between atoms: S_10  and  C_13
REMARK    5  A    between atoms: C_16  and  C_19
REMARK    6  A    between atoms: N_21  and  C_22
REMARK    7  A    between atoms: C_23  and  C_33
REMARK    8  A    between atoms: C_30  and  C_31
REMARK    9  A    between atoms: C_30  and  C_32
REMARK   10  A    between atoms: C_30  and  N_72
REMARK   11  A    between atoms: N_35  and  C_36
REMARK                            x       y       z     vdW  Elec       q    Type
REMARK                         _______ _______ _______ _____ _____    ______ ____
ROOT
ATOM      1  C   UNL     1      -2.778   4.368   7.599  0.00  0.00    +0.249 C 
ATOM      2  O   UNL     1      -3.917   4.776   7.485  0.00  0.00    -0.270 OA
ATOM      3  N   UNL     1      -1.998   4.818   8.602  0.00  0.00    -0.275 N 
ATOM      4  H   UNL     1      -1.089   4.492   8.693  0.00  0.00    +0.156 HD
ENDROOT
BRANCH   3   5
ATOM      5  C   UNL     1      -2.496   5.744   9.504  0.00  0.00    +0.085 A 
ATOM      6  C   UNL     1      -1.853   6.320  10.592  0.00  0.00    +0.068 A 
ATOM      7  C   UNL     1      -2.605   7.274  11.386  0.00  0.00    -0.027 A 
ATOM      8  C   UNL     1      -3.873   7.498  10.970  0.00  0.00    -0.021 A 
ATOM      9  S   UNL     1      -4.068   6.472   9.543  0.00  0.00    -0.079 S 
ATOM     10  C   UNL     1      -4.863   8.425  11.601  0.00  0.00    -0.035 C 
ATOM     11  C   UNL     1      -2.964   9.208  12.887  0.00  0.00    -0.073 C 
ATOM     12  C   UNL     1      -2.061   8.003  12.608  0.00  0.00    +0.018 C 
ATOM     13  N   UNL     1      -4.370   8.760  12.960  0.00  0.00    +0.384 N 
ATOM     14  H   UNL     1      -4.423   7.922  13.550  0.00  0.00    -0.081 HD
BRANCH   6  15
ATOM     15  C   UNL     1      -0.467   5.978  10.926  0.00  0.00    +0.246 C 
ATOM     16  O   UNL     1       0.451   6.619  10.448  0.00  0.00    -0.270 OA
ATOM     17  N   UNL     1      -0.208   4.953  11.763  0.00  0.00    -0.314 N 
ATOM     18  C   UNL     1       1.176   4.612  12.097  0.00  0.00    +0.128 C 
ATOM     19  H   UNL     1      -0.940   4.442  12.144  0.00  0.00    +0.149 HD
ENDBRANCH   6  15
BRANCH  13  20
ATOM     20  C   UNL     1      -5.209   9.822  13.556  0.00  0.00    -0.074 C 
ATOM     21  C   UNL     1      -6.677   9.398  13.486  0.00  0.00    -0.014 C 
ATOM     22  C   UNL     1      -4.802  10.012  15.018  0.00  0.00    -0.014 C 
ENDBRANCH  13  20
ENDBRANCH   3   5
BRANCH   1  26
ATOM     23  C   UNL     1      -1.253   1.526   4.835  0.00  0.00    +0.106 A 
ATOM     24  C   UNL     1      -0.452   1.981   5.867  0.00  0.00    +0.029 A 
ATOM     25  C   UNL     1      -0.939   2.909   6.765  0.00  0.00    +0.015 A 
ATOM     26  C   UNL     1      -2.247   3.380   6.637  0.00  0.00    +0.037 A 
ATOM     27  C   UNL     1      -3.052   2.912   5.596  0.00  0.00    +0.015 A 
ATOM     28  C   UNL     1      -2.551   1.989   4.702  0.00  0.00    +0.029 A 
BRANCH  23  29
ATOM     29  S   UNL     1      -0.621   0.347   3.688  0.00  0.00    +0.061 S 
ATOM     30  O   UNL     1      -1.744  -0.332   3.144  0.00  0.00    -0.153 OA
ATOM     31  O   UNL     1       0.435  -0.336   4.349  0.00  0.00    -0.153 OA
BRANCH  29  37
ATOM     32  C   UNL     1       3.619   1.586   1.189  0.00  0.00    +0.009 C 
ATOM     33  C   UNL     1       2.175   1.082   1.218  0.00  0.00    +0.002 C 
ATOM     34  C   UNL     1       1.423   1.616  -0.003  0.00  0.00    +0.009 C 
ATOM     35  C   UNL     1      -0.013   1.086   0.008  0.00  0.00    +0.002 C 
ATOM     36  C   UNL     1      -0.726   1.581   1.270  0.00  0.00    +0.112 C 
ATOM     37  N   UNL     1       0.069   1.195   2.444  0.00  0.00    -0.176 NA
ATOM     38  C   UNL     1       1.486   1.577   2.494  0.00  0.00    +0.112 C 
ATOM     39  C   UNL     1      -0.754   1.593  -1.230  0.00  0.00    +0.009 C 
ENDBRANCH  29  37
ENDBRANCH  23  29
ENDBRANCH   1  26
TORSDOF 6
