REMARK  Name = ZINC11439400
REMARK  9 active torsions:
REMARK  status: ('A' for Active; 'I' for Inactive)
REMARK    1  A    between atoms: C_1  and  C_2
REMARK    2  A    between atoms: C_2  and  C_4
REMARK    3  A    between atoms: C_2  and  O_15
REMARK    4  A    between atoms: N_6  and  C_7
REMARK    5  A    between atoms: O_15  and  C_16
REMARK    6  A    between atoms: C_16  and  C_18
REMARK    7  A    between atoms: C_18  and  C_19
REMARK    8  A    between atoms: C_19  and  N_20
REMARK    9  A    between atoms: N_23  and  C_24
REMARK                            x       y       z     vdW  Elec       q    Type
REMARK                         _______ _______ _______ _____ _____    ______ ____
ROOT
ATOM      1  C   UNL     1       5.931   1.896   0.926  0.00  0.00    +0.139 C 
ENDROOT
BRANCH   1   2
ATOM      2  C   UNL     1       4.678   1.067   0.812  0.00  0.00    +0.309 C 
ATOM      3  O   UNL     1       4.628  -0.026   1.326  0.00  0.00    -0.251 OA
BRANCH   2   4
ATOM      4  O   UNL     1       3.619   1.541   0.139  0.00  0.00    -0.452 OA
BRANCH   4   6
ATOM      5  C   UNL     1       2.539  -0.208  -1.168  0.00  0.00    +0.062 C 
ATOM      6  C   UNL     1       2.446   0.687   0.069  0.00  0.00    +0.259 C 
BRANCH   6   7
ATOM      7  C   UNL     1       1.208   1.541  -0.020  0.00  0.00    +0.258 C 
ATOM      8  O   UNL     1       1.307   2.746  -0.116  0.00  0.00    -0.271 OA
ATOM      9  N   UNL     1      -0.011   0.966   0.007  0.00  0.00    -0.281 N 
ATOM     10  H   UNL     1      -0.091  -0.001   0.019  0.00  0.00    +0.155 HD
BRANCH   9  11
ATOM     11  C   UNL     1      -1.162   1.764   0.013  0.00  0.00    +0.052 A 
ATOM     12  C   UNL     1      -1.181   2.962  -0.688  0.00  0.00    +0.026 A 
ATOM     13  C   UNL     1      -2.317   3.747  -0.681  0.00  0.00    +0.022 A 
ATOM     14  C   UNL     1      -3.437   3.340   0.023  0.00  0.00    +0.042 A 
ATOM     15  C   UNL     1      -3.422   2.147   0.723  0.00  0.00    +0.041 A 
ATOM     16  C   UNL     1      -2.289   1.355   0.716  0.00  0.00    +0.064 A 
ATOM     17 CL   UNL     1      -2.272  -0.146   1.589  0.00  0.00    -0.082 Cl
ATOM     18 CL   UNL     1      -4.864   4.330   0.029  0.00  0.00    -0.083 Cl
ENDBRANCH   9  11
ENDBRANCH   6   7
ENDBRANCH   4   6
ENDBRANCH   2   4
ENDBRANCH   1   2
BRANCH   1  19
ATOM     19  C   UNL     1       6.978   1.130   1.737  0.00  0.00    +0.117 C 
BRANCH  19  20
ATOM     20  N   UNL     1       8.196   1.937   1.848  0.00  0.00    -0.299 N 
ATOM     21  C   UNL     1       9.261   1.461   2.524  0.00  0.00    +0.300 C 
ATOM     22  O   UNL     1       9.210   0.362   3.042  0.00  0.00    -0.253 OA
ATOM     23  N   UNL     1      10.381   2.203   2.626  0.00  0.00    -0.294 N 
ATOM     24  H   UNL     1       8.236   2.814   1.435  0.00  0.00    +0.150 HD
ATOM     25  H   UNL     1      10.421   3.080   2.213  0.00  0.00    +0.151 HD
BRANCH  23  26
ATOM     26  C   UNL     1      11.538   1.685   3.361  0.00  0.00    +0.037 C 
ATOM     27  C   UNL     1      11.140   1.415   4.813  0.00  0.00    +0.029 C 
ATOM     28  C   UNL     1      12.348   0.874   5.581  0.00  0.00    -0.008 C 
ATOM     29  C   UNL     1      13.478   1.905   5.545  0.00  0.00    +0.007 C 
ATOM     30  C   UNL     1      13.876   2.176   4.093  0.00  0.00    -0.008 C 
ATOM     31  C   UNL     1      12.668   2.717   3.325  0.00  0.00    +0.029 C 
ATOM     32  C   UNL     1      14.352   0.875   3.443  0.00  0.00    +0.007 C 
ATOM     33  C   UNL     1      13.222  -0.156   3.479  0.00  0.00    -0.008 C 
ATOM     34  C   UNL     1      12.825  -0.427   4.931  0.00  0.00    +0.007 C 
ATOM     35  C   UNL     1      12.014   0.385   2.712  0.00  0.00    +0.029 C 
ENDBRANCH  23  26
ENDBRANCH  19  20
ENDBRANCH   1  19
TORSDOF 8
