REMARK  Name = ZINC09513373
REMARK  6 active torsions:
REMARK  status: ('A' for Active; 'I' for Inactive)
REMARK    1  A    between atoms: C_1  and  O_2
REMARK    2  A    between atoms: O_2  and  C_3
REMARK    3  A    between atoms: C_3  and  C_5
REMARK    4  A    between atoms: C_9  and  N_10
REMARK    5  A    between atoms: C_11  and  C_13
REMARK    6  A    between atoms: C_13  and  N_14
REMARK                            x       y       z     vdW  Elec       q    Type
REMARK                         _______ _______ _______ _____ _____    ______ ____
ROOT
ATOM      1  N   UNL     1      -6.706   1.016   1.732  0.00  0.00    -0.278 N 
ATOM      2  C   UNL     1      -5.453   1.443   1.478  0.00  0.00    +0.237 C 
ATOM      3  O   UNL     1      -4.670   1.601   2.389  0.00  0.00    -0.274 OA
ATOM      4  H   UNL     1      -7.333   0.890   1.002  0.00  0.00    +0.155 HD
ENDROOT
BRANCH   1   9
ATOM      5  C   UNL     1      -8.335   0.323   3.494  0.00  0.00    +0.091 A 
ATOM      6  C   UNL     1      -8.487   0.122   4.926  0.00  0.00    -0.021 A 
ATOM      7  C   UNL     1      -7.392   0.399   5.665  0.00  0.00    -0.004 A 
ATOM      8  S   UNL     1      -6.170   0.909   4.490  0.00  0.00    -0.077 S 
ATOM      9  C   UNL     1      -7.099   0.758   3.036  0.00  0.00    +0.086 A 
ATOM     10  C   UNL     1      -7.255   0.293   7.153  0.00  0.00    +0.043 C 
ATOM     11  C   UNL     1      -8.661   0.181   7.761  0.00  0.00    +0.005 C 
ATOM     12  C   UNL     1      -9.451  -0.876   6.984  0.00  0.00    +0.005 C 
ATOM     13  C   UNL     1      -9.776  -0.357   5.582  0.00  0.00    +0.037 C 
BRANCH   5  14
ATOM     14  C   UNL     1      -9.443   0.070   2.570  0.00  0.00    +0.342 C 
ATOM     15  O   UNL     1      -9.588  -1.035   2.083  0.00  0.00    -0.245 OA
BRANCH  14  17
ATOM     16  C   UNL     1     -11.374   0.741   1.336  0.00  0.00    +0.280 C 
ATOM     17  O   UNL     1     -10.301   1.063   2.258  0.00  0.00    -0.464 OA
ENDBRANCH  14  17
ENDBRANCH   5  14
ENDBRANCH   1   9
BRANCH   2  18
ATOM     18  C   UNL     1      -5.026   1.723   0.060  0.00  0.00    +0.227 C 
BRANCH  18  19
ATOM     19  N   UNL     1      -3.631   2.171   0.050  0.00  0.00    -0.194 N 
ATOM     20  C   UNL     1      -2.480   1.365   0.034  0.00  0.00    +0.061 A 
ATOM     21  C   UNL     1      -2.411  -0.027   0.025  0.00  0.00    +0.025 A 
ATOM     22  C   UNL     1      -1.184  -0.678   0.010  0.00  0.00    +0.002 A 
ATOM     23  C   UNL     1       0.002  -0.004   0.002  0.00  0.00    +0.009 A 
ATOM     24  C   UNL     1      -0.017   1.401   0.010  0.00  0.00    -0.014 A 
ATOM     25  C   UNL     1      -1.268   2.053   0.031  0.00  0.00    +0.031 A 
ATOM     26  C   UNL     1      -1.327   3.451   0.035  0.00  0.00    +0.118 A 
ATOM     27  C   UNL     1      -0.199   4.184   0.028  0.00  0.00    +0.029 A 
ATOM     28  C   UNL     1       1.048   3.546   0.012  0.00  0.00    +0.003 A 
ATOM     29  C   UNL     1       1.148   2.186   0.003  0.00  0.00    +0.009 A 
ATOM     30  S   UNL     1      -3.072   3.751   0.054  0.00  0.00    +0.076 S 
ATOM     31  O   UNL     1      -3.424   4.339  -1.191  0.00  0.00    -0.150 OA
ATOM     32  O   UNL     1      -3.400   4.324   1.312  0.00  0.00    -0.150 OA
ENDBRANCH  18  19
ENDBRANCH   2  18
TORSDOF 5
