REMARK  Name = ZINC08790505
REMARK  5 active torsions:
REMARK  status: ('A' for Active; 'I' for Inactive)
REMARK    1  A    between atoms: C_1  and  C_2
REMARK    2  A    between atoms: C_11  and  S_15
REMARK    3  A    between atoms: S_15  and  C_16
REMARK    4  A    between atoms: C_16  and  C_17
REMARK    5  A    between atoms: N_19  and  C_20
REMARK                            x       y       z     vdW  Elec       q    Type
REMARK                         _______ _______ _______ _____ _____    ______ ____
ROOT
ATOM      1  C   UNL     1      12.204   5.283  -0.928  0.00  0.00    +0.008 C 
ATOM      2  C   UNL     1      11.574   3.909  -1.165  0.00  0.00    -0.009 C 
ATOM      3  C   UNL     1      10.393   3.710  -0.209  0.00  0.00    +0.008 C 
ATOM      4  C   UNL     1       9.612   2.457  -0.605  0.00  0.00    +0.037 C 
ATOM      5  C   UNL     1      10.582   1.283  -0.706  0.00  0.00    -0.025 A 
ATOM      6  C   UNL     1      11.907   1.493  -0.834  0.00  0.00    -0.004 A 
ATOM      7  S   UNL     1      12.627  -0.125  -0.913  0.00  0.00    -0.073 S 
ATOM      8  C   UNL     1      11.142  -1.085  -0.773  0.00  0.00    +0.113 A 
ATOM      9  C   UNL     1      10.130  -0.109  -0.675  0.00  0.00    +0.043 A 
ATOM     10  C   UNL     1       8.806  -0.613  -0.543  0.00  0.00    +0.109 A 
ATOM     11  N   UNL     1       8.614  -1.924  -0.530  0.00  0.00    -0.229 NA
ATOM     12  C   UNL     1       9.613  -2.781  -0.632  0.00  0.00    +0.223 A 
ATOM     13  N   UNL     1      10.862  -2.373  -0.752  0.00  0.00    -0.228 NA
ATOM     14  C   UNL     1      12.615   2.813  -0.896  0.00  0.00    +0.046 C 
ENDROOT
BRANCH  10  15
ATOM     15  S   UNL     1       7.440   0.491  -0.404  0.00  0.00    -0.096 S 
BRANCH  15  16
ATOM     16  C   UNL     1       6.084  -0.702  -0.278  0.00  0.00    +0.171 C 
BRANCH  16  17
ATOM     17  C   UNL     1       4.777   0.036  -0.147  0.00  0.00    +0.227 C 
ATOM     18  O   UNL     1       4.763   1.249  -0.139  0.00  0.00    -0.275 OA
ATOM     19  N   UNL     1       3.623  -0.651  -0.038  0.00  0.00    -0.285 N 
ATOM     20  H   UNL     1       3.639  -1.619   0.034  0.00  0.00    +0.155 HD
BRANCH  19  21
ATOM     21  C   UNL     1       2.400   0.030  -0.027  0.00  0.00    +0.036 A 
ATOM     22  C   UNL     1       2.247   1.194  -0.768  0.00  0.00    +0.043 A 
ATOM     23  C   UNL     1       1.038   1.866  -0.756  0.00  0.00    +0.044 A 
ATOM     24  C   UNL     1      -0.017   1.379  -0.005  0.00  0.00    +0.040 A 
ATOM     25  C   UNL     1       0.133   0.219   0.735  0.00  0.00    +0.044 A 
ATOM     26  C   UNL     1       1.339  -0.456   0.725  0.00  0.00    +0.043 A 
ATOM     27 CL   UNL     1      -1.193  -0.387   1.676  0.00  0.00    -0.083 Cl
ATOM     28 CL   UNL     1       0.846   3.321  -1.683  0.00  0.00    -0.083 Cl
ENDBRANCH  19  21
ENDBRANCH  16  17
ENDBRANCH  15  16
ENDBRANCH  10  15
TORSDOF 4
