REMARK  Name = ZINC40383073
REMARK  4 active torsions:
REMARK  status: ('A' for Active; 'I' for Inactive)
REMARK    1  A    between atoms: C_1  and  C_2
REMARK    2  A    between atoms: C_7  and  C_35
REMARK    3  A    between atoms: C_22  and  C_24
REMARK    4  A    between atoms: N_26  and  C_27
REMARK                            x       y       z     vdW  Elec       q    Type
REMARK                         _______ _______ _______ _____ _____    ______ ____
ROOT
ATOM      1  C   UNL     1       2.735  -0.401  -0.114  0.00  0.00    +0.028 C 
ATOM      2  C   UNL     1       1.344  -1.024   0.012  0.00  0.00    +0.073 C 
ATOM      3  C   UNL     1       0.500  -0.647  -1.210  0.00  0.00    +0.022 C 
ATOM      4  C   UNL     1      -0.930  -1.155  -1.014  0.00  0.00    +0.004 C 
ATOM      5  C   UNL     1      -1.544  -0.491   0.221  0.00  0.00    +0.022 C 
ATOM      6  C   UNL     1      -0.724  -0.867   1.459  0.00  0.00    +0.073 C 
ATOM      7  N   UNL     1       0.683  -0.515   1.221  0.00  0.00    -0.295 N 
ATOM      8  C   UNL     1       1.365   0.275   2.108  0.00  0.00    +0.200 A 
ATOM      9  N   UNL     1       2.126  -0.311   3.072  0.00  0.00    -0.295 N 
ATOM     10  H   UNL     1       2.192  -1.278   3.116  0.00  0.00    +0.172 HD
ATOM     11  C   UNL     1       2.791   0.452   3.965  0.00  0.00    +0.258 A 
ATOM     12  O   UNL     1       3.465  -0.061   4.844  0.00  0.00    -0.267 OA
ATOM     13  C   UNL     1       2.692   1.843   3.863  0.00  0.00    +0.069 A 
ATOM     14  C   UNL     1       1.922   2.392   2.854  0.00  0.00    +0.138 A 
ATOM     15  N   UNL     1       1.272   1.584   2.006  0.00  0.00    -0.200 NA
ATOM     16  N   UNL     1       1.842   3.765   2.704  0.00  0.00    -0.270 N 
ATOM     17  C   UNL     1       2.695   4.581   3.348  0.00  0.00    +0.219 C 
ATOM     18  O   UNL     1       2.537   5.782   3.286  0.00  0.00    -0.275 OA
ATOM     19  C   UNL     1       3.843   4.021   4.146  0.00  0.00    +0.114 C 
ATOM     20  C   UNL     1       3.406   2.733   4.846  0.00  0.00    +0.122 C 
ATOM     21  C   UNL     1      -1.249  -0.100   2.674  0.00  0.00    +0.028 C 
ATOM     22  H   UNL     1       1.162   4.144   2.126  0.00  0.00    +0.156 HD
ENDROOT
BRANCH  20  23
ATOM     23  C   UNL     1       4.618   2.017   5.382  0.00  0.00    +0.225 C 
ATOM     24  O   UNL     1       5.455   1.585   4.618  0.00  0.00    -0.275 OA
ATOM     25  N   UNL     1       4.773   1.857   6.712  0.00  0.00    -0.284 N 
ATOM     26  H   UNL     1       4.066   2.128   7.318  0.00  0.00    +0.155 HD
BRANCH  25  27
ATOM     27  C   UNL     1       5.954   1.300   7.217  0.00  0.00    +0.052 A 
ATOM     28  C   UNL     1       7.165   1.544   6.582  0.00  0.00    +0.026 A 
ATOM     29  C   UNL     1       8.329   0.993   7.083  0.00  0.00    +0.022 A 
ATOM     30  C   UNL     1       8.289   0.199   8.216  0.00  0.00    +0.042 A 
ATOM     31  C   UNL     1       7.084  -0.045   8.851  0.00  0.00    +0.041 A 
ATOM     32  C   UNL     1       5.917   0.508   8.358  0.00  0.00    +0.064 A 
ATOM     33 CL   UNL     1       4.407   0.207   9.159  0.00  0.00    -0.082 Cl
ATOM     34 CL   UNL     1       9.754  -0.492   8.841  0.00  0.00    -0.083 Cl
ENDBRANCH  25  27
ENDBRANCH  20  23
TORSDOF 2
