REMARK  Name = ZINC39267148
REMARK  7 active torsions:
REMARK  status: ('A' for Active; 'I' for Inactive)
REMARK    1  A    between atoms: CG_4  and  CB_7
REMARK    2  A    between atoms: CB_7  and  CA_8
REMARK    3  A    between atoms: C_13  and  C_18
REMARK    4  A    between atoms: C_18  and  C_19
REMARK    5  A    between atoms: N_21  and  C_22
REMARK    6  A    between atoms: C_22  and  C_24
REMARK    7  A    between atoms: C_22  and  C_30
REMARK                            x       y       z     vdW  Elec       q    Type
REMARK                         _______ _______ _______ _____ _____    ______ ____
ROOT
ATOM      1  C   UNK A   1       7.349   0.726   0.424  0.00  0.00    +0.127 C 
ENDROOT
BRANCH   1   6
ATOM      2  CA  PHE A   2       4.171  -0.963   1.399  0.00  0.00    +0.163 C 
ATOM      3  C   PHE A   2       5.403  -1.818   1.375  0.00  0.00    +0.234 C 
ATOM      4  O   PHE A   2       5.278  -3.012   1.204  0.00  0.00    -0.274 OA
ATOM      5  N   UNK A   1       6.632  -1.318   1.533  0.00  0.00    -0.302 N 
ATOM      6  C   UNK A   1       6.887   0.101   1.742  0.00  0.00    +0.168 C 
ATOM      7  C   UNK A   1       5.656   0.811   2.216  0.00  0.00    +0.234 C 
ATOM      8  O   UNK A   1       5.780   1.883   2.771  0.00  0.00    -0.274 OA
ATOM      9  N   PHE A   2       4.427   0.313   2.053  0.00  0.00    -0.302 N 
ATOM     10  H   UNK A   1       7.387  -1.927   1.508  0.00  0.00    +0.150 HD
ATOM     11  H   PHE A   2       3.672   0.825   2.383  0.00  0.00    +0.150 HD
BRANCH   2  12
ATOM     12  CB  PHE A   2       3.711  -0.707  -0.038  0.00  0.00    +0.067 C 
BRANCH  12  16
ATOM     13  CZ  PHE A   2      -0.017   1.378   0.010  0.00  0.00    +0.000 A 
ATOM     14  CE1 PHE A   2       1.171   2.086   0.002  0.00  0.00    +0.000 A 
ATOM     15  CD1 PHE A   2       2.377   1.411  -0.013  0.00  0.00    +0.004 A 
ATOM     16  CG  PHE A   2       2.396   0.029  -0.020  0.00  0.00    -0.045 A 
ATOM     17  CD2 PHE A   2       1.208  -0.679  -0.012  0.00  0.00    +0.004 A 
ATOM     18  CE2 PHE A   2       0.002  -0.004   0.002  0.00  0.00    +0.000 A 
ENDBRANCH  12  16
ENDBRANCH   2  12
ENDBRANCH   1   6
BRANCH   1  19
ATOM     19  C   UNK A   1       8.675   0.133   0.024  0.00  0.00    +0.216 C 
ATOM     20  O   UNK A   1       9.200  -0.708   0.724  0.00  0.00    -0.276 OA
ATOM     21  N   UNK A   1       9.278   0.536  -1.112  0.00  0.00    -0.304 N 
ATOM     22  H   UNK A   1       8.859   1.208  -1.672  0.00  0.00    +0.150 HD
BRANCH  21  23
ATOM     23  C   UNK A   1      10.568  -0.041  -1.501  0.00  0.00    +0.134 C 
BRANCH  23  24
ATOM     24  C   UNK A   1      11.306   0.931  -2.385  0.00  0.00    -0.023 A 
ATOM     25  C   UNK A   1      10.618   1.657  -3.339  0.00  0.00    +0.007 A 
ATOM     26  C   UNK A   1      11.295   2.548  -4.151  0.00  0.00    +0.020 A 
ATOM     27  C   UNK A   1      12.661   2.713  -4.008  0.00  0.00    +0.041 A 
ATOM     28  C   UNK A   1      13.349   1.986  -3.053  0.00  0.00    +0.020 A 
ATOM     29  C   UNK A   1      12.670   1.099  -2.238  0.00  0.00    +0.007 A 
ATOM     30 CL   UNK A   1      13.512   3.832  -5.027  0.00  0.00    -0.084 Cl
ENDBRANCH  23  24
BRANCH  23  31
ATOM     31  C   UNK A   1      10.337  -1.327  -2.251  0.00  0.00    -0.023 A 
ATOM     32  C   UNK A   1       9.303  -1.419  -3.165  0.00  0.00    +0.006 A 
ATOM     33  C   UNK A   1       9.091  -2.599  -3.853  0.00  0.00    +0.000 A 
ATOM     34  C   UNK A   1       9.913  -3.687  -3.628  0.00  0.00    +0.000 A 
ATOM     35  C   UNK A   1      10.947  -3.596  -2.715  0.00  0.00    +0.000 A 
ATOM     36  C   UNK A   1      11.162  -2.414  -2.030  0.00  0.00    +0.006 A 
ENDBRANCH  23  31
ENDBRANCH  21  23
ENDBRANCH   1  19
TORSDOF 7
