REMARK  Name = ZINC14552255
REMARK  7 active torsions:
REMARK  status: ('A' for Active; 'I' for Inactive)
REMARK    1  A    between atoms: C_1  and  C_2
REMARK    2  A    between atoms: C_2  and  C_3
REMARK    3  A    between atoms: C_2  and  C_4
REMARK    4  A    between atoms: N_6  and  C_7
REMARK    5  A    between atoms: C_20  and  C_23
REMARK    6  A    between atoms: C_26  and  S_29
REMARK    7  A    between atoms: S_29  and  C_30
REMARK                            x       y       z     vdW  Elec       q    Type
REMARK                         _______ _______ _______ _____ _____    ______ ____
ROOT
ATOM      1  C   UNL     1      -3.621   6.688  -0.213  0.00  0.00    +0.034 A 
ATOM      2  C   UNL     1      -2.627   6.697  -1.184  0.00  0.00    +0.025 A 
ATOM      3  C   UNL     1      -1.852   5.576  -1.391  0.00  0.00    +0.025 A 
ATOM      4  C   UNL     1      -2.057   4.429  -0.634  0.00  0.00    +0.031 A 
ATOM      5  C   UNL     1      -3.068   4.419   0.334  0.00  0.00    -0.018 A 
ATOM      6  C   UNL     1      -3.836   5.544   0.543  0.00  0.00    +0.029 A 
ATOM      7  C   UNL     1      -3.272   3.167   1.095  0.00  0.00    +0.049 C 
ATOM      8  C   UNL     1      -3.855   3.164   2.461  0.00  0.00    -0.023 C 
ATOM      9  C   UNL     1      -3.340   2.146   3.139  0.00  0.00    -0.030 C 
ATOM     10  C   UNL     1      -2.328   1.397   2.270  0.00  0.00    +0.033 C 
ATOM     11  C   UNL     1      -1.880   2.498   1.300  0.00  0.00    +0.029 C 
ATOM     12  C   UNL     1      -1.435   2.059  -0.085  0.00  0.00    +0.105 C 
ATOM     13  N   UNL     1      -1.245   3.307  -0.856  0.00  0.00    -0.336 N 
ATOM     14  H   UNL     1      -0.546   3.351  -1.526  0.00  0.00    +0.147 HD
ENDROOT
BRANCH  12  15
ATOM     15  C   UNL     1      -0.138   1.298   0.002  0.00  0.00    -0.027 A 
ATOM     16  C   UNL     1       1.050   1.980   0.196  0.00  0.00    +0.006 A 
ATOM     17  C   UNL     1       2.242   1.286   0.270  0.00  0.00    +0.015 A 
ATOM     18  C   UNL     1       2.247  -0.099   0.150  0.00  0.00    +0.008 A 
ATOM     19  C   UNL     1       1.051  -0.780  -0.044  0.00  0.00    +0.015 A 
ATOM     20  C   UNL     1      -0.137  -0.080  -0.117  0.00  0.00    +0.006 A 
BRANCH  18  21
ATOM     21  S   UNL     1       3.765  -0.988   0.245  0.00  0.00    -0.129 S 
ATOM     22  C   UNL     1       5.014   0.302   0.498  0.00  0.00    +0.090 C 
ENDBRANCH  18  21
ENDBRANCH  12  15
BRANCH   1  25
ATOM     23  C   UNL     1      -4.713   8.639  -1.031  0.00  0.00    +0.220 C 
ATOM     24  O   UNL     1      -4.394   8.331  -2.160  0.00  0.00    -0.275 OA
ATOM     25  N   UNL     1      -4.404   7.830   0.002  0.00  0.00    -0.285 N 
ATOM     26  H   UNL     1      -4.724   8.037   0.893  0.00  0.00    +0.155 HD
BRANCH  23  28
ATOM     27  C   UNL     1      -4.630  10.817   0.152  0.00  0.00    +0.017 C 
ATOM     28  C   UNL     1      -5.453   9.928  -0.782  0.00  0.00    +0.069 C 
ATOM     29  C   UNL     1      -5.676  10.653  -2.111  0.00  0.00    +0.017 C 
ENDBRANCH  23  28
ENDBRANCH   1  25
TORSDOF 4
