REMARK  Name = ZINC64502418
REMARK  5 active torsions:
REMARK  status: ('A' for Active; 'I' for Inactive)
REMARK    1  A    between atoms: C_1  and  C_2
REMARK    2  A    between atoms: C_2  and  C_3
REMARK    3  A    between atoms: N_5  and  C_6
REMARK    4  A    between atoms: C_11  and  N_16
REMARK    5  A    between atoms: C_17  and  C_19
REMARK                            x       y       z     vdW  Elec       q    Type
REMARK                         _______ _______ _______ _____ _____    ______ ____
ROOT
ATOM      1  C   UNL     1       1.531  -2.276  -2.691  0.00  0.00    +0.224 C 
ATOM      2  N   UNL     1       1.812  -3.715  -2.598  0.00  0.00    -0.316 N 
ATOM      3  C   UNL     1       1.225  -4.549  -3.548  0.00  0.00    +0.044 A 
ATOM      4  C   UNL     1       1.379  -5.945  -3.617  0.00  0.00    +0.047 A 
ATOM      5  C   UNL     1       0.754  -6.685  -4.601  0.00  0.00    +0.035 A 
ATOM      6  C   UNL     1      -0.048  -6.072  -5.554  0.00  0.00    +0.024 A 
ATOM      7  C   UNL     1      -0.214  -4.698  -5.506  0.00  0.00    +0.018 A 
ATOM      8  C   UNL     1       0.411  -3.964  -4.523  0.00  0.00    +0.032 A 
ATOM      9  S   UNL     1       0.428  -2.222  -4.159  0.00  0.00    -0.082 S 
ATOM     10  H   UNL     1       2.385  -4.071  -1.901  0.00  0.00    +0.149 HD
ENDROOT
BRANCH   1  13
ATOM     11  C   UNL     1       0.700  -0.472  -1.279  0.00  0.00    +0.215 C 
ATOM     12  O   UNL     1       1.150   0.322  -2.078  0.00  0.00    -0.276 OA
ATOM     13  N   UNL     1       0.838  -1.796  -1.493  0.00  0.00    -0.288 N 
ATOM     14  H   UNL     1       0.478  -2.430  -0.854  0.00  0.00    +0.151 HD
BRANCH  11  16
ATOM     15  C   UNL     1      -0.030   1.552  -0.046  0.00  0.00    +0.013 C 
ATOM     16  C   UNL     1      -0.013   0.022  -0.047  0.00  0.00    +0.092 C 
ENDBRANCH  11  16
ENDBRANCH   1  13
BRANCH   5  17
ATOM     17  N   UNL     1       0.931  -8.074  -4.638  0.00  0.00    -0.283 N 
ATOM     18  C   UNL     1      -0.083  -8.873  -5.023  0.00  0.00    +0.244 C 
ATOM     19  O   UNL     1      -1.122  -8.387  -5.418  0.00  0.00    -0.273 OA
ATOM     20  H   UNL     1       1.784  -8.461  -4.385  0.00  0.00    +0.155 HD
BRANCH  18  21
ATOM     21  C   UNL     1       0.073 -10.371  -4.964  0.00  0.00    +0.190 C 
ATOM     22  C   UNL     1       1.184 -10.816  -5.888  0.00  0.00    +0.016 C 
ATOM     23  C   UNL     1       0.610 -11.638  -6.796  0.00  0.00    -0.004 A 
ATOM     24  C   UNL     1       1.147 -12.384  -7.941  0.00  0.00    +0.010 A 
ATOM     25  C   UNL     1       0.306 -13.141  -8.682  0.00  0.00    +0.001 A 
ATOM     26  C   UNL     1      -1.061 -13.232  -8.385  0.00  0.00    +0.002 A 
ATOM     27  C   UNL     1      -1.627 -12.576  -7.349  0.00  0.00    +0.026 A 
ATOM     28  C   UNL     1      -0.836 -11.751  -6.503  0.00  0.00    +0.043 A 
ATOM     29  N   UNL     1      -1.146 -11.026  -5.454  0.00  0.00    -0.370 N 
ATOM     30  H   UNL     1      -2.030 -10.937  -5.066  0.00  0.00    +0.161 HD
ENDBRANCH  18  21
ENDBRANCH   5  17
TORSDOF 4
