REMARK  Name = ZINC59146678
REMARK  5 active torsions:
REMARK  status: ('A' for Active; 'I' for Inactive)
REMARK    1  A    between atoms: C_4  and  C_7
REMARK    2  A    between atoms: C_7  and  C_8
REMARK    3  A    between atoms: C_7  and  N_14
REMARK    4  A    between atoms: N_22  and  N_23
REMARK    5  A    between atoms: C_24  and  C_26
REMARK                            x       y       z     vdW  Elec       q    Type
REMARK                         _______ _______ _______ _____ _____    ______ ____
ROOT
ATOM      1  N   UNL     1       3.686  -2.118  -0.658  0.00  0.00    -0.254 N 
ATOM      2  C   UNL     1       4.576  -2.676  -1.570  0.00  0.00    +0.047 A 
ATOM      3  C   UNL     1       5.881  -2.339  -1.911  0.00  0.00    +0.024 A 
ATOM      4  C   UNL     1       6.557  -3.069  -2.868  0.00  0.00    +0.002 A 
ATOM      5  C   UNL     1       5.948  -4.142  -3.498  0.00  0.00    +0.001 A 
ATOM      6  C   UNL     1       4.653  -4.491  -3.171  0.00  0.00    +0.012 A 
ATOM      7  C   UNL     1       3.964  -3.762  -2.209  0.00  0.00    +0.028 A 
ATOM      8  C   UNL     1       2.600  -3.867  -1.640  0.00  0.00    +0.153 C 
ATOM      9  N   UNL     1       1.673  -4.742  -1.946  0.00  0.00    -0.175 NA
ATOM     10  C   UNL     1       2.514  -2.775  -0.650  0.00  0.00    +0.272 C 
ATOM     11  O   UNL     1       1.552  -2.514   0.048  0.00  0.00    -0.268 OA
ENDROOT
BRANCH   9  12
ATOM     12  N   UNL     1       1.840  -5.581  -3.056  0.00  0.00    -0.206 N 
ATOM     13  C   UNL     1       0.942  -6.554  -3.306  0.00  0.00    +0.244 C 
ATOM     14  O   UNL     1      -0.011  -6.704  -2.571  0.00  0.00    -0.273 OA
ATOM     15  H   UNL     1       2.602  -5.461  -3.644  0.00  0.00    +0.177 HD
BRANCH  13  16
ATOM     16  C   UNL     1       1.121  -7.456  -4.500  0.00  0.00    +0.162 C 
ATOM     17  C   UNL     1      -0.031  -8.462  -4.554  0.00  0.00    +0.024 C 
ATOM     18  C   UNL     1       0.310  -9.533  -5.598  0.00  0.00    +0.020 C 
ATOM     19  C   UNL     1       1.495 -10.354  -5.089  0.00  0.00    +0.104 C 
ATOM     20  N   UNL     1       2.582  -9.476  -4.672  0.00  0.00    -0.315 N 
ATOM     21  C   UNL     1       2.429  -8.185  -4.383  0.00  0.00    +0.225 C 
ATOM     22  O   UNL     1       3.400  -7.564  -4.006  0.00  0.00    -0.275 OA
ATOM     23  H   UNL     1       3.471  -9.857  -4.599  0.00  0.00    +0.149 HD
ENDBRANCH  13  16
ENDBRANCH   9  12
BRANCH   1  24
ATOM     24  C   UNL     1       3.991  -0.962   0.190  0.00  0.00    +0.142 C 
BRANCH  24  28
ATOM     25  C   UNL     1       0.842   1.907  -0.127  0.00  0.00    +0.000 A 
ATOM     26  C   UNL     1       1.700   1.939   0.956  0.00  0.00    +0.000 A 
ATOM     27  C   UNL     1       2.719   1.010   1.059  0.00  0.00    +0.006 A 
ATOM     28  C   UNL     1       2.880   0.049   0.078  0.00  0.00    -0.022 A 
ATOM     29  C   UNL     1       2.021   0.017  -1.005  0.00  0.00    +0.006 A 
ATOM     30  C   UNL     1       1.003   0.946  -1.108  0.00  0.00    +0.000 A 
ENDBRANCH  24  28
BRANCH  24  31
ATOM     31  C   UNL     1       4.120  -1.411   1.622  0.00  0.00    -0.022 A 
ATOM     32  C   UNL     1       3.415  -2.514   2.067  0.00  0.00    +0.006 A 
ATOM     33  C   UNL     1       3.533  -2.925   3.382  0.00  0.00    +0.000 A 
ATOM     34  C   UNL     1       4.357  -2.235   4.251  0.00  0.00    +0.000 A 
ATOM     35  C   UNL     1       5.062  -1.132   3.806  0.00  0.00    +0.000 A 
ATOM     36  C   UNL     1       4.947  -0.723   2.490  0.00  0.00    +0.006 A 
ENDBRANCH  24  31
ENDBRANCH   1  24
TORSDOF 5
