REMARK  Name = ZINC19221897
REMARK  9 active torsions:
REMARK  status: ('A' for Active; 'I' for Inactive)
REMARK    1  A    between atoms: C_1  and  C_2
REMARK    2  A    between atoms: C_7  and  C_14
REMARK    3  A    between atoms: C_14  and  C_16
REMARK    4  A    between atoms: C_14  and  N_26
REMARK    5  A    between atoms: N_20  and  C_21
REMARK    6  A    between atoms: N_26  and  C_27
REMARK    7  A    between atoms: N_26  and  C_34
REMARK    8  A    between atoms: C_27  and  C_28
REMARK    9  A    between atoms: C_34  and  C_35
REMARK                            x       y       z     vdW  Elec       q    Type
REMARK                         _______ _______ _______ _____ _____    ______ ____
ROOT
ATOM      1  C   UNL     1      -0.025  -6.359   1.340  0.00  0.00    +0.040 C 
ENDROOT
BRANCH   1   8
ATOM      2  C   UNL     1      -2.212   0.720  -1.614  0.00  0.00    +0.044 C 
ATOM      3  C   UNL     1      -1.780  -0.684  -1.279  0.00  0.00    -0.048 A 
ATOM      4  C   UNL     1      -1.508  -1.582  -2.303  0.00  0.00    +0.004 A 
ATOM      5  C   UNL     1      -1.115  -2.860  -2.021  0.00  0.00    +0.010 A 
ATOM      6  C   UNL     1      -0.984  -3.267  -0.689  0.00  0.00    -0.001 A 
ATOM      7  C   UNL     1      -0.564  -4.628  -0.351  0.00  0.00    +0.017 A 
ATOM      8  C   UNL     1      -0.455  -4.966   0.958  0.00  0.00    +0.011 A 
ATOM      9  C   UNL     1      -0.742  -4.018   1.963  0.00  0.00    +0.251 A 
ATOM     10  O   UNL     1      -0.637  -4.342   3.134  0.00  0.00    -0.268 OA
ATOM     11  N   UNL     1      -1.128  -2.765   1.663  0.00  0.00    -0.322 N 
ATOM     12  H   UNL     1      -1.317  -2.139   2.378  0.00  0.00    +0.169 HD
ATOM     13  C   UNL     1      -1.259  -2.359   0.352  0.00  0.00    +0.049 A 
ATOM     14  C   UNL     1      -1.652  -1.062   0.040  0.00  0.00    +0.029 A 
ENDBRANCH   1   8
BRANCH   1  15
ATOM     15  C   UNL     1       1.306  -6.299   2.043  0.00  0.00    +0.143 A 
ATOM     16  N   UNL     1       1.529  -5.876   3.264  0.00  0.00    -0.115 NA
ATOM     17  N   UNL     1       2.792  -5.982   3.498  0.00  0.00    -0.023 NA
ATOM     18  N   UNL     1       3.380  -6.460   2.458  0.00  0.00    -0.044 NA
ATOM     19  N   UNL     1       2.498  -6.674   1.541  0.00  0.00    -0.227 N 
BRANCH  19  20
ATOM     20  C   UNL     1       2.746  -7.220   0.204  0.00  0.00    +0.111 C 
ATOM     21  C   UNL     1       3.426  -8.600   0.315  0.00  0.00    +0.027 C 
ATOM     22  C   UNL     1       4.430  -8.624  -0.865  0.00  0.00    +0.002 C 
ATOM     23  C   UNL     1       4.958  -7.168  -0.894  0.00  0.00    +0.002 C 
ATOM     24  C   UNL     1       3.720  -6.309  -0.564  0.00  0.00    +0.027 C 
ENDBRANCH  19  20
ENDBRANCH   1  15
BRANCH   1  25
ATOM     25  N   UNL     1      -1.026  -6.951   2.238  0.00  0.00    +0.397 N 
ATOM     26  H   UNL     1      -0.999  -6.480   3.130  0.00  0.00    -0.079 HD
BRANCH  25  27
ATOM     27  C   UNL     1      -2.363  -6.802   1.647  0.00  0.00    -0.041 C 
BRANCH  27  28
ATOM     28  C   UNL     1      -3.401  -7.297   2.620  0.00  0.00    -0.064 A 
ATOM     29  C   UNL     1      -3.788  -8.624   2.602  0.00  0.00    +0.002 A 
ATOM     30  C   UNL     1      -4.740  -9.079   3.495  0.00  0.00    +0.000 A 
ATOM     31  C   UNL     1      -5.305  -8.207   4.407  0.00  0.00    +0.000 A 
ATOM     32  C   UNL     1      -4.917  -6.880   4.426  0.00  0.00    +0.000 A 
ATOM     33  C   UNL     1      -3.962  -6.426   3.536  0.00  0.00    +0.002 A 
ENDBRANCH  27  28
ENDBRANCH  25  27
BRANCH  25  34
ATOM     34  C   UNL     1      -0.731  -8.377   2.428  0.00  0.00    -0.001 C 
BRANCH  34  35
ATOM     35  C   UNL     1       0.505  -8.526   3.277  0.00  0.00    +0.089 A 
ATOM     36  C   UNL     1       0.553  -8.439   4.618  0.00  0.00    +0.042 A 
ATOM     37  C   UNL     1       1.901  -8.640   4.994  0.00  0.00    +0.041 A 
ATOM     38  C   UNL     1       2.596  -8.838   3.860  0.00  0.00    +0.195 A 
ATOM     39  O   UNL     1       1.744  -8.773   2.823  0.00  0.00    -0.470 OA
ENDBRANCH  34  35
ENDBRANCH  25  34
ENDBRANCH   1  25
TORSDOF 8
