REMARK  Name = ZINC02127294
REMARK  10 active torsions:
REMARK  status: ('A' for Active; 'I' for Inactive)
REMARK    1  A    between atoms: C_1  and  C_2
REMARK    2  A    between atoms: C_2  and  C_3
REMARK    3  A    between atoms: C_2  and  C_4
REMARK    4  A    between atoms: C_4  and  C_5
REMARK    5  A    between atoms: C_5  and  C_7
REMARK    6  A    between atoms: C_5  and  N_19
REMARK    7  A    between atoms: N_9  and  C_10
REMARK    8  A    between atoms: C_10  and  C_11
REMARK    9  A    between atoms: C_11  and  C_12
REMARK   10  A    between atoms: C_22  and  C_38
REMARK                            x       y       z     vdW  Elec       q    Type
REMARK                         _______ _______ _______ _____ _____    ______ ____
ROOT
ATOM      1  N   UNL     1       4.332  -4.670  -1.739  0.00  0.00    -0.212 N 
ATOM      2  C   UNL     1       4.419  -3.502  -1.039  0.00  0.00    +0.253 C 
ATOM      3  O   UNL     1       5.120  -2.543  -1.278  0.00  0.00    -0.272 OA
ATOM      4  C   UNL     1       3.444  -3.661   0.103  0.00  0.00    +0.153 C 
ATOM      5  C   UNL     1       2.401  -2.569   0.098  0.00  0.00    +0.053 A 
ATOM      6  C   UNL     1       1.072  -2.822   0.096  0.00  0.00    -0.015 A 
ATOM      7  C   UNL     1       0.406  -1.532   0.128  0.00  0.00    +0.003 A 
ATOM      8  C   UNL     1      -0.944  -1.168   0.149  0.00  0.00    +0.010 A 
ATOM      9  C   UNL     1      -1.222   0.177   0.174  0.00  0.00    +0.001 A 
ATOM     10  C   UNL     1      -0.223   1.136   0.179  0.00  0.00    +0.002 A 
ATOM     11  C   UNL     1       1.121   0.803   0.159  0.00  0.00    +0.026 A 
ATOM     12  C   UNL     1       1.434  -0.555   0.134  0.00  0.00    +0.047 A 
ATOM     13  N   UNL     1       2.626  -1.219   0.113  0.00  0.00    -0.356 N 
ATOM     14  H   UNL     1       3.499  -0.799   0.110  0.00  0.00    +0.166 HD
ATOM     15  C   UNL     1       0.421  -4.181   0.049  0.00  0.00    +0.056 C 
ATOM     16  C   UNL     1       1.446  -5.275   0.387  0.00  0.00    +0.115 C 
ATOM     17  N   UNL     1       2.716  -4.905  -0.241  0.00  0.00    -0.266 N 
ATOM     18  C   UNL     1       3.396  -5.487  -1.229  0.00  0.00    +0.313 C 
ATOM     19  O   UNL     1       3.194  -6.620  -1.621  0.00  0.00    -0.252 OA
ATOM     20  C   UNL     1       4.156  -3.764   1.453  0.00  0.00    +0.048 C 
ENDROOT
BRANCH   1  21
ATOM     21  C   UNL     1       5.164  -4.994  -2.900  0.00  0.00    +0.171 C 
BRANCH  21  22
ATOM     22  C   UNL     1       4.287  -5.169  -4.113  0.00  0.00    +0.234 C 
ATOM     23  O   UNL     1       3.086  -5.036  -4.017  0.00  0.00    -0.274 OA
ATOM     24  N   UNL     1       4.839  -5.473  -5.305  0.00  0.00    -0.313 N 
ATOM     25  H   UNL     1       5.800  -5.580  -5.381  0.00  0.00    +0.149 HD
BRANCH  24  26
ATOM     26  C   UNL     1       3.987  -5.644  -6.484  0.00  0.00    +0.109 C 
BRANCH  26  27
ATOM     27  C   UNL     1       4.856  -5.983  -7.697  0.00  0.00    +0.056 C 
BRANCH  27  28
ATOM     28  C   UNL     1       3.979  -6.158  -8.910  0.00  0.00    -0.011 A 
ATOM     29  C   UNL     1       3.852  -5.130  -9.825  0.00  0.00    +0.006 A 
ATOM     30  C   UNL     1       3.049  -5.291 -10.939  0.00  0.00    +0.000 A 
ATOM     31  C   UNL     1       2.371  -6.480 -11.138  0.00  0.00    +0.003 A 
ATOM     32  C   UNL     1       2.497  -7.509 -10.224  0.00  0.00    +0.038 A 
ATOM     33  C   UNL     1       3.305  -7.350  -9.111  0.00  0.00    +0.127 A 
ATOM     34  F   UNL     1       3.433  -8.357  -8.219  0.00  0.00    -0.205 F 
ENDBRANCH  27  28
ENDBRANCH  26  27
ENDBRANCH  24  26
ENDBRANCH  21  22
BRANCH  21  35
ATOM     35  C   UNL     1       5.930  -6.291  -2.632  0.00  0.00    +0.035 C 
BRANCH  35  37
ATOM     36  C   UNL     1       7.554  -7.416  -1.102  0.00  0.00    +0.007 C 
ATOM     37  C   UNL     1       6.887  -6.085  -1.456  0.00  0.00    -0.015 C 
ATOM     38  C   UNL     1       7.959  -5.065  -1.844  0.00  0.00    +0.007 C 
ENDBRANCH  35  37
ENDBRANCH  21  35
ENDBRANCH   1  21
TORSDOF 7
