REMARK  Name = ZINC12833282
REMARK  12 active torsions:
REMARK  status: ('A' for Active; 'I' for Inactive)
REMARK    1  A    between atoms: C_1  and  C_2
REMARK    2  A    between atoms: C_4  and  C_38
REMARK    3  A    between atoms: C_7  and  C_14
REMARK    4  A    between atoms: C_14  and  N_67
REMARK    5  A    between atoms: C_15  and  C_16
REMARK    6  A    between atoms: C_15  and  N_67
REMARK    7  A    between atoms: C_23  and  C_24
REMARK    8  A    between atoms: C_23  and  N_67
REMARK    9  A    between atoms: N_28  and  C_29
REMARK   10  A    between atoms: C_29  and  C_30
REMARK   11  A    between atoms: C_33  and  O_36
REMARK   12  A    between atoms: O_36  and  C_37
REMARK                            x       y       z     vdW  Elec       q    Type
REMARK                         _______ _______ _______ _____ _____    ______ ____
ROOT
ATOM      1  N   UNL     1       1.709  -1.846  -0.981  0.00  0.00    +0.390 N 
ATOM      2  H   UNL     1       0.992  -1.682  -1.697  0.00  0.00    -0.080 HD
ENDROOT
BRANCH   1   3
ATOM      3  C   UNL     1       1.619  -3.249  -0.523  0.00  0.00    -0.036 C 
BRANCH   3  10
ATOM      4  C   UNL     1      -6.026  -5.523  -0.643  0.00  0.00    +0.044 C 
ATOM      5  C   UNL     1      -4.573  -5.175  -0.839  0.00  0.00    -0.048 A 
ATOM      6  C   UNL     1      -3.954  -5.466  -2.047  0.00  0.00    +0.007 A 
ATOM      7  C   UNL     1      -2.637  -5.160  -2.245  0.00  0.00    -0.041 A 
ATOM      8  C   UNL     1      -1.906  -4.548  -1.222  0.00  0.00    +0.002 A 
ATOM      9  C   UNL     1      -0.495  -4.201  -1.402  0.00  0.00    +0.017 A 
ATOM     10  C   UNL     1       0.164  -3.614  -0.372  0.00  0.00    +0.001 A 
ATOM     11  C   UNL     1      -0.508  -3.339   0.838  0.00  0.00    +0.251 A 
ATOM     12  O   UNL     1       0.102  -2.806   1.748  0.00  0.00    -0.268 OA
ATOM     13  N   UNL     1      -1.805  -3.649   1.010  0.00  0.00    -0.322 N 
ATOM     14  H   UNL     1      -2.236  -3.445   1.855  0.00  0.00    +0.169 HD
ATOM     15  C   UNL     1      -2.530  -4.252   0.005  0.00  0.00    +0.050 A 
ATOM     16  C   UNL     1      -3.872  -4.573   0.183  0.00  0.00    +0.029 A 
ATOM     17  C   UNL     1      -1.976  -5.479  -3.561  0.00  0.00    +0.044 C 
ENDBRANCH   3  10
ENDBRANCH   1   3
BRANCH   1  18
ATOM     18  C   UNL     1       3.041  -1.592  -1.569  0.00  0.00    -0.042 C 
BRANCH  18  19
ATOM     19  C   UNL     1       3.113  -2.266  -2.915  0.00  0.00    -0.064 A 
ATOM     20  C   UNL     1       3.689  -3.518  -3.031  0.00  0.00    +0.004 A 
ATOM     21  C   UNL     1       3.751  -4.139  -4.264  0.00  0.00    +0.038 A 
ATOM     22  C   UNL     1       3.246  -3.502  -5.385  0.00  0.00    +0.123 A 
ATOM     23  C   UNL     1       2.674  -2.247  -5.269  0.00  0.00    +0.038 A 
ATOM     24  C   UNL     1       2.609  -1.630  -4.034  0.00  0.00    +0.004 A 
ATOM     25  F   UNL     1       3.310  -4.107  -6.591  0.00  0.00    -0.205 F 
ENDBRANCH  18  19
ENDBRANCH   1  18
BRANCH   1  26
ATOM     26  C   UNL     1       1.474  -0.929   0.154  0.00  0.00    +0.001 C 
BRANCH  26  27
ATOM     27  C   UNL     1       1.425   0.485  -0.365  0.00  0.00    +0.135 A 
ATOM     28  N   UNL     1       2.447   1.281  -0.567  0.00  0.00    -0.115 NA
ATOM     29  N   UNL     1       1.996   2.402  -1.014  0.00  0.00    -0.023 NA
ATOM     30  N   UNL     1       0.714   2.342  -1.104  0.00  0.00    -0.044 NA
ATOM     31  N   UNL     1       0.324   1.176  -0.713  0.00  0.00    -0.227 N 
BRANCH  31  32
ATOM     32  C   UNL     1      -1.059   0.694  -0.657  0.00  0.00    +0.182 C 
BRANCH  32  33
ATOM     33  C   UNL     1      -1.476   0.207  -2.021  0.00  0.00    -0.026 A 
ATOM     34  C   UNL     1      -1.976   1.101  -2.950  0.00  0.00    +0.009 A 
ATOM     35  C   UNL     1      -2.354   0.658  -4.203  0.00  0.00    +0.046 A 
ATOM     36  C   UNL     1      -2.242  -0.687  -4.525  0.00  0.00    +0.120 A 
ATOM     37  C   UNL     1      -1.745  -1.583  -3.589  0.00  0.00    +0.046 A 
ATOM     38  C   UNL     1      -1.364  -1.134  -2.339  0.00  0.00    +0.009 A 
BRANCH  36  39
ATOM     39  O   UNL     1      -2.618  -1.127  -5.755  0.00  0.00    -0.495 OA
ATOM     40  C   UNL     1      -3.120  -0.148  -6.667  0.00  0.00    +0.277 C 
ENDBRANCH  36  39
ENDBRANCH  32  33
ENDBRANCH  31  32
ENDBRANCH  26  27
ENDBRANCH   1  26
TORSDOF 9
