REMARK  Name = ZINC00725254
REMARK  8 active torsions:
REMARK  status: ('A' for Active; 'I' for Inactive)
REMARK    1  A    between atoms: C_1  and  C_2
REMARK    2  A    between atoms: C_5  and  C_8
REMARK    3  A    between atoms: C_8  and  C_25
REMARK    4  A    between atoms: C_10  and  C_12
REMARK    5  A    between atoms: N_14  and  C_15
REMARK    6  A    between atoms: C_17  and  N_22
REMARK    7  A    between atoms: C_20  and  C_21
REMARK    8  A    between atoms: C_28  and  C_31
REMARK                            x       y       z     vdW  Elec       q    Type
REMARK                         _______ _______ _______ _____ _____    ______ ____
ROOT
ATOM      1  C   UNL     1      -2.590   3.868   0.017  0.00  0.00    +0.032 C 
ATOM      2  C   UNL     1      -3.475   3.683   1.252  0.00  0.00    +0.031 C 
ATOM      3  C   UNL     1      -3.858   3.016  -0.072  0.00  0.00    +0.091 C 
ENDROOT
BRANCH   1   8
ATOM      4  C   UNL     1       2.489   1.112  -0.064  0.00  0.00    +0.044 C 
ATOM      5  C   UNL     1       1.164   1.831  -0.042  0.00  0.00    -0.050 A 
ATOM      6  C   UNL     1       0.622   2.246   1.160  0.00  0.00    +0.003 A 
ATOM      7  C   UNL     1      -0.596   2.900   1.179  0.00  0.00    +0.005 A 
ATOM      8  C   UNL     1      -1.266   3.150  -0.004  0.00  0.00    -0.036 A 
ATOM      9  C   UNL     1      -0.724   2.734  -1.206  0.00  0.00    +0.005 A 
ATOM     10  C   UNL     1       0.491   2.075  -1.225  0.00  0.00    +0.003 A 
ENDBRANCH   1   8
BRANCH   1  11
ATOM     11  C   UNL     1      -2.609   5.216  -0.656  0.00  0.00    -0.036 A 
ATOM     12  C   UNL     1      -3.772   5.681  -1.240  0.00  0.00    +0.005 A 
ATOM     13  C   UNL     1      -3.790   6.919  -1.855  0.00  0.00    +0.003 A 
ATOM     14  C   UNL     1      -2.643   7.689  -1.892  0.00  0.00    -0.050 A 
ATOM     15  C   UNL     1      -1.478   7.222  -1.312  0.00  0.00    +0.003 A 
ATOM     16  C   UNL     1      -1.461   5.986  -0.694  0.00  0.00    +0.005 A 
ATOM     17  C   UNL     1      -2.661   9.037  -2.566  0.00  0.00    +0.044 C 
ENDBRANCH   1  11
BRANCH   3  18
ATOM     18  C   UNL     1      -3.687   1.523  -0.174  0.00  0.00    +0.222 C 
ATOM     19  O   UNL     1      -2.581   1.032  -0.088  0.00  0.00    -0.275 OA
ATOM     20  N   UNL     1      -4.762   0.732  -0.362  0.00  0.00    -0.285 N 
ATOM     21  H   UNL     1      -5.653   1.115  -0.350  0.00  0.00    +0.155 HD
BRANCH  20  22
ATOM     22  C   UNL     1      -4.593  -0.640  -0.574  0.00  0.00    +0.038 A 
ATOM     23  C   UNL     1      -3.400  -1.122  -1.097  0.00  0.00    +0.056 A 
ATOM     24  C   UNL     1      -3.234  -2.478  -1.298  0.00  0.00    +0.128 A 
ATOM     25  C   UNL     1      -4.259  -3.355  -0.992  0.00  0.00    +0.033 A 
ATOM     26  C   UNL     1      -5.450  -2.878  -0.477  0.00  0.00    +0.007 A 
ATOM     27  C   UNL     1      -5.620  -1.523  -0.267  0.00  0.00    -0.029 A 
ATOM     28  C   UNL     1      -6.918  -1.004   0.294  0.00  0.00    +0.045 C 
BRANCH  24  29
ATOM     29  N   UNL     1      -1.960  -2.993  -1.849  0.00  0.00    +0.056 N 
ATOM     30  O   UNL     1      -1.815  -4.189  -2.033  0.00  0.00    -0.126 OA
ATOM     31  O   UNL     1      -1.057  -2.222  -2.119  0.00  0.00    -0.126 OA
ENDBRANCH  24  29
ENDBRANCH  20  22
ENDBRANCH   3  18
TORSDOF 5
