REMARK  Name = ZINC38671603
REMARK  12 active torsions:
REMARK  status: ('A' for Active; 'I' for Inactive)
REMARK    1  A    between atoms: C_1  and  C_2
REMARK    2  A    between atoms: C_2  and  N_3
REMARK    3  A    between atoms: N_3  and  C_4
REMARK    4  A    between atoms: N_3  and  S_6
REMARK    5  A    between atoms: C_4  and  C_5
REMARK    6  A    between atoms: S_6  and  C_9
REMARK    7  A    between atoms: C_12  and  C_15
REMARK    8  A    between atoms: N_17  and  C_18
REMARK    9  A    between atoms: C_18  and  C_19
REMARK   10  A    between atoms: C_19  and  C_21
REMARK   11  A    between atoms: C_19  and  N_31
REMARK   12  A    between atoms: N_29  and  C_30
REMARK                            x       y       z     vdW  Elec       q    Type
REMARK                         _______ _______ _______ _____ _____    ______ ____
ROOT
ATOM      1  C   UNL     1      -0.009   5.695  -7.742  0.00  0.00    +0.094 C 
ENDROOT
BRANCH   1   4
ATOM      2  C   UNL     1      -0.967   7.041  -5.952  0.00  0.00    +0.244 C 
ATOM      3  O   UNL     1      -1.936   6.307  -5.958  0.00  0.00    -0.270 OA
ATOM      4  N   UNL     1       0.051   6.820  -6.807  0.00  0.00    -0.313 N 
ATOM      5  H   UNL     1       0.824   7.407  -6.802  0.00  0.00    +0.149 HD
BRANCH   2   9
ATOM      6  C   UNL     1      -0.793  10.304  -3.239  0.00  0.00    +0.106 A 
ATOM      7  C   UNL     1      -1.897   9.470  -3.243  0.00  0.00    +0.029 A 
ATOM      8  C   UNL     1      -1.960   8.409  -4.122  0.00  0.00    +0.015 A 
ATOM      9  C   UNL     1      -0.907   8.177  -5.008  0.00  0.00    +0.037 A 
ATOM     10  C   UNL     1       0.204   9.022  -4.998  0.00  0.00    +0.015 A 
ATOM     11  C   UNL     1       0.252  10.084  -4.118  0.00  0.00    +0.029 A 
BRANCH   6  12
ATOM     12  S   UNL     1      -0.721  11.658  -2.113  0.00  0.00    +0.061 S 
ATOM     13  O   UNL     1       0.655  11.967  -1.937  0.00  0.00    -0.153 OA
ATOM     14  O   UNL     1      -1.572  11.327  -1.024  0.00  0.00    -0.153 OA
BRANCH  12  15
ATOM     15  N   UNL     1      -1.405  12.962  -2.870  0.00  0.00    -0.177 NA
BRANCH  15  17
ATOM     16  C   UNL     1      -3.578  12.596  -3.932  0.00  0.00    +0.022 C 
ATOM     17  C   UNL     1      -2.843  13.212  -2.740  0.00  0.00    +0.106 C 
ENDBRANCH  15  17
BRANCH  15  18
ATOM     18  C   UNL     1      -0.574  13.864  -3.670  0.00  0.00    +0.106 C 
ATOM     19  C   UNL     1      -0.140  15.053  -2.810  0.00  0.00    +0.022 C 
ENDBRANCH  15  18
ENDBRANCH  12  15
ENDBRANCH   6  12
ENDBRANCH   2   9
ENDBRANCH   1   4
BRANCH   1  20
ATOM     20  C   UNL     1       1.199   5.746  -8.680  0.00  0.00    -0.020 C 
BRANCH  20  21
ATOM     21  C   UNL     1       1.133   6.997  -9.517  0.00  0.00    -0.059 A 
ATOM     22  C   UNL     1       0.308   7.046 -10.626  0.00  0.00    +0.004 A 
ATOM     23  C   UNL     1       0.245   8.188 -11.395  0.00  0.00    +0.023 A 
ATOM     24  C   UNL     1       1.013   9.306 -11.059  0.00  0.00    +0.033 A 
ATOM     25  C   UNL     1       1.836   9.247  -9.946  0.00  0.00    -0.025 A 
ATOM     26  C   UNL     1       1.892   8.101  -9.176  0.00  0.00    +0.007 A 
ATOM     27  C   UNL     1       2.550  10.572  -9.805  0.00  0.00    +0.056 C 
ATOM     28  C   UNL     1       2.036  11.415 -10.983  0.00  0.00    +0.109 C 
ATOM     29  N   UNL     1       1.095  10.546 -11.695  0.00  0.00    -0.332 N 
ATOM     30  C   UNL     1       0.350  10.923 -12.899  0.00  0.00    +0.129 C 
ENDBRANCH  20  21
BRANCH  20  31
ATOM     31  N   UNL     1       1.188   4.568  -9.558  0.00  0.00    +0.385 N 
ATOM     32  C   UNL     1       1.304   3.352  -8.744  0.00  0.00    -0.078 C 
ATOM     33  C   UNL     1       1.212   2.119  -9.646  0.00  0.00    -0.019 C 
ATOM     34  C   UNL     1       2.348   2.159 -10.672  0.00  0.00    -0.004 C 
ATOM     35  C   UNL     1       2.260   3.466 -11.466  0.00  0.00    -0.019 C 
ATOM     36  C   UNL     1       2.314   4.649 -10.496  0.00  0.00    -0.078 C 
ATOM     37  H   UNL     1       0.322   4.543 -10.075  0.00  0.00    -0.081 HD
ENDBRANCH  20  31
ENDBRANCH   1  20
TORSDOF 9
