REMARK  Name = ZINC01434756
REMARK  6 active torsions:
REMARK  status: ('A' for Active; 'I' for Inactive)
REMARK    1  A    between atoms: C_1  and  C_2
REMARK    2  A    between atoms: C_5  and  C_8
REMARK    3  A    between atoms: C_13  and  C_23
REMARK    4  A    between atoms: C_26  and  C_29
REMARK    5  A    between atoms: C_29  and  O_31
REMARK    6  A    between atoms: O_31  and  C_32
REMARK                            x       y       z     vdW  Elec       q    Type
REMARK                         _______ _______ _______ _____ _____    ______ ____
ROOT
ATOM      1  C   UNL     1      -4.929   5.589  -1.441  0.00  0.00    +0.032 C 
ATOM      2  C   UNL     1      -4.224   4.302  -1.015  0.00  0.00    +0.059 C 
ATOM      3  C   UNL     1      -2.761   4.586  -0.719  0.00  0.00    +0.017 C 
ATOM      4  C   UNL     1      -2.100   5.534  -1.403  0.00  0.00    +0.036 C 
ATOM      5  C   UNL     1      -0.644   5.899  -1.233  0.00  0.00    +0.136 C 
ATOM      6  N   UNL     1      -0.018   5.323  -0.062  0.00  0.00    -0.331 N 
ATOM      7  C   UNL     1       0.136   3.945   0.068  0.00  0.00    +0.049 A 
ATOM      8  C   UNL     1       1.389   3.353   0.051  0.00  0.00    +0.025 A 
ATOM      9  C   UNL     1       1.492   1.974   0.121  0.00  0.00    +0.002 A 
ATOM     10  C   UNL     1       0.355   1.190   0.191  0.00  0.00    +0.002 A 
ATOM     11  C   UNL     1      -0.898   1.778   0.206  0.00  0.00    +0.025 A 
ATOM     12  C   UNL     1      -1.001   3.157   0.169  0.00  0.00    +0.052 A 
ATOM     13  N   UNL     1      -2.223   3.814   0.260  0.00  0.00    -0.316 N 
ATOM     14  C   UNL     1      -2.769   6.301  -2.387  0.00  0.00    +0.163 C 
ATOM     15  O   UNL     1      -2.143   7.141  -3.001  0.00  0.00    -0.292 OA
ATOM     16  C   UNL     1      -4.224   6.113  -2.698  0.00  0.00    +0.088 C 
ATOM     17  H   UNL     1       0.300   5.907   0.644  0.00  0.00    +0.147 HD
ATOM     18  H   UNL     1      -2.728   3.713   1.082  0.00  0.00    +0.152 HD
ENDROOT
BRANCH   1  23
ATOM     19  C   UNL     1     -10.477   4.487  -2.621  0.00  0.00    +0.044 C 
ATOM     20  C   UNL     1      -9.030   4.775  -2.313  0.00  0.00    -0.050 A 
ATOM     21  C   UNL     1      -8.701   5.701  -1.342  0.00  0.00    +0.003 A 
ATOM     22  C   UNL     1      -7.374   5.965  -1.059  0.00  0.00    +0.004 A 
ATOM     23  C   UNL     1      -6.376   5.302  -1.748  0.00  0.00    -0.043 A 
ATOM     24  C   UNL     1      -6.705   4.379  -2.724  0.00  0.00    +0.004 A 
ATOM     25  C   UNL     1      -8.032   4.112  -3.003  0.00  0.00    +0.003 A 
ENDBRANCH   1  23
BRANCH   5  26
ATOM     26  C   UNL     1       0.108   5.436  -2.454  0.00  0.00    -0.023 A 
ATOM     27  C   UNL     1       0.697   6.365  -3.293  0.00  0.00    +0.006 A 
ATOM     28  C   UNL     1       1.391   5.949  -4.410  0.00  0.00    +0.015 A 
ATOM     29  C   UNL     1       1.490   4.586  -4.698  0.00  0.00    +0.059 A 
ATOM     30  C   UNL     1       0.889   3.654  -3.850  0.00  0.00    +0.015 A 
ATOM     31  C   UNL     1       0.202   4.084  -2.734  0.00  0.00    +0.006 A 
BRANCH  29  32
ATOM     32  C   UNL     1       2.228   4.132  -5.895  0.00  0.00    +0.339 C 
ATOM     33  O   UNL     1       2.312   2.946  -6.143  0.00  0.00    -0.245 OA
BRANCH  32  34
ATOM     34  O   UNL     1       2.807   5.034  -6.711  0.00  0.00    -0.464 OA
ATOM     35  C   UNL     1       3.515   4.517  -7.869  0.00  0.00    +0.280 C 
ENDBRANCH  32  34
ENDBRANCH  29  32
ENDBRANCH   5  26
TORSDOF 4
