REMARK  Name = ZINC06444128
REMARK  10 active torsions:
REMARK  status: ('A' for Active; 'I' for Inactive)
REMARK    1  A    between atoms: C_1  and  C_2
REMARK    2  A    between atoms: C_12  and  C_14
REMARK    3  A    between atoms: C_14  and  C_16
REMARK    4  A    between atoms: C_14  and  N_68
REMARK    5  A    between atoms: N_20  and  C_21
REMARK    6  A    between atoms: C_21  and  C_22
REMARK    7  A    between atoms: C_28  and  C_29
REMARK    8  A    between atoms: C_28  and  N_68
REMARK    9  A    between atoms: C_34  and  C_35
REMARK   10  A    between atoms: C_34  and  N_68
REMARK                            x       y       z     vdW  Elec       q    Type
REMARK                         _______ _______ _______ _____ _____    ______ ____
ROOT
ATOM      1  C   UNL     1      -4.046   3.153   2.316  0.00  0.00    +0.039 C 
ENDROOT
BRANCH   1  13
ATOM      2  C   UNL     1     -10.266   1.028   2.220  0.00  0.00    +0.046 C 
ATOM      3  C   UNL     1      -9.449   1.763   1.188  0.00  0.00    -0.026 A 
ATOM      4  C   UNL     1     -10.008   2.099  -0.026  0.00  0.00    +0.005 A 
ATOM      5  C   UNL     1      -9.267   2.775  -0.985  0.00  0.00    +0.001 A 
ATOM      6  C   UNL     1      -7.967   3.122  -0.742  0.00  0.00    +0.010 A 
ATOM      7  C   UNL     1      -7.379   2.792   0.484  0.00  0.00    -0.001 A 
ATOM      8  C   UNL     1      -8.128   2.106   1.458  0.00  0.00    +0.052 A 
ATOM      9  N   UNL     1      -7.544   1.782   2.664  0.00  0.00    -0.322 N 
ATOM     10  H   UNL     1      -8.061   1.309   3.335  0.00  0.00    +0.169 HD
ATOM     11  C   UNL     1      -6.265   2.109   2.923  0.00  0.00    +0.251 A 
ATOM     12  O   UNL     1      -5.780   1.804   3.998  0.00  0.00    -0.268 OA
ATOM     13  C   UNL     1      -5.473   2.802   1.982  0.00  0.00    +0.011 A 
ATOM     14  C   UNL     1      -5.990   3.148   0.777  0.00  0.00    +0.017 A 
ENDBRANCH   1  13
BRANCH   1  15
ATOM     15  C   UNL     1      -3.276   1.893   2.617  0.00  0.00    +0.143 A 
ATOM     16  N   UNL     1      -3.403   1.132   3.676  0.00  0.00    -0.115 NA
ATOM     17  N   UNL     1      -2.572   0.154   3.566  0.00  0.00    -0.023 NA
ATOM     18  N   UNL     1      -1.922   0.268   2.460  0.00  0.00    -0.044 NA
ATOM     19  N   UNL     1      -2.324   1.331   1.849  0.00  0.00    -0.226 N 
BRANCH  19  20
ATOM     20  C   UNL     1      -1.839   1.829   0.560  0.00  0.00    +0.182 C 
BRANCH  20  21
ATOM     21  C   UNL     1      -0.588   2.642   0.773  0.00  0.00    -0.026 A 
ATOM     22  C   UNL     1       0.650   2.028   0.740  0.00  0.00    +0.005 A 
ATOM     23  C   UNL     1       1.797   2.775   0.930  0.00  0.00    +0.000 A 
ATOM     24  C   UNL     1       1.707   4.135   1.160  0.00  0.00    +0.000 A 
ATOM     25  C   UNL     1       0.468   4.748   1.199  0.00  0.00    +0.000 A 
ATOM     26  C   UNL     1      -0.679   4.001   1.007  0.00  0.00    +0.005 A 
ENDBRANCH  20  21
ENDBRANCH  19  20
ENDBRANCH   1  15
BRANCH   1  27
ATOM     27  N   UNL     1      -4.031   4.020   3.513  0.00  0.00    +0.394 N 
ATOM     28  H   UNL     1      -4.380   3.485   4.317  0.00  0.00    -0.080 HD
BRANCH  27  29
ATOM     29  C   UNL     1      -2.650   4.465   3.797  0.00  0.00    -0.034 C 
BRANCH  29  30
ATOM     30  C   UNL     1      -1.921   3.352   4.505  0.00  0.00    -0.027 A 
ATOM     31  C   UNL     1      -0.902   2.578   4.057  0.00  0.00    +0.009 A 
ATOM     32  C   UNL     1      -0.380   1.608   4.892  0.00  0.00    +0.008 A 
ATOM     33  C   UNL     1      -0.908   1.453   6.131  0.00  0.00    +0.045 A 
ATOM     34  S   UNL     1      -2.179   2.706   6.149  0.00  0.00    -0.103 S 
ENDBRANCH  29  30
ENDBRANCH  27  29
BRANCH  27  35
ATOM     35  C   UNL     1      -4.905   5.192   3.300  0.00  0.00    -0.045 C 
BRANCH  35  36
ATOM     36  C   UNL     1      -6.294   4.870   3.855  0.00  0.00    +0.102 C 
ATOM     37  C   UNL     1      -7.216   6.104   3.747  0.00  0.00    +0.032 C 
ATOM     38  C   UNL     1      -8.066   6.052   5.037  0.00  0.00    +0.030 C 
ATOM     39  C   UNL     1      -7.556   4.792   5.771  0.00  0.00    +0.160 C 
ATOM     40  O   UNL     1      -6.217   4.589   5.270  0.00  0.00    -0.378 OA
ENDBRANCH  35  36
ENDBRANCH  27  35
ENDBRANCH   1  27
TORSDOF 9
