REMARK  Name = ZINC02209421
REMARK  9 active torsions:
REMARK  status: ('A' for Active; 'I' for Inactive)
REMARK    1  A    between atoms: C_1  and  C_2
REMARK    2  A    between atoms: C_5  and  C_8
REMARK    3  A    between atoms: C_22  and  S_37
REMARK    4  A    between atoms: C_25  and  C_27
REMARK    5  A    between atoms: C_30  and  O_35
REMARK    6  A    between atoms: C_31  and  O_33
REMARK    7  A    between atoms: O_33  and  C_34
REMARK    8  A    between atoms: O_35  and  C_36
REMARK    9  A    between atoms: S_37  and  C_38
REMARK                            x       y       z     vdW  Elec       q    Type
REMARK                         _______ _______ _______ _____ _____    ______ ____
ROOT
ATOM      1  C   UNL     1       0.017  -4.237   0.051  0.00  0.00    +0.234 C 
ATOM      2  C   UNL     1      -1.369  -4.779   0.249  0.00  0.00    +0.025 C 
ATOM      3  C   UNL     1      -1.839  -5.030   1.488  0.00  0.00    +0.058 C 
ATOM      4  C   UNL     1      -0.931  -4.760   2.632  0.00  0.00    +0.040 A 
ATOM      5  C   UNL     1      -1.408  -4.670   3.932  0.00  0.00    +0.013 A 
ATOM      6  C   UNL     1      -0.528  -4.416   4.966  0.00  0.00    +0.001 A 
ATOM      7  C   UNL     1       0.822  -4.250   4.707  0.00  0.00    +0.004 A 
ATOM      8  C   UNL     1       1.305  -4.339   3.415  0.00  0.00    +0.046 A 
ATOM      9  C   UNL     1       0.435  -4.595   2.370  0.00  0.00    +0.131 A 
ATOM     10  O   UNL     1       0.880  -4.692   1.095  0.00  0.00    -0.479 OA
ATOM     11  N   UNL     1      -3.090  -5.512   1.688  0.00  0.00    -0.326 N 
ATOM     12  C   UNL     1      -3.943  -5.783   0.723  0.00  0.00    +0.216 C 
ATOM     13  N   UNL     1      -5.200  -6.261   0.751  0.00  0.00    -0.192 NA
ATOM     14  C   UNL     1      -5.673  -6.377  -0.473  0.00  0.00    +0.174 C 
ATOM     15  N   UNL     1      -4.716  -5.967  -1.364  0.00  0.00    -0.239 N 
ATOM     16  N   UNL     1      -3.609  -5.586  -0.602  0.00  0.00    -0.209 N 
ATOM     17  C   UNL     1      -2.277  -5.060  -0.928  0.00  0.00    +0.159 C 
ATOM     18  H   UNL     1      -3.375  -5.667   2.602  0.00  0.00    +0.169 HD
ATOM     19  H   UNL     1      -4.791  -5.947  -2.331  0.00  0.00    +0.172 HD
ENDROOT
BRANCH   1  24
ATOM     20  C   UNL     1      -0.161   1.538   0.104  0.00  0.00    +0.044 C 
ATOM     21  C   UNL     1      -0.114   0.032   0.090  0.00  0.00    -0.050 A 
ATOM     22  C   UNL     1      -0.289  -0.675   1.265  0.00  0.00    +0.004 A 
ATOM     23  C   UNL     1      -0.247  -2.057   1.252  0.00  0.00    +0.008 A 
ATOM     24  C   UNL     1      -0.030  -2.731   0.065  0.00  0.00    -0.003 A 
ATOM     25  C   UNL     1       0.143  -2.024  -1.110  0.00  0.00    +0.008 A 
ATOM     26  C   UNL     1       0.097  -0.642  -1.098  0.00  0.00    +0.004 A 
ENDBRANCH   1  24
BRANCH  17  27
ATOM     27  C   UNL     1      -2.454  -3.778  -1.701  0.00  0.00    -0.017 A 
ATOM     28  C   UNL     1      -3.235  -2.762  -1.182  0.00  0.00    +0.009 A 
ATOM     29  C   UNL     1      -3.401  -1.585  -1.888  0.00  0.00    +0.050 A 
ATOM     30  C   UNL     1      -2.783  -1.421  -3.118  0.00  0.00    +0.162 A 
ATOM     31  C   UNL     1      -1.997  -2.444  -3.639  0.00  0.00    +0.162 A 
ATOM     32  C   UNL     1      -1.831  -3.620  -2.925  0.00  0.00    +0.055 A 
BRANCH  31  33
ATOM     33  O   UNL     1      -1.389  -2.289  -4.846  0.00  0.00    -0.491 OA
ATOM     34  C   UNL     1      -0.598  -3.380  -5.319  0.00  0.00    +0.277 C 
ENDBRANCH  31  33
BRANCH  30  35
ATOM     35  O   UNL     1      -2.945  -0.264  -3.813  0.00  0.00    -0.491 OA
ATOM     36  C   UNL     1      -3.766   0.742  -3.216  0.00  0.00    +0.277 C 
ENDBRANCH  30  35
ENDBRANCH  17  27
BRANCH  14  37
ATOM     37  S   UNL     1      -7.280  -6.964  -0.898  0.00  0.00    -0.092 S 
ATOM     38  C   UNL     1      -8.047  -7.338   0.703  0.00  0.00    +0.093 C 
ENDBRANCH  14  37
TORSDOF 5
