REMARK  Name = ZINC16363717
REMARK  4 active torsions:
REMARK  status: ('A' for Active; 'I' for Inactive)
REMARK    1  A    between atoms: C_1  and  N_2
REMARK    2  A    between atoms: N_7  and  C_10
REMARK    3  A    between atoms: C_13  and  S_15
REMARK    4  A    between atoms: S_15  and  C_16
REMARK                            x       y       z     vdW  Elec       q    Type
REMARK                         _______ _______ _______ _____ _____    ______ ____
ROOT
ATOM      1  S   UNL     1      -3.772   1.244   6.662  0.00  0.00    -0.031 S 
ENDROOT
BRANCH   1  14
ATOM      2  C   UNL     1      -1.577   4.807   2.712  0.00  0.00    +0.155 C 
ATOM      3  N   UNL     1      -1.453   3.360   2.518  0.00  0.00    -0.280 N 
ATOM      4  C   UNL     1      -1.976   2.488   3.459  0.00  0.00    +0.169 A 
ATOM      5  C   UNL     1      -1.844   1.119   3.251  0.00  0.00    +0.150 A 
ATOM      6  C   UNL     1      -1.187   0.661   2.095  0.00  0.00    +0.282 A 
ATOM      7  O   UNL     1      -1.060  -0.534   1.891  0.00  0.00    -0.265 OA
ATOM      8  N   UNL     1      -0.698   1.558   1.213  0.00  0.00    -0.262 N 
ATOM      9  C   UNL     1      -0.827   2.879   1.427  0.00  0.00    +0.333 A 
ATOM     10  O   UNL     1      -0.369   3.659   0.614  0.00  0.00    -0.246 OA
ATOM     11  C   UNL     1      -0.013   1.086   0.008  0.00  0.00    +0.157 C 
ATOM     12  N   UNL     1      -2.450   0.499   4.334  0.00  0.00    -0.327 N 
ATOM     13  H   UNL     1      -2.528  -0.486   4.490  0.00  0.00    +0.168 HD
ATOM     14  C   UNL     1      -2.916   1.488   5.142  0.00  0.00    +0.175 A 
ATOM     15  N   UNL     1      -2.627   2.659   4.610  0.00  0.00    -0.203 NA
ENDBRANCH   1  14
BRANCH   1  16
ATOM     16  C   UNL     1      -4.053   2.919   7.128  0.00  0.00    +0.113 A 
ATOM     17  C   UNL     1      -4.760   3.214   8.375  0.00  0.00    +0.015 A 
ATOM     18  C   UNL     1      -5.228   2.204   9.219  0.00  0.00    +0.011 A 
ATOM     19  C   UNL     1      -5.883   2.538  10.371  0.00  0.00    +0.001 A 
ATOM     20  C   UNL     1      -6.089   3.868  10.715  0.00  0.00    +0.001 A 
ATOM     21  C   UNL     1      -5.643   4.878   9.908  0.00  0.00    +0.009 A 
ATOM     22  C   UNL     1      -4.972   4.566   8.728  0.00  0.00    -0.006 A 
ATOM     23  C   UNL     1      -4.466   5.597   7.814  0.00  0.00    +0.008 A 
ATOM     24  C   UNL     1      -4.633   6.955   8.086  0.00  0.00    +0.010 A 
ATOM     25  C   UNL     1      -4.149   7.887   7.212  0.00  0.00    +0.001 A 
ATOM     26  C   UNL     1      -3.490   7.494   6.053  0.00  0.00    +0.002 A 
ATOM     27  C   UNL     1      -3.312   6.174   5.761  0.00  0.00    +0.028 A 
ATOM     28  C   UNL     1      -3.797   5.190   6.637  0.00  0.00    +0.073 A 
ATOM     29  N   UNL     1      -3.620   3.888   6.357  0.00  0.00    -0.239 NA
ENDBRANCH   1  16
TORSDOF 2
