REMARK  Name = ZINC03886656
REMARK  5 active torsions:
REMARK  status: ('A' for Active; 'I' for Inactive)
REMARK    1  A    between atoms: C_6  and  O_7
REMARK    2  A    between atoms: O_7  and  C_8
REMARK    3  A    between atoms: C_11  and  S_15
REMARK    4  A    between atoms: C_13  and  N_14
REMARK    5  A    between atoms: S_15  and  N_18
REMARK                            x       y       z     vdW  Elec       q    Type
REMARK                         _______ _______ _______ _____ _____    ______ ____
ROOT
ATOM      1  C   UNL     1      -1.101  -2.054  -0.103  0.00  0.00    +0.149 A 
ATOM      2  C   UNL     1       0.129  -2.693  -0.111  0.00  0.00    +0.050 A 
ATOM      3  C   UNL     1       0.192  -4.069  -0.225  0.00  0.00    +0.032 A 
ATOM      4  C   UNL     1      -0.969  -4.812  -0.331  0.00  0.00    +0.107 A 
ATOM      5  C   UNL     1      -2.200  -4.183  -0.325  0.00  0.00    +0.055 A 
ATOM      6  C   UNL     1      -2.272  -2.803  -0.205  0.00  0.00    +0.069 A 
ENDROOT
BRANCH   6   7
ATOM      7  N   UNL     1      -3.516  -2.164  -0.193  0.00  0.00    -0.355 N 
ATOM      8  H   UNL     1      -3.565  -1.198  -0.113  0.00  0.00    +0.142 HD
ATOM      9  H   UNL     1      -4.331  -2.686  -0.264  0.00  0.00    +0.142 HD
ENDBRANCH   6   7
BRANCH   4  10
ATOM     10  S   UNL     1      -0.880  -6.566  -0.477  0.00  0.00    +0.061 S 
ATOM     11  O   UNL     1      -2.081  -6.983  -1.111  0.00  0.00    -0.153 OA
ATOM     12  O   UNL     1       0.404  -6.865  -1.007  0.00  0.00    -0.153 OA
BRANCH  10  13
ATOM     13  N   UNL     1      -0.914  -7.187   1.058  0.00  0.00    -0.177 NA
ATOM     14  C   UNL     1       0.332  -7.402   1.806  0.00  0.00    +0.109 C 
ATOM     15  C   UNL     1       0.222  -6.694   3.160  0.00  0.00    +0.017 C 
ATOM     16  C   UNL     1      -1.037  -7.178   3.884  0.00  0.00    +0.003 C 
ATOM     17  C   UNL     1      -2.272  -6.824   3.052  0.00  0.00    +0.017 C 
ATOM     18  C   UNL     1      -2.191  -7.528   1.699  0.00  0.00    +0.109 C 
ENDBRANCH  10  13
ENDBRANCH   4  10
BRANCH   1  19
ATOM     19  O   UNL     1      -1.165  -0.700   0.009  0.00  0.00    -0.454 OA
BRANCH  19  25
ATOM     20  C   UNL     1       0.751   0.053  -1.183  0.00  0.00    +0.048 A 
ATOM     21  C   UNL     1       1.935   0.763  -1.209  0.00  0.00    +0.023 A 
ATOM     22  C   UNL     1       2.374   1.420  -0.072  0.00  0.00    +0.041 A 
ATOM     23  C   UNL     1       1.627   1.366   1.091  0.00  0.00    +0.023 A 
ATOM     24  C   UNL     1       0.442   0.657   1.121  0.00  0.00    +0.048 A 
ATOM     25  C   UNL     1       0.001  -0.002  -0.018  0.00  0.00    +0.129 A 
ATOM     26 CL   UNL     1       3.863   2.312  -0.107  0.00  0.00    -0.084 Cl
ENDBRANCH  19  25
ENDBRANCH   1  19
TORSDOF 5
