REMARK  Name = ZINC21081538
REMARK  12 active torsions:
REMARK  status: ('A' for Active; 'I' for Inactive)
REMARK    1  A    between atoms: C_1  and  C_2
REMARK    2  A    between atoms: C_2  and  C_3
REMARK    3  A    between atoms: C_3  and  C_28
REMARK    4  A    between atoms: N_4  and  N_5
REMARK    5  A    between atoms: C_8  and  S_11
REMARK    6  A    between atoms: S_11  and  C_12
REMARK    7  A    between atoms: C_12  and  C_13
REMARK    8  A    between atoms: N_15  and  C_16
REMARK    9  A    between atoms: C_19  and  S_22
REMARK   10  A    between atoms: S_22  and  N_25
REMARK   11  A    between atoms: N_25  and  C_26
REMARK   12  A    between atoms: C_26  and  C_27
REMARK                            x       y       z     vdW  Elec       q    Type
REMARK                         _______ _______ _______ _____ _____    ______ ____
ROOT
ATOM      1  S   UNL     1      -2.929   6.204   7.274  0.00  0.00    -0.075 S 
ENDROOT
BRANCH   1   5
ATOM      2  N   UNL     1      -4.788   8.313  11.658  0.00  0.00    -0.205 N 
ATOM      3  C   UNL     1      -4.587   7.415  10.620  0.00  0.00    +0.232 A 
ATOM      4  N   UNL     1      -3.733   7.584   9.565  0.00  0.00    -0.186 NA
ATOM      5  C   UNL     1      -3.826   6.481   8.766  0.00  0.00    +0.211 A 
ATOM      6  N   UNL     1      -4.704   5.666   9.300  0.00  0.00    -0.144 NA
ATOM      7  N   UNL     1      -5.182   6.256  10.477  0.00  0.00    -0.245 N 
ATOM      8  H   UNL     1      -4.233   9.262  11.680  0.00  0.00    +0.177 HD
ATOM      9  H   UNL     1      -5.914   5.917  11.226  0.00  0.00    +0.192 HD
BRANCH   2  11
ATOM     10  C   UNL     1      -5.887   8.851  13.651  0.00  0.00    +0.066 C 
ATOM     11  N   UNL     1      -5.699   8.010  12.679  0.00  0.00    -0.184 NA
BRANCH  10  12
ATOM     12  C   UNL     1      -6.845   8.532  14.726  0.00  0.00    -0.002 A 
ATOM     13  C   UNL     1      -7.046   9.431  15.776  0.00  0.00    +0.010 A 
ATOM     14  C   UNL     1      -7.946   9.128  16.776  0.00  0.00    +0.001 A 
ATOM     15  C   UNL     1      -8.643   7.933  16.745  0.00  0.00    +0.000 A 
ATOM     16  C   UNL     1      -8.445   7.035  15.711  0.00  0.00    +0.001 A 
ATOM     17  C   UNL     1      -7.551   7.327  14.702  0.00  0.00    +0.010 A 
ENDBRANCH  10  12
BRANCH  10  19
ATOM     18  C   UNL     1      -5.924  11.225  12.938  0.00  0.00    +0.010 C 
ATOM     19  C   UNL     1      -5.127  10.151  13.681  0.00  0.00    +0.054 C 
ENDBRANCH  10  19
ENDBRANCH   2  11
ENDBRANCH   1   5
BRANCH   1  20
ATOM     20  C   UNL     1      -3.504   4.578   6.712  0.00  0.00    +0.173 C 
BRANCH  20  21
ATOM     21  C   UNL     1      -2.806   4.216   5.426  0.00  0.00    +0.227 C 
ATOM     22  O   UNL     1      -2.000   4.979   4.938  0.00  0.00    -0.275 OA
ATOM     23  N   UNL     1      -3.077   3.043   4.819  0.00  0.00    -0.285 N 
ATOM     24  H   UNL     1      -3.870   2.390   5.214  0.00  0.00    +0.155 HD
BRANCH  23  25
ATOM     25  C   UNL     1      -2.351   2.656   3.688  0.00  0.00    +0.034 A 
ATOM     26  C   UNL     1      -1.014   3.011   3.565  0.00  0.00    +0.025 A 
ATOM     27  C   UNL     1      -0.299   2.627   2.447  0.00  0.00    +0.030 A 
ATOM     28  C   UNL     1      -0.914   1.891   1.451  0.00  0.00    +0.105 A 
ATOM     29  C   UNL     1      -2.247   1.541   1.568  0.00  0.00    +0.030 A 
ATOM     30  C   UNL     1      -2.965   1.917   2.686  0.00  0.00    +0.025 A 
BRANCH  28  31
ATOM     31  S   UNL     1       0.001   1.403   0.026  0.00  0.00    +0.058 S 
ATOM     32  O   UNL     1       1.076   2.324  -0.101  0.00  0.00    -0.153 OA
ATOM     33  O   UNL     1      -0.946   1.190  -1.011  0.00  0.00    -0.153 OA
BRANCH  31  34
ATOM     34  N   UNL     1       0.678  -0.071   0.360  0.00  0.00    -0.190 NA
ATOM     35  H   UNL     1       1.754  -0.131   0.580  0.00  0.00    +0.148 HD
BRANCH  34  36
ATOM     36  C   UNL     1      -0.180  -1.239   0.574  0.00  0.00    +0.102 C 
ATOM     37  C   UNL     1       0.663  -2.513   0.490  0.00  0.00    +0.022 C 
ENDBRANCH  34  36
ENDBRANCH  31  34
ENDBRANCH  28  31
ENDBRANCH  23  25
ENDBRANCH  20  21
ENDBRANCH   1  20
TORSDOF 10
