REMARK  Name = ZINC35457251
REMARK  14 active torsions:
REMARK  status: ('A' for Active; 'I' for Inactive)
REMARK    1  A    between atoms: C_1  and  C_2
REMARK    2  A    between atoms: C_6  and  O_44
REMARK    3  A    between atoms: C_10  and  C_43
REMARK    4  A    between atoms: C_13  and  C_18
REMARK    5  A    between atoms: C_23  and  C_42
REMARK    6  A    between atoms: C_25  and  O_38
REMARK    7  A    between atoms: C_28  and  C_29
REMARK    8  A    between atoms: C_28  and  C_35
REMARK    9  A    between atoms: C_29  and  C_30
REMARK   10  A    between atoms: C_30  and  C_31
REMARK   11  A    between atoms: C_32  and  C_33
REMARK   12  A    between atoms: C_32  and  C_34
REMARK   13  A    between atoms: O_38  and  C_39
REMARK   14  A    between atoms: C_39  and  C_41
REMARK                            x       y       z     vdW  Elec       q    Type
REMARK                         _______ _______ _______ _____ _____    ______ ____
ROOT
ATOM      1  C   UNL     1       0.246  -1.589   1.200  0.00  0.00    +0.016 C 
ATOM      2  C   UNL     1       0.254  -3.031   0.712  0.00  0.00    +0.059 C 
ATOM      3  C   UNL     1       0.791  -3.217  -0.692  0.00  0.00    +0.041 C 
ATOM      4  C   UNL     1       0.231  -2.213  -1.696  0.00  0.00    +0.185 C 
ATOM      5  C   UNL     1       0.509  -2.779  -3.083  0.00  0.00    +0.168 C 
ATOM      6  O   UNL     1      -0.235  -2.514  -4.005  0.00  0.00    -0.294 OA
ATOM      7  C   UNL     1       1.700  -3.684  -3.262  0.00  0.00    +0.038 C 
ATOM      8  C   UNL     1       2.778  -3.403  -2.229  0.00  0.00    +0.009 C 
ATOM      9  C   UNL     1       2.305  -3.283  -0.790  0.00  0.00    -0.022 C 
ATOM     10  C   UNL     1       2.810  -4.447   0.065  0.00  0.00    +0.015 C 
ATOM     11  C   UNL     1       2.457  -4.200   1.534  0.00  0.00    +0.075 C 
ATOM     12  C   UNL     1       0.980  -3.933   1.681  0.00  0.00    +0.137 C 
ATOM     13  O   UNL     1       0.364  -4.450   2.592  0.00  0.00    -0.297 OA
ATOM     14  C   UNL     1       2.946  -1.992  -0.257  0.00  0.00    +0.012 C 
ATOM     15  C   UNL     1       3.975  -4.337  -2.375  0.00  0.00    +0.005 C 
ATOM     16  C   UNL     1       4.579  -4.178  -3.787  0.00  0.00    +0.009 C 
ATOM     17  C   UNL     1       3.795  -3.112  -4.507  0.00  0.00    +0.026 C 
ATOM     18  C   UNL     1       2.309  -3.530  -4.645  0.00  0.00    -0.009 C 
ATOM     19  C   UNL     1       1.778  -2.384  -5.517  0.00  0.00    +0.057 C 
ATOM     20  C   UNL     1       2.931  -2.169  -6.539  0.00  0.00    +0.204 C 
ATOM     21  C   UNL     1       4.173  -2.819  -5.936  0.00  0.00    -0.016 C 
ATOM     22  C   UNL     1       5.332  -3.067  -6.535  0.00  0.00    +0.044 C 
ATOM     23  C   UNL     1       2.176  -4.856  -5.404  0.00  0.00    +0.013 C 
ATOM     24  C   UNL     1       1.230  -5.149  -3.165  0.00  0.00    +0.020 C 
ENDROOT
BRANCH  22  25
ATOM     25  C   UNL     1       6.379  -3.812  -5.828  0.00  0.00    +0.383 C 
ATOM     26  O   UNL     1       6.446  -5.028  -5.940  0.00  0.00    -0.241 OA
ATOM     27  O   UNL     1       7.185  -3.216  -5.126  0.00  0.00    -0.241 OA
ENDBRANCH  22  25
BRANCH   4  28
ATOM     28  O   UNL     1      -1.185  -2.081  -1.525  0.00  0.00    -0.384 OA
ATOM     29  H   UNL     1      -1.599  -1.456  -2.135  0.00  0.00    +0.210 HD
ENDBRANCH   4  28
BRANCH  22  30
ATOM     30  C   UNL     1       5.571  -2.582  -7.942  0.00  0.00    +0.046 C 
BRANCH  30  31
ATOM     31  C   UNL     1       6.285  -1.230  -7.901  0.00  0.00    +0.032 C 
BRANCH  31  32
ATOM     32  C   UNL     1       6.524  -0.745  -9.308  0.00  0.00    -0.028 C 
ATOM     33  C   UNL     1       7.729  -0.396  -9.685  0.00  0.00    -0.080 C 
ATOM     34  C   UNL     1       8.858  -0.391  -8.687  0.00  0.00    +0.038 C 
ATOM     35  C   UNL     1       7.986   0.000 -11.116  0.00  0.00    +0.038 C 
ENDBRANCH  31  32
ENDBRANCH  30  31
ENDBRANCH  22  30
BRANCH  20  36
ATOM     36  O   UNL     1       2.607  -2.782  -7.785  0.00  0.00    -0.457 OA
BRANCH  36  37
ATOM     37  C   UNL     1       1.864  -2.065  -8.642  0.00  0.00    +0.305 C 
ATOM     38  O   UNL     1       1.571  -0.922  -8.379  0.00  0.00    -0.251 OA
ATOM     39  C   UNL     1       1.393  -2.684  -9.933  0.00  0.00    +0.136 C 
ENDBRANCH  36  37
ENDBRANCH  20  36
TORSDOF 7
