REMARK  Name = ZINC38621808
REMARK  9 active torsions:
REMARK  status: ('A' for Active; 'I' for Inactive)
REMARK    1  A    between atoms: C_1  and  C_2
REMARK    2  A    between atoms: C_2  and  C_3
REMARK    3  A    between atoms: N_5  and  C_6
REMARK    4  A    between atoms: C_9  and  S_12
REMARK    5  A    between atoms: S_12  and  N_15
REMARK    6  A    between atoms: N_15  and  C_16
REMARK    7  A    between atoms: C_16  and  C_17
REMARK    8  A    between atoms: C_17  and  C_19
REMARK    9  A    between atoms: C_17  and  N_29
REMARK                            x       y       z     vdW  Elec       q    Type
REMARK                         _______ _______ _______ _____ _____    ______ ____
ROOT
ATOM      1  C   UNL     1      -7.424  -4.685  -2.433  0.00  0.00    +0.095 C 
ENDROOT
BRANCH   1   2
ATOM      2  N   UNL     1      -7.402  -5.825  -1.512  0.00  0.00    -0.191 NA
ATOM      3  H   UNL     1      -8.086  -6.509  -1.571  0.00  0.00    +0.148 HD
BRANCH   2   4
ATOM      4  S   UNL     1      -6.207  -5.943  -0.371  0.00  0.00    +0.058 S 
ATOM      5  O   UNL     1      -4.976  -5.729  -1.047  0.00  0.00    -0.153 OA
ATOM      6  O   UNL     1      -6.473  -7.125   0.373  0.00  0.00    -0.153 OA
BRANCH   4  10
ATOM      7  C   UNL     1      -6.735  -2.469   2.486  0.00  0.00    +0.033 A 
ATOM      8  C   UNL     1      -7.376  -3.676   2.733  0.00  0.00    +0.025 A 
ATOM      9  C   UNL     1      -7.213  -4.734   1.859  0.00  0.00    +0.030 A 
ATOM     10  C   UNL     1      -6.413  -4.592   0.741  0.00  0.00    +0.105 A 
ATOM     11  C   UNL     1      -5.773  -3.391   0.493  0.00  0.00    +0.030 A 
ATOM     12  C   UNL     1      -5.937  -2.328   1.359  0.00  0.00    +0.025 A 
BRANCH   7  15
ATOM     13  C   UNL     1      -6.949  -0.135   2.895  0.00  0.00    +0.217 C 
ATOM     14  O   UNL     1      -6.773   0.076   1.714  0.00  0.00    -0.275 OA
ATOM     15  N   UNL     1      -6.898  -1.396   3.369  0.00  0.00    -0.286 N 
ATOM     16  H   UNL     1      -6.975  -1.559   4.322  0.00  0.00    +0.155 HD
BRANCH  13  18
ATOM     17  C   UNL     1      -7.227   2.324   3.046  0.00  0.00    +0.013 C 
ATOM     18  C   UNL     1      -7.224   1.012   3.833  0.00  0.00    +0.093 C 
ENDBRANCH  13  18
ENDBRANCH   7  15
ENDBRANCH   4  10
ENDBRANCH   2   4
ENDBRANCH   1   2
BRANCH   1  19
ATOM     19  C   UNL     1      -8.339  -5.005  -3.617  0.00  0.00    -0.021 C 
BRANCH  19  20
ATOM     20  C   UNL     1      -7.774  -6.170  -4.388  0.00  0.00    -0.052 A 
ATOM     21  C   UNL     1      -8.283  -7.420  -4.208  0.00  0.00    +0.002 A 
ATOM     22  C   UNL     1      -7.774  -8.509  -4.912  0.00  0.00    +0.001 A 
ATOM     23  C   UNL     1      -6.753  -8.356  -5.799  0.00  0.00    +0.008 A 
ATOM     24  C   UNL     1      -6.202  -7.081  -6.011  0.00  0.00    -0.018 A 
ATOM     25  C   UNL     1      -6.724  -5.971  -5.300  0.00  0.00    -0.016 A 
ATOM     26  C   UNL     1      -6.177  -4.695  -5.516  0.00  0.00    +0.009 A 
ATOM     27  C   UNL     1      -5.160  -4.540  -6.408  0.00  0.00    +0.001 A 
ATOM     28  C   UNL     1      -4.652  -5.630  -7.112  0.00  0.00    +0.001 A 
ATOM     29  C   UNL     1      -5.147  -6.883  -6.918  0.00  0.00    +0.008 A 
ENDBRANCH  19  20
BRANCH  19  30
ATOM     30  N   UNL     1      -9.679  -5.348  -3.122  0.00  0.00    +0.385 N 
ATOM     31  C   UNL     1     -10.238  -4.220  -2.334  0.00  0.00    -0.078 C 
ATOM     32  C   UNL     1     -11.765  -4.478  -2.380  0.00  0.00    -0.020 C 
ATOM     33  C   UNL     1     -11.982  -5.014  -3.814  0.00  0.00    -0.020 C 
ATOM     34  C   UNL     1     -10.606  -5.546  -4.257  0.00  0.00    -0.078 C 
ATOM     35  H   UNL     1      -9.638  -6.182  -2.556  0.00  0.00    -0.081 HD
ENDBRANCH  19  30
ENDBRANCH   1  19
TORSDOF 8
