REMARK  Name = ZINC11867306
REMARK  11 active torsions:
REMARK  status: ('A' for Active; 'I' for Inactive)
REMARK    1  A    between atoms: C_1  and  C_2
REMARK    2  A    between atoms: C_2  and  C_3
REMARK    3  A    between atoms: C_5  and  C_19
REMARK    4  A    between atoms: C_6  and  O_18
REMARK    5  A    between atoms: C_8  and  O_9
REMARK    6  A    between atoms: O_9  and  C_10
REMARK    7  A    between atoms: C_10  and  C_11
REMARK    8  A    between atoms: C_15  and  C_17
REMARK    9  A    between atoms: C_20  and  C_26
REMARK   10  A    between atoms: C_21  and  N_25
REMARK   11  A    between atoms: C_28  and  C_31
REMARK                            x       y       z     vdW  Elec       q    Type
REMARK                         _______ _______ _______ _____ _____    ______ ____
ROOT
ATOM      1  C   UNL     1      -0.978   7.872  -3.304  0.00  0.00    -0.005 A 
ATOM      2  C   UNL     1      -0.828   9.243  -3.323  0.00  0.00    +0.021 A 
ATOM      3  C   UNL     1      -0.512   9.925  -2.150  0.00  0.00    +0.045 A 
ATOM      4  C   UNL     1      -0.353   9.216  -0.954  0.00  0.00    +0.130 A 
ATOM      5  C   UNL     1      -0.510   7.841  -0.944  0.00  0.00    +0.092 A 
ATOM      6  C   UNL     1      -0.825   7.169  -2.116  0.00  0.00    +0.128 A 
ENDROOT
BRANCH   3   7
ATOM      7  C   UNL     1      -0.345  11.398  -2.168  0.00  0.00    +0.108 A 
ATOM      8  C   UNL     1       0.548  12.161  -3.042  0.00  0.00    +0.074 A 
ATOM      9  C   UNL     1       0.373  13.496  -2.709  0.00  0.00    +0.122 A 
ATOM     10  N   UNL     1      -0.544  13.555  -1.720  0.00  0.00    -0.263 N 
ATOM     11  H   UNL     1      -0.864  14.394  -1.281  0.00  0.00    +0.190 HD
ATOM     12  N   UNL     1      -0.977  12.264  -1.406  0.00  0.00    -0.171 NA
BRANCH   8  13
ATOM     13  C   UNL     1       1.454  11.618  -4.071  0.00  0.00    +0.114 A 
ATOM     14  N   UNL     1       2.205  12.261  -4.956  0.00  0.00    -0.244 NA
ATOM     15  C   UNL     1       2.965  11.606  -5.807  0.00  0.00    +0.046 A 
ATOM     16  C   UNL     1       2.981  10.249  -5.795  0.00  0.00    +0.070 A 
ATOM     17  S   UNL     1       1.831   9.915  -4.466  0.00  0.00    -0.075 S 
ATOM     18  C   UNL     1       3.812  12.361  -6.798  0.00  0.00    +0.066 C 
ENDBRANCH   8  13
BRANCH   9  19
ATOM     19  N   UNL     1       1.023  14.575  -3.288  0.00  0.00    -0.343 N 
ATOM     20  H   UNL     1       1.669  14.429  -3.997  0.00  0.00    +0.144 HD
ATOM     21  H   UNL     1       0.832  15.476  -2.985  0.00  0.00    +0.144 HD
ENDBRANCH   9  19
ENDBRANCH   3   7
BRANCH   1  23
ATOM     22  C   UNL     1      -2.828   6.940  -4.666  0.00  0.00    +0.009 C 
ATOM     23  C   UNL     1      -1.314   7.136  -4.575  0.00  0.00    +0.035 C 
ENDBRANCH   1  23
BRANCH   4  24
ATOM     24  O   UNL     1      -0.046   9.875   0.194  0.00  0.00    -0.506 OA
ATOM     25  H   UNL     1       0.900   9.896   0.394  0.00  0.00    +0.292 HD
ENDBRANCH   4  24
BRANCH   6  26
ATOM     26  O   UNL     1      -0.979   5.819  -2.104  0.00  0.00    -0.487 OA
BRANCH  26  27
ATOM     27  C   UNL     1      -0.802   5.158  -0.849  0.00  0.00    +0.264 C 
BRANCH  27  28
ATOM     28  C   UNL     1      -1.010   3.676  -1.029  0.00  0.00    -0.010 A 
ATOM     29  C   UNL     1       0.061   2.862  -1.346  0.00  0.00    +0.007 A 
ATOM     30  C   UNL     1      -0.130   1.502  -1.511  0.00  0.00    +0.001 A 
ATOM     31  C   UNL     1      -1.391   0.958  -1.357  0.00  0.00    +0.003 A 
ATOM     32  C   UNL     1      -2.463   1.773  -1.046  0.00  0.00    -0.050 A 
ATOM     33  C   UNL     1      -2.271   3.132  -0.876  0.00  0.00    +0.010 A 
ATOM     34  C   UNL     1      -3.839   1.181  -0.885  0.00  0.00    +0.044 C 
ENDBRANCH  27  28
ENDBRANCH  26  27
ENDBRANCH   6  26
TORSDOF 8
