REMARK  Name = ZINC10257143
REMARK  10 active torsions:
REMARK  status: ('A' for Active; 'I' for Inactive)
REMARK    1  A    between atoms: C_1  and  O_2
REMARK    2  A    between atoms: O_2  and  C_3
REMARK    3  A    between atoms: C_3  and  C_5
REMARK    4  A    between atoms: C_5  and  C_7
REMARK    5  A    between atoms: C_5  and  N_18
REMARK    6  A    between atoms: C_7  and  C_8
REMARK    7  A    between atoms: C_19  and  C_21
REMARK    8  A    between atoms: C_21  and  C_23
REMARK    9  A    between atoms: N_25  and  C_32
REMARK   10  A    between atoms: C_32  and  C_33
REMARK                            x       y       z     vdW  Elec       q    Type
REMARK                         _______ _______ _______ _____ _____    ______ ____
ROOT
ATOM      1  N   UNL     1      -5.135   6.410   0.082  0.00  0.00    -0.295 N 
ATOM      2  C   UNL     1      -4.649   5.153   0.071  0.00  0.00    +0.285 C 
ATOM      3  O   UNL     1      -5.410   4.208   0.073  0.00  0.00    -0.267 OA
ATOM      4  H   UNL     1      -4.527   7.166   0.080  0.00  0.00    +0.150 HD
ENDROOT
BRANCH   2   5
ATOM      5  C   UNL     1      -3.175   4.924   0.056  0.00  0.00    +0.249 C 
ATOM      6  O   UNL     1      -2.412   5.870   0.054  0.00  0.00    -0.282 OA
BRANCH   5   7
ATOM      7  C   UNL     1      -2.647   3.560   0.045  0.00  0.00    +0.052 A 
ATOM      8  C   UNL     1      -3.378   2.387   0.031  0.00  0.00    +0.099 A 
ATOM      9  N   UNL     1      -2.541   1.334   0.022  0.00  0.00    -0.337 N 
ATOM     10  C   UNL     1      -1.226   1.755   0.017  0.00  0.00    +0.050 A 
ATOM     11  C   UNL     1      -1.227   3.159   0.030  0.00  0.00    +0.011 A 
ATOM     12  C   UNL     1      -0.025   3.860   0.022  0.00  0.00    +0.011 A 
ATOM     13  C   UNL     1       1.168   3.168   0.007  0.00  0.00    +0.001 A 
ATOM     14  C   UNL     1       1.172   1.782   0.000  0.00  0.00    +0.002 A 
ATOM     15  C   UNL     1      -0.013   1.076   0.008  0.00  0.00    +0.026 A 
BRANCH   9  16
ATOM     16  C   UNL     1      -2.967  -0.068   0.017  0.00  0.00    +0.217 C 
BRANCH  16  17
ATOM     17  C   UNL     1      -2.987  -0.591   1.430  0.00  0.00    +0.235 C 
ATOM     18  O   UNL     1      -2.677   0.136   2.350  0.00  0.00    -0.274 OA
ATOM     19  N   UNL     1      -3.350  -1.866   1.671  0.00  0.00    -0.300 N 
ATOM     20  C   UNL     1      -3.735  -2.757   0.568  0.00  0.00    +0.108 C 
ATOM     21  C   UNL     1      -2.882  -4.032   0.649  0.00  0.00    +0.019 C 
ATOM     22  C   UNL     1      -3.036  -4.653   2.040  0.00  0.00    +0.003 C 
ATOM     23  C   UNL     1      -2.532  -3.669   3.098  0.00  0.00    +0.019 C 
ATOM     24  C   UNL     1      -3.375  -2.391   3.043  0.00  0.00    +0.108 C 
ENDBRANCH  16  17
ENDBRANCH   9  16
ENDBRANCH   5   7
ENDBRANCH   2   5
BRANCH   1  25
ATOM     25  C   UNL     1      -6.582   6.636   0.096  0.00  0.00    +0.186 C 
BRANCH  25  26
ATOM     26  C   UNL     1      -7.085   6.584   1.516  0.00  0.00    +0.328 C 
ATOM     27  O   UNL     1      -6.313   6.379   2.422  0.00  0.00    -0.249 OA
BRANCH  26  29
ATOM     28  C   UNL     1      -8.803   6.701   3.163  0.00  0.00    +0.280 C 
ATOM     29  O   UNL     1      -8.390   6.764   1.773  0.00  0.00    -0.467 OA
ENDBRANCH  26  29
ENDBRANCH  25  26
BRANCH  25  30
ATOM     30  C   UNL     1      -6.891   8.009  -0.504  0.00  0.00    +0.071 C 
BRANCH  30  31
ATOM     31  C   UNL     1      -6.500   8.021  -1.960  0.00  0.00    -0.020 A 
ATOM     32  C   UNL     1      -5.339   8.459  -2.471  0.00  0.00    +0.087 A 
ATOM     33  N   UNL     1      -5.342   8.311  -3.831  0.00  0.00    -0.360 N 
ATOM     34  H   UNL     1      -4.612   8.556  -4.420  0.00  0.00    +0.165 HD
ATOM     35  C   UNL     1      -6.540   7.767  -4.239  0.00  0.00    +0.047 A 
ATOM     36  C   UNL     1      -7.317   7.561  -3.085  0.00  0.00    +0.003 A 
ATOM     37  C   UNL     1      -8.596   7.013  -3.195  0.00  0.00    +0.010 A 
ATOM     38  C   UNL     1      -9.087   6.679  -4.426  0.00  0.00    +0.001 A 
ATOM     39  C   UNL     1      -8.325   6.880  -5.568  0.00  0.00    +0.002 A 
ATOM     40  C   UNL     1      -7.059   7.420  -5.482  0.00  0.00    +0.026 A 
ENDBRANCH  30  31
ENDBRANCH  25  30
ENDBRANCH   1  25
TORSDOF 9
