REMARK  Name = ZINC45961881
REMARK  9 active torsions:
REMARK  status: ('A' for Active; 'I' for Inactive)
REMARK    1  A    between atoms: C_1  and  C_2
REMARK    2  A    between atoms: C_2  and  C_3
REMARK    3  A    between atoms: C_2  and  C_4
REMARK    4  A    between atoms: C_2  and  C_5
REMARK    5  A    between atoms: C_8  and  S_11
REMARK    6  A    between atoms: S_11  and  N_14
REMARK    7  A    between atoms: N_14  and  C_15
REMARK    8  A    between atoms: C_16  and  N_26
REMARK    9  A    between atoms: N_26  and  C_27
REMARK                            x       y       z     vdW  Elec       q    Type
REMARK                         _______ _______ _______ _____ _____    ______ ____
ROOT
ATOM      1  C   UNL     1       3.293   0.931  -5.561  0.00  0.00    +0.154 A 
ATOM      2  C   UNL     1       4.011   0.740  -4.395  0.00  0.00    +0.068 A 
ATOM      3  C   UNL     1       4.428   1.932  -3.641  0.00  0.00    +0.040 A 
ATOM      4  C   UNL     1       5.156   1.814  -2.455  0.00  0.00    +0.013 A 
ATOM      5  C   UNL     1       5.533   2.949  -1.772  0.00  0.00    +0.001 A 
ATOM      6  C   UNL     1       5.192   4.203  -2.257  0.00  0.00    +0.004 A 
ATOM      7  C   UNL     1       4.473   4.333  -3.426  0.00  0.00    +0.047 A 
ATOM      8  C   UNL     1       4.084   3.201  -4.131  0.00  0.00    +0.141 A 
ATOM      9  O   UNL     1       3.380   3.314  -5.278  0.00  0.00    -0.421 OA
ATOM     10  C   UNL     1       2.995   2.239  -5.984  0.00  0.00    +0.362 A 
ATOM     11  O   UNL     1       2.367   2.401  -7.016  0.00  0.00    -0.243 OA
ENDROOT
BRANCH   1  12
ATOM     12  N   UNL     1       2.869  -0.173  -6.322  0.00  0.00    -0.208 N 
ATOM     13  H   UNL     1       3.154  -1.068  -6.080  0.00  0.00    +0.174 HD
BRANCH  12  14
ATOM     14  S   UNL     1       1.881   0.054  -7.632  0.00  0.00    +0.073 S 
ATOM     15  O   UNL     1       0.825   0.901  -7.202  0.00  0.00    -0.150 OA
ATOM     16  O   UNL     1       1.647  -1.231  -8.192  0.00  0.00    -0.150 OA
BRANCH  14  20
ATOM     17  C   UNL     1       4.246   2.391 -10.704  0.00  0.00    -0.042 A 
ATOM     18  C   UNL     1       4.710   1.167 -10.260  0.00  0.00    +0.006 A 
ATOM     19  C   UNL     1       3.987   0.453  -9.322  0.00  0.00    +0.029 A 
ATOM     20  C   UNL     1       2.802   0.964  -8.827  0.00  0.00    +0.109 A 
ATOM     21  C   UNL     1       2.339   2.188  -9.270  0.00  0.00    +0.029 A 
ATOM     22  C   UNL     1       3.063   2.904 -10.205  0.00  0.00    +0.006 A 
BRANCH  17  24
ATOM     23  C   UNL     1       5.436   4.522 -11.138  0.00  0.00    +0.015 C 
ATOM     24  C   UNL     1       5.033   3.169 -11.727  0.00  0.00    -0.013 C 
ATOM     25  C   UNL     1       4.172   3.390 -12.972  0.00  0.00    +0.015 C 
ATOM     26  C   UNL     1       6.290   2.384 -12.108  0.00  0.00    +0.015 C 
ENDBRANCH  17  24
ENDBRANCH  14  20
ENDBRANCH  12  14
ENDBRANCH   1  12
BRANCH   2  27
ATOM     27  N   UNL     1       4.326  -0.533  -3.951  0.00  0.00    -0.339 N 
ATOM     28  H   UNL     1       3.619  -1.162  -3.741  0.00  0.00    +0.146 HD
BRANCH  27  29
ATOM     29  C   UNL     1       5.729  -0.929  -3.799  0.00  0.00    +0.070 C 
ATOM     30  C   UNL     1       6.142  -1.864  -4.954  0.00  0.00    +0.022 C 
ATOM     31  C   UNL     1       7.091  -2.892  -4.289  0.00  0.00    +0.002 C 
ATOM     32  C   UNL     1       6.430  -3.123  -2.908  0.00  0.00    +0.002 C 
ATOM     33  C   UNL     1       5.912  -1.729  -2.498  0.00  0.00    +0.022 C 
ENDBRANCH  27  29
ENDBRANCH   2  27
TORSDOF 6
