REMARK  Name = ZINC02188615
REMARK  8 active torsions:
REMARK  status: ('A' for Active; 'I' for Inactive)
REMARK    1  A    between atoms: C_1  and  C_2
REMARK    2  A    between atoms: C_2  and  O_3
REMARK    3  A    between atoms: O_3  and  C_4
REMARK    4  A    between atoms: C_4  and  C_6
REMARK    5  A    between atoms: C_7  and  N_35
REMARK    6  A    between atoms: N_8  and  C_25
REMARK    7  A    between atoms: C_11  and  C_13
REMARK    8  A    between atoms: C_30  and  C_31
REMARK                            x       y       z     vdW  Elec       q    Type
REMARK                         _______ _______ _______ _____ _____    ______ ____
ROOT
ATOM      1  C   UNL     1      -0.691   1.901   3.942  0.00  0.00    +0.084 C 
ATOM      2  C   UNL     1      -0.311   1.195   5.042  0.00  0.00    +0.103 C 
ATOM      3  N   UNL     1      -0.892   1.452   6.260  0.00  0.00    -0.260 N 
ATOM      4  C   UNL     1      -2.102   2.093   6.333  0.00  0.00    +0.024 C 
ATOM      5  C   UNL     1      -2.558   2.821   5.293  0.00  0.00    +0.025 C 
ATOM      6  C   UNL     1      -1.745   2.965   4.031  0.00  0.00    +0.094 C 
ATOM      7  C   UNL     1      -3.806   3.467   5.352  0.00  0.00    +0.162 C 
ATOM      8  O   UNL     1      -4.183   4.125   4.402  0.00  0.00    -0.292 OA
ATOM      9  C   UNL     1      -4.683   3.361   6.569  0.00  0.00    +0.080 C 
ATOM     10  C   UNL     1      -4.401   2.028   7.271  0.00  0.00    +0.014 C 
ATOM     11  C   UNL     1      -2.908   1.960   7.601  0.00  0.00    +0.052 C 
ENDROOT
BRANCH   6  12
ATOM     12  C   UNL     1      -1.083   4.319   4.021  0.00  0.00    -0.035 A 
ATOM     13  C   UNL     1      -0.123   4.625   4.968  0.00  0.00    +0.006 A 
ATOM     14  C   UNL     1       0.489   5.865   4.957  0.00  0.00    +0.020 A 
ATOM     15  C   UNL     1       0.132   6.803   4.004  0.00  0.00    +0.041 A 
ATOM     16  C   UNL     1      -0.832   6.498   3.060  0.00  0.00    +0.020 A 
ATOM     17  C   UNL     1      -1.439   5.256   3.070  0.00  0.00    +0.006 A 
ATOM     18 CL   UNL     1       0.895   8.362   3.994  0.00  0.00    -0.084 Cl
ENDBRANCH   6  12
BRANCH   3  19
ATOM     19  C   UNL     1      -0.247   1.053   7.437  0.00  0.00    +0.051 A 
ATOM     20  C   UNL     1       0.547   1.953   8.135  0.00  0.00    +0.024 A 
ATOM     21  C   UNL     1       1.182   1.556   9.295  0.00  0.00    +0.002 A 
ATOM     22  C   UNL     1       1.028   0.263   9.762  0.00  0.00    +0.001 A 
ATOM     23  C   UNL     1       0.238  -0.636   9.069  0.00  0.00    +0.014 A 
ATOM     24  C   UNL     1      -0.404  -0.243   7.911  0.00  0.00    +0.076 A 
BRANCH  24  25
ATOM     25  C   UNL     1      -1.269  -1.222   7.160  0.00  0.00    +0.419 C 
ATOM     26  F   UNL     1      -1.242  -2.461   7.808  0.00  0.00    -0.166 F 
ATOM     27  F   UNL     1      -2.584  -0.745   7.118  0.00  0.00    -0.166 F 
ATOM     28  F   UNL     1      -0.785  -1.367   5.855  0.00  0.00    -0.166 F 
ENDBRANCH  24  25
ENDBRANCH   3  19
BRANCH   2  29
ATOM     29  N   UNL     1       0.655   0.228   4.935  0.00  0.00    -0.346 N 
ATOM     30  H   UNL     1       1.276   0.080   5.665  0.00  0.00    +0.143 HD
ATOM     31  H   UNL     1       0.718  -0.308   4.129  0.00  0.00    +0.143 HD
ENDBRANCH   2  29
BRANCH   1  32
ATOM     32  C   UNL     1      -0.091   1.627   2.704  0.00  0.00    +0.339 C 
ATOM     33  O   UNL     1       0.837   0.840   2.639  0.00  0.00    -0.245 OA
BRANCH  32  34
ATOM     34  O   UNL     1      -0.542   2.234   1.585  0.00  0.00    -0.462 OA
BRANCH  34  36
ATOM     35  C   UNL     1      -0.528   2.686  -0.788  0.00  0.00    +0.048 C 
ATOM     36  C   UNL     1       0.116   1.907   0.360  0.00  0.00    +0.229 C 
ENDBRANCH  34  36
ENDBRANCH  32  34
ENDBRANCH   1  32
TORSDOF 7
