REMARK  Name = ZINC22508100
REMARK  12 active torsions:
REMARK  status: ('A' for Active; 'I' for Inactive)
REMARK    1  A    between atoms: C_1  and  C_2
REMARK    2  A    between atoms: C_4  and  C_25
REMARK    3  A    between atoms: C_6  and  C_21
REMARK    4  A    between atoms: C_10  and  C_11
REMARK    5  A    between atoms: N_13  and  N_14
REMARK    6  A    between atoms: C_15  and  C_17
REMARK    7  A    between atoms: C_17  and  C_18
REMARK    8  A    between atoms: C_18  and  C_19
REMARK    9  A    between atoms: C_18  and  C_20
REMARK   10  A    between atoms: C_21  and  C_22
REMARK   11  A    between atoms: C_21  and  C_23
REMARK   12  A    between atoms: C_21  and  C_24
REMARK                            x       y       z     vdW  Elec       q    Type
REMARK                         _______ _______ _______ _____ _____    ______ ____
ROOT
ATOM      1  C   UNL     1       4.815   0.018  -0.535  0.00  0.00    +0.046 C 
ATOM      2  C   UNL     1       3.452  -0.623  -0.481  0.00  0.00    -0.020 A 
ATOM      3  C   UNL     1       2.321   0.153  -0.180  0.00  0.00    +0.032 A 
ATOM      4  C   UNL     1       2.232   1.539   0.103  0.00  0.00    +0.050 A 
ATOM      5  N   UNL     1       1.058   2.070   0.362  0.00  0.00    -0.236 NA
ATOM      6  C   UNL     1      -0.056   1.358   0.369  0.00  0.00    +0.136 A 
ATOM      7  N   UNL     1      -0.045   0.064   0.115  0.00  0.00    -0.224 NA
ATOM      8  C   UNL     1       1.087  -0.548  -0.154  0.00  0.00    +0.113 A 
ATOM      9  S   UNL     1       1.558  -2.214  -0.543  0.00  0.00    -0.064 S 
ATOM     10  C   UNL     1       3.314  -1.953  -0.724  0.00  0.00    +0.081 A 
ATOM     11  C   UNL     1       3.472   2.396   0.107  0.00  0.00    +0.066 C 
ENDROOT
BRANCH  10  12
ATOM     12  C   UNL     1       4.356  -2.936  -1.055  0.00  0.00    +0.267 C 
ATOM     13  O   UNL     1       5.518  -2.585  -1.140  0.00  0.00    -0.268 OA
ATOM     14  N   UNL     1       4.024  -4.225  -1.264  0.00  0.00    -0.230 N 
ATOM     15  H   UNL     1       2.974  -4.543  -1.187  0.00  0.00    +0.173 HD
BRANCH  14  16
ATOM     16  N   UNL     1       5.017  -5.162  -1.579  0.00  0.00    -0.234 N 
ATOM     17  C   UNL     1       4.686  -6.451  -1.788  0.00  0.00    +0.229 C 
ATOM     18  O   UNL     1       3.527  -6.801  -1.704  0.00  0.00    -0.274 OA
ATOM     19  H   UNL     1       6.068  -4.845  -1.656  0.00  0.00    +0.173 HD
BRANCH  17  20
ATOM     20  C   UNL     1       5.754  -7.459  -2.128  0.00  0.00    +0.100 C 
BRANCH  20  21
ATOM     21  C   UNL     1       5.115  -8.837  -2.313  0.00  0.00    -0.008 C 
ATOM     22  C   UNL     1       6.178  -9.833  -2.779  0.00  0.00    +0.008 C 
ATOM     23  C   UNL     1       4.522  -9.307  -0.984  0.00  0.00    +0.008 C 
ENDBRANCH  20  21
ENDBRANCH  17  20
ENDBRANCH  14  16
ENDBRANCH  10  12
BRANCH   6  24
ATOM     24  C   UNL     1      -1.366   2.040   0.668  0.00  0.00    +0.022 C 
ATOM     25  C   UNL     1      -2.500   1.014   0.612  0.00  0.00    +0.019 C 
ATOM     26  C   UNL     1      -1.310   2.661   2.066  0.00  0.00    +0.019 C 
ATOM     27  C   UNL     1      -1.618   3.137  -0.368  0.00  0.00    +0.019 C 
ENDBRANCH   6  24
TORSDOF 5
