REMARK  Name = ZINC26921458
REMARK  13 active torsions:
REMARK  status: ('A' for Active; 'I' for Inactive)
REMARK    1  A    between atoms: C_1  and  C_2
REMARK    2  A    between atoms: C_2  and  C_3
REMARK    3  A    between atoms: C_3  and  N_4
REMARK    4  A    between atoms: N_4  and  C_5
REMARK    5  A    between atoms: N_4  and  C_16
REMARK    6  A    between atoms: C_5  and  C_6
REMARK    7  A    between atoms: N_8  and  C_9
REMARK    8  A    between atoms: C_14  and  C_15
REMARK    9  A    between atoms: C_16  and  C_17
REMARK   10  A    between atoms: N_19  and  N_20
REMARK   11  A    between atoms: C_23  and  C_27
REMARK   12  A    between atoms: C_23  and  C_29
REMARK   13  A    between atoms: C_27  and  C_28
REMARK                            x       y       z     vdW  Elec       q    Type
REMARK                         _______ _______ _______ _____ _____    ______ ____
ROOT
ATOM      1  C   UNL     1       8.210   3.009   0.423  0.00  0.00    +0.213 C 
ATOM      2  O   UNL     1       7.917   4.186   0.382  0.00  0.00    -0.276 OA
ATOM      3  N   UNL     1       9.486   2.640   0.649  0.00  0.00    -0.225 N 
ATOM      4  H   UNL     1       9.752   1.573   0.686  0.00  0.00    +0.173 HD
ENDROOT
BRANCH   3   5
ATOM      5  N   UNL     1      10.475   3.615   0.838  0.00  0.00    -0.137 N 
ATOM      6  C   UNL     1      11.015   3.923   2.033  0.00  0.00    +0.268 C 
ATOM      7  O   UNL     1      10.748   3.429   3.107  0.00  0.00    -0.271 OA
ATOM      8  C   UNL     1      12.027   5.017   1.756  0.00  0.00    +0.139 C 
ATOM      9  N   UNL     1      11.930   5.217   0.299  0.00  0.00    -0.280 N 
ATOM     10  C   UNL     1      11.002   4.351  -0.147  0.00  0.00    +0.327 C 
ATOM     11  O   UNL     1      10.678   4.250  -1.314  0.00  0.00    -0.251 OA
ATOM     12  H   UNL     1      12.561   5.970  -0.196  0.00  0.00    +0.152 HD
BRANCH   8  13
ATOM     13  C   UNL     1      13.413   4.567   2.141  0.00  0.00    -0.015 A 
ATOM     14  C   UNL     1      13.890   4.813   3.415  0.00  0.00    +0.006 A 
ATOM     15  C   UNL     1      15.159   4.396   3.770  0.00  0.00    +0.000 A 
ATOM     16  C   UNL     1      15.956   3.743   2.848  0.00  0.00    +0.000 A 
ATOM     17  C   UNL     1      15.481   3.502   1.572  0.00  0.00    +0.000 A 
ATOM     18  C   UNL     1      14.210   3.914   1.219  0.00  0.00    +0.006 A 
ENDBRANCH   8  13
BRANCH   8  19
ATOM     19  C   UNL     1      11.652   6.299   2.501  0.00  0.00    +0.037 C 
ATOM     20  C   UNL     1      10.265   6.762   2.053  0.00  0.00    +0.007 C 
ENDBRANCH   8  19
ENDBRANCH   3   5
BRANCH   1  21
ATOM     21  C   UNL     1       7.147   1.961   0.219  0.00  0.00    +0.021 C 
BRANCH  21  22
ATOM     22  N   UNL     1       5.851   2.615  -0.008  0.00  0.00    +0.391 N 
ATOM     23  H   UNL     1       5.688   3.334   0.809  0.00  0.00    -0.080 HD
BRANCH  22  24
ATOM     24  C   UNL     1       5.853   3.361  -1.273  0.00  0.00    -0.078 C 
BRANCH  24  26
ATOM     25  C   UNL     1       4.675   5.118  -2.603  0.00  0.00    +0.002 C 
ATOM     26  C   UNL     1       4.737   4.408  -1.249  0.00  0.00    -0.022 C 
ENDBRANCH  24  26
ENDBRANCH  22  24
BRANCH  22  27
ATOM     27  C   UNL     1       4.755   1.637   0.026  0.00  0.00    +0.020 C 
BRANCH  27  28
ATOM     28  C   UNL     1       4.469   1.253   1.455  0.00  0.00    +0.201 C 
ATOM     29  O   UNL     1       5.041   1.819   2.362  0.00  0.00    -0.278 OA
ATOM     30  N   UNL     1       3.576   0.280   1.724  0.00  0.00    -0.287 N 
ATOM     31  H   UNL     1       3.119  -0.290   0.902  0.00  0.00    +0.155 HD
BRANCH  30  32
ATOM     32  C   UNL     1       3.232  -0.006   3.050  0.00  0.00    +0.036 A 
ATOM     33  C   UNL     1       4.143   0.227   4.072  0.00  0.00    +0.023 A 
ATOM     34  C   UNL     1       3.800  -0.055   5.379  0.00  0.00    +0.002 A 
ATOM     35  C   UNL     1       2.550  -0.569   5.672  0.00  0.00    +0.000 A 
ATOM     36  C   UNL     1       1.638  -0.797   4.658  0.00  0.00    +0.005 A 
ATOM     37  C   UNL     1       1.977  -0.522   3.348  0.00  0.00    -0.029 A 
ATOM     38  C   UNL     1       0.985  -0.776   2.242  0.00  0.00    +0.045 C 
ENDBRANCH  30  32
ENDBRANCH  27  28
ENDBRANCH  22  27
ENDBRANCH  21  22
ENDBRANCH   1  21
TORSDOF 10
