REMARK  Name = ZINC03290475
REMARK  9 active torsions:
REMARK  status: ('A' for Active; 'I' for Inactive)
REMARK    1  A    between atoms: C_1  and  C_2
REMARK    2  A    between atoms: C_4  and  C_37
REMARK    3  A    between atoms: C_6  and  N_8
REMARK    4  A    between atoms: C_9  and  C_11
REMARK    5  A    between atoms: C_11  and  C_13
REMARK    6  A    between atoms: C_11  and  S_19
REMARK    7  A    between atoms: S_19  and  C_20
REMARK    8  A    between atoms: N_33  and  C_34
REMARK    9  A    between atoms: C_34  and  C_35
REMARK                            x       y       z     vdW  Elec       q    Type
REMARK                         _______ _______ _______ _____ _____    ______ ____
ROOT
ATOM      1  C   UNL     1       0.080   1.002  -0.098  0.00  0.00    +0.170 C 
ENDROOT
BRANCH   1   2
ATOM      2  C   UNL     1      -0.497   1.659   1.130  0.00  0.00    -0.025 A 
ATOM      3  C   UNL     1      -0.472   3.036   1.253  0.00  0.00    +0.005 A 
ATOM      4  C   UNL     1      -1.005   3.639   2.377  0.00  0.00    +0.000 A 
ATOM      5  C   UNL     1      -1.555   2.864   3.382  0.00  0.00    +0.000 A 
ATOM      6  C   UNL     1      -1.575   1.487   3.261  0.00  0.00    +0.000 A 
ATOM      7  C   UNL     1      -1.046   0.885   2.135  0.00  0.00    +0.005 A 
ENDBRANCH   1   2
BRANCH   1   9
ATOM      8  N   UNL     1      -1.854   0.954  -1.639  0.00  0.00    -0.284 N 
ATOM      9  C   UNL     1      -0.657   1.486  -1.320  0.00  0.00    +0.235 C 
ATOM     10  O   UNL     1      -0.174   2.353  -2.016  0.00  0.00    -0.274 OA
ATOM     11  H   UNL     1      -2.205   0.208  -1.127  0.00  0.00    +0.155 HD
BRANCH   8  17
ATOM     12  C   UNL     1      -4.971   0.254  -5.376  0.00  0.00    +0.044 C 
ATOM     13  C   UNL     1      -4.108   1.161  -4.536  0.00  0.00    -0.048 A 
ATOM     14  C   UNL     1      -4.044   2.512  -4.822  0.00  0.00    +0.006 A 
ATOM     15  C   UNL     1      -3.254   3.348  -4.053  0.00  0.00    -0.048 A 
ATOM     16  C   UNL     1      -2.527   2.834  -2.997  0.00  0.00    +0.026 A 
ATOM     17  C   UNL     1      -2.589   1.477  -2.708  0.00  0.00    +0.034 A 
ATOM     18  C   UNL     1      -3.378   0.640  -3.486  0.00  0.00    +0.026 A 
ATOM     19  C   UNL     1      -3.187   4.820  -4.368  0.00  0.00    +0.044 C 
ENDBRANCH   8  17
ENDBRANCH   1   9
BRANCH   1  20
ATOM     20  S   UNL     1       1.837   1.430  -0.243  0.00  0.00    -0.068 S 
BRANCH  20  21
ATOM     21  C   UNL     1       2.577   0.679   1.169  0.00  0.00    +0.199 A 
ATOM     22  N   UNL     1       1.952  -0.015   2.088  0.00  0.00    -0.120 NA
ATOM     23  N   UNL     1       2.898  -0.437   3.031  0.00  0.00    -0.109 NA
ATOM     24  C   UNL     1       4.074   0.021   2.663  0.00  0.00    +0.240 A 
ATOM     25  N   UNL     1       3.904   0.723   1.501  0.00  0.00    -0.256 N 
ATOM     26  C   UNL     1       4.992   1.328   0.874  0.00  0.00    +0.064 A 
ATOM     27  C   UNL     1       4.831   2.041  -0.304  0.00  0.00    +0.027 A 
ATOM     28  C   UNL     1       5.926   2.629  -0.906  0.00  0.00    +0.002 A 
ATOM     29  C   UNL     1       7.187   2.513  -0.343  0.00  0.00    +0.001 A 
ATOM     30  C   UNL     1       7.365   1.807   0.828  0.00  0.00    +0.015 A 
ATOM     31  C   UNL     1       6.268   1.209   1.445  0.00  0.00    +0.064 A 
ATOM     32  C   UNL     1       6.417   0.445   2.697  0.00  0.00    +0.263 A 
ATOM     33  O   UNL     1       7.508   0.321   3.221  0.00  0.00    -0.267 OA
ATOM     34  N   UNL     1       5.322  -0.114   3.252  0.00  0.00    -0.273 N 
BRANCH  34  35
ATOM     35  C   UNL     1       5.454  -0.876   4.496  0.00  0.00    +0.155 C 
BRANCH  35  36
ATOM     36  C   UNL     1       5.725  -2.322   4.173  0.00  0.00    -0.013 C 
ATOM     37  C   UNL     1       6.777  -2.920   4.676  0.00  0.00    +0.005 C 
ENDBRANCH  35  36
ENDBRANCH  34  35
ENDBRANCH  20  21
ENDBRANCH   1  20
TORSDOF 7
