REMARK  Name = ZINC21364817
REMARK  13 active torsions:
REMARK  status: ('A' for Active; 'I' for Inactive)
REMARK    1  A    between atoms: C_1  and  C_2
REMARK    2  A    between atoms: C_2  and  C_3
REMARK    3  A    between atoms: C_3  and  C_4
REMARK    4  A    between atoms: C_4  and  N_5
REMARK    5  A    between atoms: N_5  and  C_6
REMARK    6  A    between atoms: N_5  and  C_8
REMARK    7  A    between atoms: C_6  and  C_7
REMARK    8  A    between atoms: C_8  and  C_9
REMARK    9  A    between atoms: C_9  and  N_10
REMARK   10  A    between atoms: C_16  and  C_31
REMARK   11  A    between atoms: C_19  and  C_20
REMARK   12  A    between atoms: C_19  and  C_21
REMARK   13  A    between atoms: N_23  and  C_24
REMARK                            x       y       z     vdW  Elec       q    Type
REMARK                         _______ _______ _______ _____ _____    ______ ____
ROOT
ATOM      1  N   UNL     1      -6.062   4.359  -0.305  0.00  0.00    -0.282 N 
ATOM      2  C   UNL     1      -5.290   5.354  -0.797  0.00  0.00    +0.264 C 
ATOM      3  O   UNL     1      -5.699   6.498  -0.886  0.00  0.00    -0.268 OA
ATOM      4  C   UNL     1      -3.940   4.981  -1.232  0.00  0.00    +0.105 A 
ATOM      5  C   UNL     1      -2.875   5.752  -1.605  0.00  0.00    +0.033 A 
ATOM      6  C   UNL     1      -1.829   4.887  -1.932  0.00  0.00    +0.032 A 
ATOM      7  C   UNL     1      -2.282   3.589  -1.753  0.00  0.00    +0.085 A 
ATOM      8  N   UNL     1      -3.572   3.644  -1.340  0.00  0.00    -0.331 N 
ATOM      9  C   UNL     1      -4.513   2.561  -1.040  0.00  0.00    +0.157 C 
ATOM     10  C   UNL     1      -5.514   3.044   0.009  0.00  0.00    +0.128 C 
ATOM     11  C   UNL     1      -6.663   2.038   0.099  0.00  0.00    +0.043 C 
ENDROOT
BRANCH   7  12
ATOM     12  C   UNL     1      -1.501   2.365  -1.978  0.00  0.00    +0.151 A 
ATOM     13  C   UNL     1      -0.178   2.308  -2.306  0.00  0.00    +0.051 A 
ATOM     14  C   UNL     1       0.151   0.945  -2.423  0.00  0.00    +0.042 A 
ATOM     15  C   UNL     1      -0.971   0.242  -2.165  0.00  0.00    +0.196 A 
ATOM     16  O   UNL     1      -1.967   1.102  -1.902  0.00  0.00    -0.461 OA
ENDBRANCH   7  12
BRANCH  10  17
ATOM     17  C   UNL     1      -4.823   3.114   1.347  0.00  0.00    +0.238 C 
ATOM     18  O   UNL     1      -4.898   2.180   2.117  0.00  0.00    -0.273 OA
ATOM     19  N   UNL     1      -4.122   4.213   1.686  0.00  0.00    -0.311 N 
ATOM     20  H   UNL     1      -4.053   5.060   0.988  0.00  0.00    +0.149 HD
BRANCH  19  21
ATOM     21  C   UNL     1      -3.450   4.281   2.986  0.00  0.00    +0.073 C 
ATOM     22  C   UNL     1      -4.468   4.735   4.052  0.00  0.00    +0.022 C 
ATOM     23  C   UNL     1      -3.957   4.322   5.407  0.00  0.00    +0.002 C 
ATOM     24  C   UNL     1      -3.163   5.444   6.103  0.00  0.00    +0.000 C 
ATOM     25  C   UNL     1      -2.222   6.194   5.141  0.00  0.00    +0.000 C 
ATOM     26  C   UNL     1      -1.507   5.268   4.195  0.00  0.00    +0.002 C 
ATOM     27  C   UNL     1      -2.315   5.187   2.884  0.00  0.00    +0.022 C 
ENDBRANCH  19  21
ENDBRANCH  10  17
BRANCH   1  28
ATOM     28  C   UNL     1      -7.487   4.610  -0.073  0.00  0.00    +0.091 C 
BRANCH  28  29
ATOM     29  C   UNL     1      -7.686   5.141   1.348  0.00  0.00    -0.060 C 
BRANCH  29  30
ATOM     30  N   UNL     1      -9.115   5.393   1.580  0.00  0.00    +0.381 N 
ATOM     31  H   UNL     1      -9.667   4.480   1.311  0.00  0.00    -0.082 HD
BRANCH  30  32
ATOM     32  C   UNL     1      -9.603   6.484   0.727  0.00  0.00    -0.082 C 
ATOM     33  C   UNL     1     -11.133   6.459   0.692  0.00  0.00    -0.017 C 
ENDBRANCH  30  32
BRANCH  30  34
ATOM     34  C   UNL     1      -9.376   5.676   2.998  0.00  0.00    -0.079 C 
BRANCH  34  35
ATOM     35  C   UNL     1      -9.322   4.372   3.797  0.00  0.00    -0.019 C 
BRANCH  35  37
ATOM     36  C   UNL     1      -9.661   3.343   6.048  0.00  0.00    +0.004 C 
ATOM     37  C   UNL     1      -9.715   4.647   5.250  0.00  0.00    -0.005 C 
ENDBRANCH  35  37
ENDBRANCH  34  35
ENDBRANCH  30  34
ENDBRANCH  29  30
ENDBRANCH  28  29
ENDBRANCH   1  28
TORSDOF 10
