REMARK  Name = ZINC58872099
REMARK  15 active torsions:
REMARK  status: ('A' for Active; 'I' for Inactive)
REMARK    1  A    between atoms: C_1  and  C_2
REMARK    2  A    between atoms: C_2  and  C_3
REMARK    3  A    between atoms: C_3  and  C_4
REMARK    4  A    between atoms: C_5  and  C_35
REMARK    5  A    between atoms: C_6  and  C_26
REMARK    6  A    between atoms: C_12  and  C_13
REMARK    7  A    between atoms: C_16  and  O_19
REMARK    8  A    between atoms: O_19  and  C_20
REMARK    9  A    between atoms: C_20  and  C_21
REMARK   10  A    between atoms: C_29  and  C_32
REMARK   11  A    between atoms: C_32  and  C_33
REMARK   12  A    between atoms: C_32  and  C_34
REMARK   13  A    between atoms: C_35  and  O_37
REMARK   14  A    between atoms: O_37  and  C_38
REMARK   15  A    between atoms: C_38  and  C_39
REMARK                            x       y       z     vdW  Elec       q    Type
REMARK                         _______ _______ _______ _____ _____    ______ ____
ROOT
ATOM      1  C   UNL     1      -0.315  -1.439   0.322  0.00  0.00    +0.056 C 
ATOM      2  C   UNL     1       0.690  -2.021  -0.399  0.00  0.00    +0.085 C 
ATOM      3  C   UNL     1       0.818  -3.526  -0.354  0.00  0.00    +0.162 C 
ATOM      4  N   UNL     1      -0.169  -4.268   0.479  0.00  0.00    -0.275 N 
ATOM      5  C   UNL     1      -0.219  -5.596   0.644  0.00  0.00    +0.268 A 
ATOM      6  O   UNL     1       0.584  -6.327   0.094  0.00  0.00    -0.266 OA
ATOM      7  C   UNL     1      -1.272  -6.145   1.510  0.00  0.00    +0.081 A 
ATOM      8  C   UNL     1      -1.534  -7.437   1.837  0.00  0.00    +0.028 C 
ATOM      9  S   UNL     1      -2.112  -4.652   2.017  0.00  0.00    -0.046 S 
ATOM     10  C   UNL     1      -1.101  -3.487   1.124  0.00  0.00    +0.178 A 
ATOM     11  N   UNL     1      -1.146  -2.182   1.042  0.00  0.00    -0.227 NA
ENDROOT
BRANCH   8  12
ATOM     12  C   UNL     1      -2.750  -7.771   2.590  0.00  0.00    -0.024 A 
ATOM     13  C   UNL     1      -3.732  -6.796   2.807  0.00  0.00    +0.011 A 
ATOM     14  C   UNL     1      -4.870  -7.115   3.513  0.00  0.00    +0.046 A 
ATOM     15  C   UNL     1      -5.044  -8.402   4.011  0.00  0.00    +0.121 A 
ATOM     16  C   UNL     1      -4.072  -9.373   3.799  0.00  0.00    +0.046 A 
ATOM     17  C   UNL     1      -2.933  -9.066   3.089  0.00  0.00    +0.011 A 
BRANCH  15  18
ATOM     18  O   UNL     1      -6.168  -8.711   4.707  0.00  0.00    -0.488 OA
BRANCH  18  19
ATOM     19  C   UNL     1      -6.284 -10.051   5.190  0.00  0.00    +0.256 C 
BRANCH  19  20
ATOM     20  C   UNL     1      -7.587 -10.206   5.933  0.00  0.00    +0.006 C 
ATOM     21  C   UNL     1      -8.340 -11.257   5.721  0.00  0.00    +0.007 C 
ENDBRANCH  19  20
ENDBRANCH  18  19
ENDBRANCH  15  18
ENDBRANCH   8  12
BRANCH   3  22
ATOM     22  C   UNL     1       0.712  -4.042  -1.766  0.00  0.00    -0.020 A 
ATOM     23  C   UNL     1      -0.527  -4.174  -2.363  0.00  0.00    +0.006 A 
ATOM     24  C   UNL     1      -0.624  -4.648  -3.658  0.00  0.00    +0.004 A 
ATOM     25  C   UNL     1       0.519  -4.988  -4.357  0.00  0.00    -0.045 A 
ATOM     26  C   UNL     1       1.759  -4.855  -3.760  0.00  0.00    +0.004 A 
ATOM     27  C   UNL     1       1.856  -4.378  -2.467  0.00  0.00    +0.006 A 
BRANCH  25  28
ATOM     28  C   UNL     1       0.413  -5.505  -5.768  0.00  0.00    +0.013 C 
ATOM     29  C   UNL     1       1.178  -4.574  -6.711  0.00  0.00    +0.012 C 
ATOM     30  C   UNL     1       1.012  -6.911  -5.843  0.00  0.00    +0.012 C 
ENDBRANCH  25  28
ENDBRANCH   3  22
BRANCH   2  31
ATOM     31  C   UNL     1       1.578  -1.242  -1.159  0.00  0.00    +0.339 C 
ATOM     32  O   UNL     1       1.374  -0.050  -1.302  0.00  0.00    -0.245 OA
BRANCH  31  33
ATOM     33  O   UNL     1       2.659  -1.816  -1.732  0.00  0.00    -0.462 OA
BRANCH  33  34
ATOM     34  C   UNL     1       3.519  -0.965  -2.492  0.00  0.00    +0.229 C 
ATOM     35  C   UNL     1       4.678  -1.786  -3.059  0.00  0.00    +0.048 C 
ENDBRANCH  33  34
ENDBRANCH  31  33
ENDBRANCH   2  31
BRANCH   1  36
ATOM     36  C   UNL     1      -0.476   0.059   0.304  0.00  0.00    +0.056 C 
BRANCH  36  38
ATOM     37  C   UNL     1      -1.463   1.990  -0.937  0.00  0.00    +0.004 C 
ATOM     38  C   UNL     1      -1.299   0.469  -0.919  0.00  0.00    +0.003 C 
ENDBRANCH  36  38
ENDBRANCH   1  36
TORSDOF 11
