REMARK  Name = ZINC44164843
REMARK  18 active torsions:
REMARK  status: ('A' for Active; 'I' for Inactive)
REMARK    1  A    between atoms: C_1  and  C_2
REMARK    2  A    between atoms: C_2  and  C_3
REMARK    3  A    between atoms: C_2  and  O_4
REMARK    4  A    between atoms: O_4  and  C_5
REMARK    5  A    between atoms: C_5  and  C_6
REMARK    6  A    between atoms: C_6  and  C_7
REMARK    7  A    between atoms: C_7  and  N_8
REMARK    8  A    between atoms: C_9  and  C_11
REMARK    9  A    between atoms: C_16  and  C_19
REMARK   10  A    between atoms: C_21  and  C_30
REMARK   11  A    between atoms: C_22  and  O_29
REMARK   12  A    between atoms: C_23  and  C_25
REMARK   13  A    between atoms: C_25  and  C_26
REMARK   14  A    between atoms: C_25  and  C_27
REMARK   15  A    between atoms: C_25  and  C_28
REMARK   16  A    between atoms: C_30  and  C_31
REMARK   17  A    between atoms: C_30  and  C_32
REMARK   18  A    between atoms: C_30  and  C_33
REMARK                            x       y       z     vdW  Elec       q    Type
REMARK                         _______ _______ _______ _____ _____    ______ ____
ROOT
ATOM      1  C   UNL     1      -7.428  -2.715  -3.400  0.00  0.00    +0.027 C 
ATOM      2  C   UNL     1      -7.410  -4.048  -2.643  0.00  0.00    +0.062 C 
ATOM      3  S   UNL     1      -9.129  -4.614  -2.445  0.00  0.00    -0.163 S 
ATOM      4  C   UNL     1      -9.792  -4.473  -4.134  0.00  0.00    +0.058 C 
ATOM      5  C   UNL     1      -9.453  -3.076  -4.668  0.00  0.00    -0.030 C 
ATOM      6  N   UNL     1      -7.999  -2.909  -4.734  0.00  0.00    +0.392 N 
ATOM      7  H   UNL     1      -7.785  -2.106  -5.306  0.00  0.00    -0.084 HD
ATOM      8  H   UNL     1      -7.590  -3.731  -5.152  0.00  0.00    -0.084 HD
ENDROOT
BRANCH   5   9
ATOM      9  C   UNL     1     -10.037  -2.912  -6.048  0.00  0.00    -0.060 A 
ATOM     10  C   UNL     1      -9.389  -3.457  -7.141  0.00  0.00    +0.009 A 
ATOM     11  C   UNL     1      -9.923  -3.307  -8.406  0.00  0.00    -0.000 A 
ATOM     12  C   UNL     1     -11.110  -2.611  -8.580  0.00  0.00    +0.124 A 
ATOM     13  C   UNL     1     -11.758  -2.065  -7.481  0.00  0.00    -0.000 A 
ATOM     14  C   UNL     1     -11.223  -2.222  -6.217  0.00  0.00    +0.009 A 
BRANCH  13  15
ATOM     15  C   UNL     1     -13.048  -1.308  -7.666  0.00  0.00    -0.009 C 
ATOM     16  C   UNL     1     -13.549  -0.816  -6.307  0.00  0.00    +0.015 C 
ATOM     17  C   UNL     1     -12.808  -0.109  -8.585  0.00  0.00    +0.015 C 
ATOM     18  C   UNL     1     -14.095  -2.230  -8.293  0.00  0.00    +0.015 C 
ENDBRANCH  13  15
BRANCH  11  19
ATOM     19  C   UNL     1      -9.216  -3.901  -9.598  0.00  0.00    -0.009 C 
ATOM     20  C   UNL     1      -7.942  -4.609  -9.133  0.00  0.00    +0.015 C 
ATOM     21  C   UNL     1     -10.137  -4.908 -10.288  0.00  0.00    +0.015 C 
ATOM     22  C   UNL     1      -8.850  -2.786 -10.580  0.00  0.00    +0.015 C 
ENDBRANCH  11  19
BRANCH  12  23
ATOM     23  O   UNL     1     -11.636  -2.462  -9.824  0.00  0.00    -0.506 OA
ATOM     24  H   UNL     1     -12.244  -3.169 -10.081  0.00  0.00    +0.292 HD
ENDBRANCH  12  23
ENDBRANCH   5   9
BRANCH   1  26
ATOM     25  N   UNL     1      -5.292  -1.935  -2.425  0.00  0.00    -0.317 N 
ATOM     26  C   UNL     1      -6.019  -2.194  -3.530  0.00  0.00    +0.200 C 
ATOM     27  O   UNL     1      -5.541  -2.007  -4.628  0.00  0.00    -0.278 OA
ATOM     28  H   UNL     1      -5.675  -2.084  -1.546  0.00  0.00    +0.149 HD
BRANCH  25  29
ATOM     29  C   UNL     1      -3.923  -1.429  -2.551  0.00  0.00    +0.106 C 
BRANCH  29  30
ATOM     30  C   UNL     1      -3.326  -1.221  -1.157  0.00  0.00    +0.047 C 
BRANCH  30  31
ATOM     31  C   UNL     1      -1.896  -0.693  -1.289  0.00  0.00    +0.161 C 
BRANCH  31  32
ATOM     32  O   UNL     1      -1.339  -0.499   0.012  0.00  0.00    -0.377 OA
BRANCH  32  34
ATOM     33  C   UNL     1      -0.019   1.526   0.010  0.00  0.00    +0.037 C 
ATOM     34  C   UNL     1       0.002  -0.004   0.002  0.00  0.00    +0.112 C 
ATOM     35  C   UNL     1       0.742  -0.511   1.242  0.00  0.00    +0.037 C 
ENDBRANCH  32  34
ENDBRANCH  31  32
ENDBRANCH  30  31
ENDBRANCH  29  30
ENDBRANCH  25  29
ENDBRANCH   1  26
TORSDOF 10
