REMARK  Name = ZINC39778331
REMARK  7 active torsions:
REMARK  status: ('A' for Active; 'I' for Inactive)
REMARK    1  A    between atoms: C_1  and  C_2
REMARK    2  A    between atoms: C_2  and  C_4
REMARK    3  A    between atoms: C_2  and  N_21
REMARK    4  A    between atoms: N_6  and  C_7
REMARK    5  A    between atoms: C_10  and  S_13
REMARK    6  A    between atoms: S_13  and  N_16
REMARK    7  A    between atoms: C_24  and  C_27
REMARK                            x       y       z     vdW  Elec       q    Type
REMARK                         _______ _______ _______ _____ _____    ______ ____
ROOT
ATOM      1  C   UNL     1      -0.202   1.339   0.063  0.00  0.00    -0.004 C 
ATOM      2  C   UNL     1       0.054  -0.165  -0.049  0.00  0.00    +0.017 C 
ENDROOT
BRANCH   2   3
ATOM      3  N   UNL     1      -1.227  -0.884  -0.023  0.00  0.00    +0.390 N 
ATOM      4  C   UNL     1      -0.983  -2.330  -0.141  0.00  0.00    -0.073 C 
ATOM      5  C   UNL     1      -2.287  -3.073   0.158  0.00  0.00    +0.016 C 
ATOM      6  C   UNL     1      -3.402  -2.481  -0.659  0.00  0.00    -0.049 C 
ATOM      7  C   UNL     1      -3.295  -1.291  -1.248  0.00  0.00    -0.042 C 
ATOM      8  C   UNL     1      -2.058  -0.445  -1.150  0.00  0.00    -0.050 C 
ATOM      9  H   UNL     1      -1.705  -0.691   0.844  0.00  0.00    -0.080 HD
BRANCH   6  10
ATOM     10  C   UNL     1      -4.600  -3.210  -0.808  0.00  0.00    -0.017 C 
ATOM     11  C   UNL     1      -4.938  -4.405  -0.186  0.00  0.00    +0.003 A 
ATOM     12  C   UNL     1      -4.252  -5.230   0.735  0.00  0.00    +0.010 A 
ATOM     13  C   UNL     1      -4.838  -6.366   1.186  0.00  0.00    +0.001 A 
ATOM     14  C   UNL     1      -6.115  -6.751   0.763  0.00  0.00    +0.002 A 
ATOM     15  C   UNL     1      -6.830  -6.011  -0.116  0.00  0.00    +0.026 A 
ATOM     16  C   UNL     1      -6.284  -4.806  -0.634  0.00  0.00    +0.043 A 
ATOM     17  N   UNL     1      -6.766  -3.925  -1.484  0.00  0.00    -0.380 N 
ATOM     18  C   UNL     1      -5.787  -2.851  -1.675  0.00  0.00    +0.149 C 
ATOM     19  H   UNL     1      -7.635  -3.977  -1.913  0.00  0.00    +0.160 HD
ENDBRANCH   6  10
ENDBRANCH   2   3
BRANCH   2  20
ATOM     20  C   UNL     1       0.906  -0.617   1.109  0.00  0.00    +0.203 C 
ATOM     21  O   UNL     1       0.488  -1.455   1.880  0.00  0.00    -0.277 OA
ATOM     22  N   UNL     1       2.134  -0.089   1.288  0.00  0.00    -0.287 N 
ATOM     23  H   UNL     1       2.499   0.523   0.631  0.00  0.00    +0.155 HD
BRANCH  22  24
ATOM     24  C   UNL     1       2.881  -0.425   2.423  0.00  0.00    +0.033 A 
ATOM     25  C   UNL     1       4.265  -0.499   2.348  0.00  0.00    +0.025 A 
ATOM     26  C   UNL     1       5.000  -0.831   3.470  0.00  0.00    +0.030 A 
ATOM     27  C   UNL     1       4.357  -1.089   4.667  0.00  0.00    +0.106 A 
ATOM     28  C   UNL     1       2.979  -1.018   4.745  0.00  0.00    +0.030 A 
ATOM     29  C   UNL     1       2.239  -0.680   3.628  0.00  0.00    +0.025 A 
BRANCH  27  30
ATOM     30  S   UNL     1       5.298  -1.512   6.096  0.00  0.00    +0.061 S 
ATOM     31  O   UNL     1       4.429  -2.240   6.953  0.00  0.00    -0.153 OA
ATOM     32  O   UNL     1       6.529  -2.046   5.628  0.00  0.00    -0.153 OA
BRANCH  30  33
ATOM     33  N   UNL     1       5.661  -0.099   6.878  0.00  0.00    -0.177 NA
ATOM     34  C   UNL     1       6.854   0.728   6.643  0.00  0.00    +0.109 C 
ATOM     35  C   UNL     1       6.779   1.925   7.615  0.00  0.00    +0.018 C 
ATOM     36  C   UNL     1       5.839   1.406   8.734  0.00  0.00    +0.018 C 
ATOM     37  C   UNL     1       4.840   0.541   7.922  0.00  0.00    +0.109 C 
ENDBRANCH  30  33
ENDBRANCH  27  30
ENDBRANCH  22  24
ENDBRANCH   2  20
TORSDOF 6
