REMARK  Name = ZINC38783278
REMARK  5 active torsions:
REMARK  status: ('A' for Active; 'I' for Inactive)
REMARK    1  A    between atoms: C_1  and  C_2
REMARK    2  A    between atoms: C_13  and  C_15
REMARK    3  A    between atoms: C_15  and  C_16
REMARK    4  A    between atoms: C_16  and  N_18
REMARK    5  A    between atoms: C_32  and  C_33
REMARK                            x       y       z     vdW  Elec       q    Type
REMARK                         _______ _______ _______ _____ _____    ______ ____
ROOT
ATOM      1  C   UNL     1      -0.041   1.498   0.008  0.00  0.00    +0.013 C 
ATOM      2  C   UNL     1      -0.029  -0.032   0.010  0.00  0.00    +0.034 C 
ATOM      3  C   UNL     1      -1.448  -0.543   0.029  0.00  0.00    -0.001 A 
ATOM      4  C   UNL     1      -2.382   0.111  -0.734  0.00  0.00    +0.019 A 
ATOM      5  C   UNL     1      -3.701  -0.329  -0.755  0.00  0.00    +0.028 A 
ATOM      6  C   UNL     1      -4.084  -1.446   0.005  0.00  0.00    +0.139 A 
ATOM      7  C   UNL     1      -3.131  -2.097   0.775  0.00  0.00    +0.093 A 
ATOM      8  C   UNL     1      -1.818  -1.645   0.788  0.00  0.00    +0.139 A 
ATOM      9  O   UNL     1      -0.923  -2.307   1.573  0.00  0.00    -0.425 OA
ATOM     10  C   UNL     1       0.381  -1.999   1.427  0.00  0.00    +0.317 C 
ATOM     11  O   UNL     1       1.237  -2.851   1.439  0.00  0.00    -0.250 OA
ATOM     12  C   UNL     1       0.720  -0.533   1.248  0.00  0.00    +0.114 C 
ATOM     13  O   UNL     1      -5.401  -1.646  -0.203  0.00  0.00    -0.462 OA
ATOM     14  C   UNL     1      -5.903  -0.731  -1.049  0.00  0.00    +0.204 A 
ATOM     15  C   UNL     1      -4.927   0.120  -1.439  0.00  0.00    +0.028 A 
ENDROOT
BRANCH  15  16
ATOM     16  C   UNL     1      -5.063   1.270  -2.366  0.00  0.00    -0.014 A 
ATOM     17  C   UNL     1      -4.563   2.521  -2.006  0.00  0.00    +0.011 A 
ATOM     18  C   UNL     1      -4.691   3.588  -2.871  0.00  0.00    +0.039 A 
ATOM     19  C   UNL     1      -5.315   3.418  -4.096  0.00  0.00    +0.123 A 
ATOM     20  C   UNL     1      -5.813   2.177  -4.458  0.00  0.00    +0.039 A 
ATOM     21  C   UNL     1      -5.684   1.103  -3.602  0.00  0.00    +0.011 A 
ATOM     22  F   UNL     1      -5.439   4.465  -4.940  0.00  0.00    -0.205 F 
ENDBRANCH  15  16
BRANCH  12  23
ATOM     23  C   UNL     1       0.275   0.258   2.480  0.00  0.00    +0.113 C 
BRANCH  23  24
ATOM     24  C   UNL     1       1.103  -0.157   3.669  0.00  0.00    +0.240 C 
ATOM     25  O   UNL     1       1.966  -1.003   3.544  0.00  0.00    -0.274 OA
BRANCH  24  26
ATOM     26  N   UNL     1       0.889   0.404   4.856  0.00  0.00    -0.147 NA
ATOM     27  C   UNL     1       1.546  -0.034   5.926  0.00  0.00    +0.198 A 
ATOM     28  N   UNL     1       2.538  -0.963   5.916  0.00  0.00    -0.326 N 
ATOM     29  H   UNL     1       2.884  -1.416   5.131  0.00  0.00    +0.169 HD
ATOM     30  C   UNL     1       2.971  -1.153   7.224  0.00  0.00    +0.065 A 
ATOM     31  C   UNL     1       3.942  -1.968   7.791  0.00  0.00    +0.028 A 
ATOM     32  C   UNL     1       4.151  -1.940   9.156  0.00  0.00    +0.002 A 
ATOM     33  C   UNL     1       3.396  -1.103   9.961  0.00  0.00    +0.002 A 
ATOM     34  C   UNL     1       2.429  -0.289   9.406  0.00  0.00    +0.028 A 
ATOM     35  C   UNL     1       2.211  -0.309   8.036  0.00  0.00    +0.065 A 
ATOM     36  N   UNL     1       1.335   0.380   7.203  0.00  0.00    -0.326 N 
ATOM     37  H   UNL     1       0.684   1.041   7.486  0.00  0.00    +0.169 HD
ENDBRANCH  24  26
ENDBRANCH  23  24
ENDBRANCH  12  23
TORSDOF 4
