REMARK  Name = ZINC00782101
REMARK  10 active torsions:
REMARK  status: ('A' for Active; 'I' for Inactive)
REMARK    1  A    between atoms: C_1  and  C_2
REMARK    2  A    between atoms: C_2  and  C_3
REMARK    3  A    between atoms: C_10  and  C_15
REMARK    4  A    between atoms: C_15  and  C_17
REMARK    5  A    between atoms: C_15  and  N_62
REMARK    6  A    between atoms: N_21  and  C_22
REMARK    7  A    between atoms: C_22  and  C_23
REMARK    8  A    between atoms: C_22  and  C_24
REMARK    9  A    between atoms: C_22  and  C_25
REMARK   10  A    between atoms: C_28  and  C_31
REMARK                            x       y       z     vdW  Elec       q    Type
REMARK                         _______ _______ _______ _____ _____    ______ ____
ROOT
ATOM      1  C   UNL     1       5.981  -0.543   0.145  0.00  0.00    +0.039 C 
ENDROOT
BRANCH   1   9
ATOM      2  C   UNL     1       2.165   3.154   3.317  0.00  0.00    -0.047 A 
ATOM      3  C   UNL     1       1.198   3.267   2.326  0.00  0.00    +0.005 A 
ATOM      4  C   UNL     1       1.351   2.622   1.118  0.00  0.00    +0.026 A 
ATOM      5  C   UNL     1       2.485   1.849   0.886  0.00  0.00    +0.049 A 
ATOM      6  C   UNL     1       3.462   1.738   1.893  0.00  0.00    -0.001 A 
ATOM      7  C   UNL     1       3.286   2.401   3.111  0.00  0.00    +0.013 A 
ATOM      8  C   UNL     1       4.652   0.923   1.639  0.00  0.00    +0.017 A 
ATOM      9  C   UNL     1       4.769   0.303   0.439  0.00  0.00    +0.011 A 
ATOM     10  C   UNL     1       3.759   0.448  -0.537  0.00  0.00    +0.251 A 
ATOM     11  O   UNL     1       3.884  -0.118  -1.610  0.00  0.00    -0.268 OA
ATOM     12  N   UNL     1       2.663   1.194  -0.314  0.00  0.00    -0.322 N 
ATOM     13  H   UNL     1       1.968   1.275  -1.028  0.00  0.00    +0.169 HD
BRANCH   2  15
ATOM     14  C   UNL     1       1.232   2.955   5.606  0.00  0.00    +0.009 C 
ATOM     15  C   UNL     1       1.976   3.869   4.629  0.00  0.00    +0.032 C 
ENDBRANCH   2  15
ENDBRANCH   1   9
BRANCH   1  22
ATOM     16  C   UNL     1       6.913   1.377  -0.997  0.00  0.00    -0.077 C 
ATOM     17  C   UNL     1       7.452   1.871  -2.341  0.00  0.00    -0.015 C 
ATOM     18  C   UNL     1       8.728   1.099  -2.689  0.00  0.00    -0.018 C 
ATOM     19  C   UNL     1       8.415  -0.399  -2.724  0.00  0.00    -0.015 C 
ATOM     20  C   UNL     1       7.848  -0.828  -1.369  0.00  0.00    -0.077 C 
ATOM     21  C   UNL     1       9.238   1.547  -4.060  0.00  0.00    +0.007 C 
ATOM     22  N   UNL     1       6.609  -0.066  -1.104  0.00  0.00    +0.389 N 
ATOM     23  H   UNL     1       5.956  -0.212  -1.883  0.00  0.00    -0.080 HD
ENDBRANCH   1  22
BRANCH   1  24
ATOM     24  C   UNL     1       6.949  -0.449   1.296  0.00  0.00    +0.143 A 
ATOM     25  N   UNL     1       7.701   0.580   1.603  0.00  0.00    -0.115 NA
ATOM     26  N   UNL     1       8.388   0.272   2.649  0.00  0.00    -0.023 NA
ATOM     27  N   UNL     1       8.094  -0.926   3.016  0.00  0.00    -0.043 NA
ATOM     28  N   UNL     1       7.207  -1.403   2.210  0.00  0.00    -0.225 N 
BRANCH  28  29
ATOM     29  C   UNL     1       6.597  -2.733   2.275  0.00  0.00    +0.059 C 
ATOM     30  C   UNL     1       6.983  -3.533   1.029  0.00  0.00    +0.036 C 
ATOM     31  C   UNL     1       7.096  -3.462   3.524  0.00  0.00    +0.036 C 
ATOM     32  C   UNL     1       5.074  -2.593   2.340  0.00  0.00    +0.036 C 
ENDBRANCH  28  29
ENDBRANCH   1  24
TORSDOF 5
