REMARK  Name = ZINC33529128
REMARK  5 active torsions:
REMARK  status: ('A' for Active; 'I' for Inactive)
REMARK    1  A    between atoms: C_4  and  C_7
REMARK    2  A    between atoms: C_7  and  N_8
REMARK    3  A    between atoms: C_13  and  C_30
REMARK    4  A    between atoms: C_16  and  C_21
REMARK    5  A    between atoms: C_16  and  C_27
REMARK                            x       y       z     vdW  Elec       q    Type
REMARK                         _______ _______ _______ _____ _____    ______ ____
ROOT
ATOM      1  N   UNL     1       4.019  -1.344   1.314  0.00  0.00    -0.237 N 
ATOM      2  C   UNL     1       4.797  -0.378   1.903  0.00  0.00    +0.225 C 
ATOM      3  O   UNL     1       5.016   0.743   1.497  0.00  0.00    -0.275 OA
ATOM      4  C   UNL     1       5.294  -0.990   3.110  0.00  0.00    +0.077 C 
ATOM      5  C   UNL     1       5.856  -0.626   4.422  0.00  0.00    -0.026 C 
ATOM      6  N   UNL     1       5.853  -1.946   5.143  0.00  0.00    +0.398 N 
ATOM      7  C   UNL     1       4.829  -2.818   4.495  0.00  0.00    +0.074 C 
ATOM      8  C   UNL     1       4.067  -1.889   3.538  0.00  0.00    +0.090 C 
ATOM      9  C   UNL     1       3.741  -2.383   2.156  0.00  0.00    +0.225 C 
ATOM     10  O   UNL     1       3.320  -3.479   1.853  0.00  0.00    -0.275 OA
ATOM     11  H   UNL     1       6.763  -2.376   5.071  0.00  0.00    -0.083 HD
ATOM     12  H   UNL     1       5.617  -1.804   6.114  0.00  0.00    -0.083 HD
ENDROOT
BRANCH   5  13
ATOM     13  C   UNL     1       7.258  -0.094   4.278  0.00  0.00    -0.053 A 
ATOM     14  C   UNL     1       7.944  -0.279   3.117  0.00  0.00    +0.002 A 
ATOM     15  C   UNL     1       9.242   0.205   2.965  0.00  0.00    +0.001 A 
ATOM     16  C   UNL     1       9.861   0.878   3.973  0.00  0.00    +0.008 A 
ATOM     17  C   UNL     1       9.184   1.090   5.186  0.00  0.00    -0.018 A 
ATOM     18  C   UNL     1       7.862   0.602   5.339  0.00  0.00    -0.016 A 
ATOM     19  C   UNL     1       7.183   0.818   6.550  0.00  0.00    +0.009 A 
ATOM     20  C   UNL     1       7.800   1.496   7.556  0.00  0.00    +0.001 A 
ATOM     21  C   UNL     1       9.098   1.982   7.404  0.00  0.00    +0.001 A 
ATOM     22  C   UNL     1       9.791   1.779   6.250  0.00  0.00    +0.008 A 
ENDBRANCH   5  13
BRANCH   7  23
ATOM     23  C   UNL     1       5.499  -3.942   3.747  0.00  0.00    -0.047 A 
ATOM     24  C   UNL     1       4.795  -5.095   3.457  0.00  0.00    +0.003 A 
ATOM     25  C   UNL     1       5.410  -6.126   2.770  0.00  0.00    +0.000 A 
ATOM     26  C   UNL     1       6.728  -6.002   2.373  0.00  0.00    +0.000 A 
ATOM     27  C   UNL     1       7.431  -4.848   2.662  0.00  0.00    +0.000 A 
ATOM     28  C   UNL     1       6.816  -3.816   3.345  0.00  0.00    +0.003 A 
ENDBRANCH   7  23
BRANCH   7  29
ATOM     29  C   UNL     1       3.884  -3.371   5.530  0.00  0.00    +0.350 C 
ATOM     30  O   UNL     1       4.045  -3.101   6.708  0.00  0.00    -0.248 OA
ATOM     31  O   UNL     1       2.958  -4.088   5.190  0.00  0.00    -0.248 OA
ENDBRANCH   7  29
BRANCH   1  32
ATOM     32  C   UNL     1       3.535  -1.267  -0.066  0.00  0.00    +0.151 C 
BRANCH  32  36
ATOM     33  C   UNL     1      -0.244   0.723  -0.142  0.00  0.00    +0.000 A 
ATOM     34  C   UNL     1       0.923   1.452  -0.265  0.00  0.00    +0.000 A 
ATOM     35  C   UNL     1       2.146   0.809  -0.240  0.00  0.00    +0.005 A 
ATOM     36  C   UNL     1       2.202  -0.565  -0.092  0.00  0.00    -0.030 A 
ATOM     37  C   UNL     1       1.034  -1.294   0.031  0.00  0.00    +0.005 A 
ATOM     38  C   UNL     1      -0.189  -0.650   0.005  0.00  0.00    +0.000 A 
ENDBRANCH  32  36
ENDBRANCH   1  32
TORSDOF 5
