REMARK  Name = ZINC21266090
REMARK  8 active torsions:
REMARK  status: ('A' for Active; 'I' for Inactive)
REMARK    1  A    between atoms: C_4  and  N_9
REMARK    2  A    between atoms: C_5  and  C_7
REMARK    3  A    between atoms: C_10  and  C_12
REMARK    4  A    between atoms: C_12  and  N_13
REMARK    5  A    between atoms: N_13  and  C_14
REMARK    6  A    between atoms: C_14  and  C_15
REMARK    7  A    between atoms: C_18  and  S_21
REMARK    8  A    between atoms: S_21  and  N_24
REMARK                            x       y       z     vdW  Elec       q    Type
REMARK                         _______ _______ _______ _____ _____    ______ ____
ROOT
ATOM      1  N   UNL     1      -0.712   1.591  -1.182  0.00  0.00    +0.387 N 
ATOM      2  H   UNL     1      -0.732   2.690  -1.165  0.00  0.00    -0.085 HD
ATOM      3  H   UNL     1      -1.742   1.206  -1.152  0.00  0.00    -0.085 HD
ENDROOT
BRANCH   1   4
ATOM      4  C   UNL     1      -0.054   1.132  -2.413  0.00  0.00    +0.016 C 
BRANCH   4   6
ATOM      5  N   UNL     1      -0.392   1.341  -4.854  0.00  0.00    -0.286 N 
ATOM      6  C   UNL     1      -0.815   1.639  -3.610  0.00  0.00    +0.200 C 
ATOM      7  O   UNL     1      -1.809   2.317  -3.454  0.00  0.00    -0.278 OA
ATOM      8  H   UNL     1       0.549   0.789  -4.997  0.00  0.00    +0.155 HD
BRANCH   5  12
ATOM      9  C   UNL     1      -2.651   2.508  -8.160  0.00  0.00    +0.001 A 
ATOM     10  C   UNL     1      -2.591   3.314  -7.035  0.00  0.00    +0.002 A 
ATOM     11  C   UNL     1      -1.848   2.928  -5.938  0.00  0.00    +0.024 A 
ATOM     12  C   UNL     1      -1.147   1.730  -5.959  0.00  0.00    +0.051 A 
ATOM     13  C   UNL     1      -1.206   0.911  -7.096  0.00  0.00    +0.073 A 
ATOM     14  C   UNL     1      -1.966   1.313  -8.197  0.00  0.00    +0.021 A 
BRANCH  13  15
ATOM     15  C   UNL     1      -0.492  -0.330  -7.128  0.00  0.00    +0.101 C 
ATOM     16  N   UNL     1       0.074  -1.315  -7.154  0.00  0.00    -0.191 NA
ENDBRANCH  13  15
ENDBRANCH   5  12
ENDBRANCH   4   6
ENDBRANCH   1   4
BRANCH   1  17
ATOM     17  C   UNL     1       0.004   1.113   0.008  0.00  0.00    -0.046 C 
BRANCH  17  18
ATOM     18  C   UNL     1      -0.699   1.603   1.248  0.00  0.00    -0.064 A 
ATOM     19  C   UNL     1      -0.344   2.815   1.811  0.00  0.00    +0.003 A 
ATOM     20  C   UNL     1      -0.993   3.266   2.945  0.00  0.00    +0.029 A 
ATOM     21  C   UNL     1      -1.989   2.501   3.522  0.00  0.00    +0.105 A 
ATOM     22  C   UNL     1      -2.341   1.287   2.962  0.00  0.00    +0.029 A 
ATOM     23  C   UNL     1      -1.695   0.838   1.825  0.00  0.00    +0.003 A 
BRANCH  21  24
ATOM     24  S   UNL     1      -2.813   3.074   4.971  0.00  0.00    +0.056 S 
ATOM     25  O   UNL     1      -2.677   4.489   4.982  0.00  0.00    -0.153 OA
ATOM     26  O   UNL     1      -4.079   2.430   4.999  0.00  0.00    -0.153 OA
BRANCH  24  27
ATOM     27  N   UNL     1      -1.963   2.506   6.274  0.00  0.00    -0.204 NA
ATOM     28  H   UNL     1      -2.447   2.843   7.202  0.00  0.00    +0.144 HD
ATOM     29  H   UNL     1      -0.933   2.891   6.236  0.00  0.00    +0.144 HD
ENDBRANCH  24  27
ENDBRANCH  21  24
ENDBRANCH  17  18
ENDBRANCH   1  17
TORSDOF 8
