REMARK  Name = ZINC38742510
REMARK  6 active torsions:
REMARK  status: ('A' for Active; 'I' for Inactive)
REMARK    1  A    between atoms: C_1  and  C_2
REMARK    2  A    between atoms: C_2  and  C_3
REMARK    3  A    between atoms: C_2  and  C_4
REMARK    4  A    between atoms: C_6  and  C_10
REMARK    5  A    between atoms: C_18  and  C_20
REMARK    6  A    between atoms: C_20  and  C_21
REMARK                            x       y       z     vdW  Elec       q    Type
REMARK                         _______ _______ _______ _____ _____    ______ ____
ROOT
ATOM      1  C   UNL     1       2.045  -2.942  -3.073  0.00  0.00    +0.206 C 
ATOM      2  N   UNL     1       0.652  -3.438  -2.966  0.00  0.00    -0.231 NA
ATOM      3  N   UNL     1       0.308  -4.008  -4.280  0.00  0.00    -0.224 NA
ATOM      4  C   UNL     1       1.627  -4.358  -4.843  0.00  0.00    +0.240 C 
ATOM      5  N   UNL     1       2.430  -3.141  -4.489  0.00  0.00    -0.206 N 
ATOM      6  N   UNL     1       3.128  -2.609  -5.551  0.00  0.00    -0.178 NA
ATOM      7  C   UNL     1       2.907  -2.937  -6.780  0.00  0.00    +0.099 C 
ATOM      8  S   UNL     1       1.637  -4.236  -6.670  0.00  0.00    -0.067 S 
ATOM      9  H   UNL     1       0.570  -4.132  -2.238  0.00  0.00    +0.143 HD
ATOM     10  H   UNL     1      -0.163  -3.328  -4.858  0.00  0.00    +0.144 HD
ENDROOT
BRANCH   1  13
ATOM     11  C   UNL     1       0.707  -0.490  -1.238  0.00  0.00    +0.064 C 
ATOM     12  C   UNL     1       1.805  -1.250  -1.237  0.00  0.00    +0.030 C 
ATOM     13  C   UNL     1       2.107  -1.457  -2.710  0.00  0.00    +0.190 C 
ATOM     14  N   UNL     1       1.029  -0.708  -3.378  0.00  0.00    -0.177 NA
ATOM     15  N   UNL     1       0.311  -0.220  -2.502  0.00  0.00    -0.158 NA
BRANCH  11  17
ATOM     16  C   UNL     1      -0.019   1.526   0.010  0.00  0.00    +0.014 C 
ATOM     17  C   UNL     1       0.002  -0.004   0.002  0.00  0.00    +0.033 C 
ATOM     18  C   UNL     1      -1.433  -0.534   0.013  0.00  0.00    +0.014 C 
ENDBRANCH  11  17
ENDBRANCH   1  13
BRANCH   7  19
ATOM     19  C   UNL     1       3.556  -2.381  -8.021  0.00  0.00    +0.099 C 
BRANCH  19  20
ATOM     20  C   UNL     1       4.561  -1.327  -7.633  0.00  0.00    -0.041 A 
ATOM     21  C   UNL     1       4.169  -0.007  -7.520  0.00  0.00    +0.004 A 
ATOM     22  C   UNL     1       5.091   0.960  -7.164  0.00  0.00    +0.000 A 
ATOM     23  C   UNL     1       6.405   0.606  -6.921  0.00  0.00    +0.000 A 
ATOM     24  C   UNL     1       6.797  -0.715  -7.034  0.00  0.00    +0.000 A 
ATOM     25  C   UNL     1       5.874  -1.682  -7.385  0.00  0.00    +0.004 A 
ENDBRANCH  19  20
ENDBRANCH   7  19
TORSDOF 4
