REMARK  Name = ZINC64019820
REMARK  6 active torsions:
REMARK  status: ('A' for Active; 'I' for Inactive)
REMARK    1  A    between atoms: C_1  and  O_2
REMARK    2  A    between atoms: O_2  and  C_3
REMARK    3  A    between atoms: C_10  and  C_18
REMARK    4  A    between atoms: C_20  and  O_35
REMARK    5  A    between atoms: C_22  and  O_34
REMARK    6  A    between atoms: N_24  and  C_27
REMARK                            x       y       z     vdW  Elec       q    Type
REMARK                         _______ _______ _______ _____ _____    ______ ____
ROOT
ATOM      1  C   UNL     1       4.427  -4.074  -2.921  0.00  0.00    +0.179 C 
ATOM      2  C   UNL     1       4.851  -2.786  -3.563  0.00  0.00    +0.200 C 
ATOM      3  N   UNL     1       5.954  -2.655  -4.192  0.00  0.00    -0.204 NA
ATOM      4  C   UNL     1       6.926  -3.721  -4.367  0.00  0.00    +0.339 C 
ATOM      5  N   UNL     1       6.757  -4.784  -3.387  0.00  0.00    -0.222 N 
ATOM      6  C   UNL     1       5.615  -4.970  -2.719  0.00  0.00    +0.237 C 
ATOM      7  O   UNL     1       5.539  -5.887  -1.929  0.00  0.00    -0.274 OA
ENDROOT
BRANCH   1  14
ATOM      8  C   UNL     1       0.455  -1.307  -0.338  0.00  0.00    +0.121 A 
ATOM      9  C   UNL     1       0.842  -0.333  -1.275  0.00  0.00    +0.047 A 
ATOM     10  C   UNL     1       1.403  -0.650  -2.461  0.00  0.00    +0.029 A 
ATOM     11  C   UNL     1       1.630  -2.055  -2.810  0.00  0.00    +0.043 A 
ATOM     12  N   UNL     1       2.169  -2.620  -3.866  0.00  0.00    -0.376 N 
ATOM     13  C   UNL     1       2.056  -4.068  -3.723  0.00  0.00    +0.124 C 
ATOM     14  C   UNL     1       3.409  -4.777  -3.821  0.00  0.00    +0.101 C 
ATOM     15  N   UNL     1       3.235  -6.170  -3.379  0.00  0.00    -0.310 NA
ATOM     16  C   UNL     1       2.913  -6.288  -1.953  0.00  0.00    +0.085 C 
ATOM     17  C   UNL     1       1.536  -5.662  -1.669  0.00  0.00    +0.048 C 
ATOM     18  C   UNL     1       1.533  -4.293  -2.312  0.00  0.00    -0.036 C 
ATOM     19  C   UNL     1       1.232  -3.086  -1.818  0.00  0.00    +0.003 A 
ATOM     20  C   UNL     1       0.630  -2.632  -0.558  0.00  0.00    +0.055 A 
ATOM     21  H   UNL     1       2.548  -6.646  -3.945  0.00  0.00    +0.122 HD
ATOM     22  H   UNL     1       2.573  -2.154  -4.614  0.00  0.00    +0.160 HD
BRANCH   8  24
ATOM     23  C   UNL     1      -0.274   0.501   1.022  0.00  0.00    +0.277 C 
ATOM     24  O   UNL     1      -0.108  -0.905   0.831  0.00  0.00    -0.495 OA
ENDBRANCH   8  24
ENDBRANCH   1  14
BRANCH   5  25
ATOM     25  C   UNL     1       7.832  -5.645  -3.136  0.00  0.00    +0.076 A 
ATOM     26  C   UNL     1       8.752  -5.339  -2.142  0.00  0.00    +0.026 A 
ATOM     27  C   UNL     1       9.812  -6.190  -1.897  0.00  0.00    +0.002 A 
ATOM     28  C   UNL     1       9.959  -7.347  -2.640  0.00  0.00    +0.003 A 
ATOM     29  C   UNL     1       9.046  -7.656  -3.632  0.00  0.00    +0.040 A 
ATOM     30  C   UNL     1       7.979  -6.812  -3.879  0.00  0.00    +0.145 A 
ATOM     31  F   UNL     1       7.085  -7.116  -4.844  0.00  0.00    -0.204 F 
ENDBRANCH   5  25
BRANCH   4  32
ATOM     32  O   UNL     1       6.778  -4.273  -5.677  0.00  0.00    -0.356 OA
ATOM     33  H   UNL     1       6.916  -3.635  -6.391  0.00  0.00    +0.214 HD
ENDBRANCH   4  32
BRANCH   2  34
ATOM     34  O   UNL     1       4.030  -1.719  -3.472  0.00  0.00    -0.495 OA
ATOM     35  H   UNL     1       4.367  -0.925  -3.909  0.00  0.00    +0.293 HD
ENDBRANCH   2  34
TORSDOF 5
