REMARK  Name = ZINC42969851
REMARK  9 active torsions:
REMARK  status: ('A' for Active; 'I' for Inactive)
REMARK    1  A    between atoms: C_1  and  C_2
REMARK    2  A    between atoms: C_2  and  C_3
REMARK    3  A    between atoms: C_3  and  C_5
REMARK    4  A    between atoms: C_3  and  N_23
REMARK    5  A    between atoms: C_5  and  C_7
REMARK    6  A    between atoms: C_5  and  S_14
REMARK    7  A    between atoms: C_11  and  C_13
REMARK    8  A    between atoms: S_14  and  C_15
REMARK    9  A    between atoms: C_17  and  C_22
REMARK                            x       y       z     vdW  Elec       q    Type
REMARK                         _______ _______ _______ _____ _____    ______ ____
ROOT
ATOM      1  C   UNL     1       0.965  -2.004  -1.151  0.00  0.00    +0.101 C 
ENDROOT
BRANCH   1   2
ATOM      2  C   UNL     1       1.861  -2.275  -2.332  0.00  0.00    -0.032 A 
ATOM      3  C   UNL     1       3.053  -1.587  -2.467  0.00  0.00    +0.005 A 
ATOM      4  C   UNL     1       3.875  -1.836  -3.550  0.00  0.00    +0.001 A 
ATOM      5  C   UNL     1       3.505  -2.772  -4.498  0.00  0.00    +0.003 A 
ATOM      6  C   UNL     1       2.314  -3.460  -4.362  0.00  0.00    -0.050 A 
ATOM      7  C   UNL     1       1.494  -3.215  -3.276  0.00  0.00    +0.008 A 
ATOM      8  C   UNL     1       1.912  -4.481  -5.395  0.00  0.00    +0.044 C 
ENDBRANCH   1   2
BRANCH   1   9
ATOM      9  C   UNL     1       0.539  -0.534  -1.160  0.00  0.00    +0.068 C 
BRANCH   9  10
ATOM     10  N   UNL     1      -0.119  -0.224  -2.437  0.00  0.00    -0.326 NA
ATOM     11  H   UNL     1      -0.467   0.723  -2.443  0.00  0.00    +0.119 HD
ATOM     12  H   UNL     1       0.504  -0.385  -3.213  0.00  0.00    +0.119 HD
ENDBRANCH   9  10
BRANCH   9  14
ATOM     13  C   UNL     1      -0.755   1.216   0.066  0.00  0.00    +0.005 C 
ATOM     14  C   UNL     1      -0.436  -0.278  -0.009  0.00  0.00    +0.016 C 
ENDBRANCH   9  14
ENDBRANCH   1   9
BRANCH   1  15
ATOM     15  S   UNL     1       1.862  -2.363   0.384  0.00  0.00    -0.076 S 
BRANCH  15  16
ATOM     16  C   UNL     1       2.060  -4.114   0.362  0.00  0.00    +0.192 A 
ATOM     17  N   UNL     1       2.779  -4.695   1.313  0.00  0.00    -0.227 NA
ATOM     18  C   UNL     1       2.950  -6.008   1.328  0.00  0.00    +0.046 A 
ATOM     19  C   UNL     1       2.368  -6.777   0.338  0.00  0.00    +0.095 A 
ATOM     20  C   UNL     1       1.618  -6.137  -0.648  0.00  0.00    +0.274 A 
ATOM     21  O   UNL     1       1.031  -6.853  -1.637  0.00  0.00    -0.266 OA
ATOM     22  N   UNL     1       1.483  -4.818  -0.601  0.00  0.00    -0.183 NA
ATOM     23  C   UNL     1       3.769  -6.657   2.414  0.00  0.00    +0.066 C 
ENDBRANCH  15  16
ENDBRANCH   1  15
TORSDOF 6
