REMARK  Name = ZINC13098055
REMARK  11 active torsions:
REMARK  status: ('A' for Active; 'I' for Inactive)
REMARK    1  A    between atoms: C_1  and  C_2
REMARK    2  A    between atoms: C_2  and  C_3
REMARK    3  A    between atoms: C_3  and  C_4
REMARK    4  A    between atoms: C_4  and  N_5
REMARK    5  A    between atoms: C_6  and  N_31
REMARK    6  A    between atoms: C_7  and  N_14
REMARK    7  A    between atoms: N_14  and  C_15
REMARK    8  A    between atoms: C_15  and  C_16
REMARK    9  A    between atoms: C_16  and  C_17
REMARK   10  A    between atoms: C_17  and  C_18
REMARK   11  A    between atoms: C_19  and  C_21
REMARK                            x       y       z     vdW  Elec       q    Type
REMARK                         _______ _______ _______ _____ _____    ______ ____
ROOT
ATOM      1  N   UNL     1       1.111   3.635   0.061  0.00  0.00    -0.260 N 
ATOM      2  C   UNL     1      -0.120   4.180   0.015  0.00  0.00    +0.259 C 
ATOM      3  O   UNL     1      -1.103   3.477   0.161  0.00  0.00    -0.269 OA
ENDROOT
BRANCH   2   4
ATOM      4  C   UNL     1      -0.277   5.622  -0.210  0.00  0.00    +0.094 A 
ATOM      5  C   UNL     1      -1.414   6.369  -0.169  0.00  0.00    +0.068 A 
ATOM      6  C   UNL     1      -1.354   7.754  -0.412  0.00  0.00    +0.008 A 
ATOM      7  C   UNL     1      -2.417   8.693  -0.410  0.00  0.00    +0.010 A 
ATOM      8  C   UNL     1      -2.185  10.005  -0.673  0.00  0.00    +0.001 A 
ATOM      9  C   UNL     1      -0.908  10.478  -0.954  0.00  0.00    +0.001 A 
ATOM     10  C   UNL     1       0.154   9.598  -0.967  0.00  0.00    +0.016 A 
ATOM     11  C   UNL     1      -0.065   8.263  -0.701  0.00  0.00    +0.021 A 
ATOM     12  S   UNL     1       0.976   6.827  -0.614  0.00  0.00    -0.082 S 
ATOM     13 CL   UNL     1      -2.937   5.614   0.189  0.00  0.00    -0.082 Cl
ENDBRANCH   2   4
BRANCH   1  16
ATOM     14  N   UNL     1       1.942   0.298   1.355  0.00  0.00    -0.280 N 
ATOM     15  C   UNL     1       1.810   1.666   1.289  0.00  0.00    +0.127 A 
ATOM     16  C   UNL     1       1.260   2.236   0.159  0.00  0.00    +0.140 A 
ATOM     17  C   UNL     1       0.850   1.397  -0.895  0.00  0.00    +0.277 A 
ATOM     18  O   UNL     1       0.360   1.874  -1.904  0.00  0.00    -0.266 OA
ATOM     19  N   UNL     1       1.002   0.063  -0.780  0.00  0.00    -0.273 N 
ATOM     20  H   UNL     1       0.711  -0.534  -1.527  0.00  0.00    +0.173 HD
ATOM     21  C   UNL     1       1.540  -0.474   0.329  0.00  0.00    +0.331 A 
ATOM     22  O   UNL     1       1.665  -1.681   0.407  0.00  0.00    -0.246 OA
BRANCH  15  23
ATOM     23  N   UNL     1       2.216   2.455   2.338  0.00  0.00    -0.343 N 
ATOM     24  H   UNL     1       2.531   2.046   3.159  0.00  0.00    +0.144 HD
ATOM     25  H   UNL     1       2.188   3.421   2.258  0.00  0.00    +0.144 HD
ENDBRANCH  15  23
BRANCH  14  26
ATOM     26  C   UNL     1       2.524  -0.320   2.548  0.00  0.00    +0.128 C 
BRANCH  26  27
ATOM     27  C   UNL     1       1.413  -0.634   3.553  0.00  0.00    +0.021 C 
BRANCH  27  29
ATOM     28  C   UNL     1       0.909  -1.594   5.804  0.00  0.00    +0.004 C 
ATOM     29  C   UNL     1       2.020  -1.280   4.800  0.00  0.00    -0.002 C 
ENDBRANCH  27  29
ENDBRANCH  26  27
ENDBRANCH  14  26
ENDBRANCH   1  16
BRANCH   1  30
ATOM     30  C   UNL     1       2.296   4.496   0.009  0.00  0.00    +0.114 C 
BRANCH  30  31
ATOM     31  C   UNL     1       2.705   4.713  -1.449  0.00  0.00    +0.019 C 
BRANCH  31  32
ATOM     32  C   UNL     1       3.942   5.612  -1.503  0.00  0.00    -0.002 C 
ATOM     33  C   UNL     1       4.352   5.829  -2.961  0.00  0.00    +0.004 C 
ENDBRANCH  31  32
ENDBRANCH  30  31
ENDBRANCH   1  30
TORSDOF 9
