REMARK  Name = ZINC59112455
REMARK  12 active torsions:
REMARK  status: ('A' for Active; 'I' for Inactive)
REMARK    1  A    between atoms: C_1  and  C_2
REMARK    2  A    between atoms: C_2  and  C_22
REMARK    3  A    between atoms: C_4  and  N_11
REMARK    4  A    between atoms: C_7  and  C_9
REMARK    5  A    between atoms: C_7  and  C_10
REMARK    6  A    between atoms: N_11  and  C_12
REMARK    7  A    between atoms: C_12  and  N_14
REMARK    8  A    between atoms: N_14  and  C_15
REMARK    9  A    between atoms: C_22  and  N_23
REMARK   10  A    between atoms: N_23  and  C_24
REMARK   11  A    between atoms: C_24  and  N_26
REMARK   12  A    between atoms: N_26  and  C_27
REMARK                            x       y       z     vdW  Elec       q    Type
REMARK                         _______ _______ _______ _____ _____    ______ ____
ROOT
ATOM      1  C   UNL     1      -0.438   1.248  -0.413  0.00  0.00    +0.013 C 
ATOM      2  C   UNL     1      -1.003  -0.108  -0.841  0.00  0.00    -0.014 C 
ATOM      3  C   UNL     1      -2.522  -0.070  -0.899  0.00  0.00    +0.030 C 
ATOM      4  C   UNL     1      -3.182  -0.147   0.467  0.00  0.00    +0.073 C 
ATOM      5  C   UNL     1      -2.682  -1.333   1.271  0.00  0.00    +0.028 C 
ATOM      6  C   UNL     1      -1.167  -1.412   1.367  0.00  0.00    -0.033 C 
ATOM      7  C   UNL     1      -0.471  -1.226   0.033  0.00  0.00    +0.014 C 
ATOM      8  C   UNL     1      -0.814  -2.831   1.879  0.00  0.00    +0.011 C 
ATOM      9  C   UNL     1      -0.636  -0.424   2.409  0.00  0.00    +0.011 C 
ENDROOT
BRANCH   4  10
ATOM     10  N   UNL     1      -3.067   1.106   1.206  0.00  0.00    -0.323 N 
ATOM     11  H   UNL     1      -2.342   1.719   1.011  0.00  0.00    +0.148 HD
BRANCH  10  12
ATOM     12  C   UNL     1      -3.970   1.411   2.159  0.00  0.00    +0.135 C 
ATOM     13  S   UNL     1      -5.250   0.328   2.503  0.00  0.00    -0.019 S 
BRANCH  12  14
ATOM     14  N   UNL     1      -3.864   2.568   2.842  0.00  0.00    -0.297 N 
ATOM     15  H   UNL     1      -3.094   3.142   2.707  0.00  0.00    +0.154 HD
BRANCH  14  16
ATOM     16  C   UNL     1      -4.865   2.942   3.746  0.00  0.00    +0.033 A 
ATOM     17  C   UNL     1      -4.523   3.515   4.963  0.00  0.00    +0.025 A 
ATOM     18  C   UNL     1      -5.513   3.883   5.854  0.00  0.00    +0.022 A 
ATOM     19  C   UNL     1      -6.844   3.681   5.533  0.00  0.00    +0.041 A 
ATOM     20  C   UNL     1      -7.187   3.109   4.320  0.00  0.00    +0.022 A 
ATOM     21  C   UNL     1      -6.201   2.744   3.424  0.00  0.00    +0.025 A 
ATOM     22 CL   UNL     1      -8.086   4.144   6.654  0.00  0.00    -0.084 Cl
ENDBRANCH  14  16
ENDBRANCH  12  14
ENDBRANCH  10  12
ENDBRANCH   4  10
BRANCH   2  23
ATOM     23  C   UNL     1      -0.497  -0.367  -2.283  0.00  0.00    +0.110 C 
BRANCH  23  24
ATOM     24  N   UNL     1      -0.975   0.699  -3.167  0.00  0.00    -0.326 N 
ATOM     25  H   UNL     1      -1.521   1.417  -2.810  0.00  0.00    +0.148 HD
BRANCH  24  26
ATOM     26  C   UNL     1      -0.656   0.683  -4.476  0.00  0.00    +0.135 C 
ATOM     27  S   UNL     1       0.308  -0.585  -5.106  0.00  0.00    -0.019 S 
BRANCH  26  28
ATOM     28  N   UNL     1      -1.095   1.663  -5.289  0.00  0.00    -0.297 N 
ATOM     29  H   UNL     1      -1.570   2.424  -4.920  0.00  0.00    +0.154 HD
BRANCH  28  30
ATOM     30  C   UNL     1      -0.866   1.584  -6.668  0.00  0.00    +0.033 A 
ATOM     31  C   UNL     1      -1.013   0.372  -7.329  0.00  0.00    +0.025 A 
ATOM     32  C   UNL     1      -0.786   0.297  -8.689  0.00  0.00    +0.022 A 
ATOM     33  C   UNL     1      -0.414   1.429  -9.393  0.00  0.00    +0.041 A 
ATOM     34  C   UNL     1      -0.267   2.638  -8.737  0.00  0.00    +0.022 A 
ATOM     35  C   UNL     1      -0.497   2.720  -7.378  0.00  0.00    +0.025 A 
ATOM     36 CL   UNL     1      -0.130   1.331 -11.103  0.00  0.00    -0.084 Cl
ENDBRANCH  28  30
ENDBRANCH  26  28
ENDBRANCH  24  26
ENDBRANCH  23  24
ENDBRANCH   2  23
TORSDOF 9
