REMARK  Name = ZINC39655195
REMARK  6 active torsions:
REMARK  status: ('A' for Active; 'I' for Inactive)
REMARK    1  A    between atoms: C_4  and  N_7
REMARK    2  A    between atoms: N_7  and  C_8
REMARK    3  A    between atoms: C_8  and  C_9
REMARK    4  A    between atoms: C_9  and  N_10
REMARK    5  A    between atoms: C_11  and  C_13
REMARK    6  A    between atoms: C_24  and  C_26
REMARK                            x       y       z     vdW  Elec       q    Type
REMARK                         _______ _______ _______ _____ _____    ______ ____
ROOT
ATOM      1  C   UNL     1       6.632  -5.731  -0.201  0.00  0.00    +0.100 C 
ATOM      2  C   UNL     1       5.734  -6.384  -1.276  0.00  0.00    +0.121 C 
ATOM      3  N   UNL     1       6.674  -6.821  -2.335  0.00  0.00    -0.296 N 
ATOM      4  C   UNL     1       7.851  -7.335  -1.594  0.00  0.00    +0.115 C 
ATOM      5  C   UNL     1       8.019  -6.361  -0.411  0.00  0.00    -0.004 C 
ATOM      6  C   UNL     1       8.450  -7.120   0.841  0.00  0.00    -0.010 C 
ATOM      7  C   UNL     1       9.856  -7.687   0.630  0.00  0.00    -0.082 C 
ATOM      8  N   UNL     1      10.792  -6.591   0.352  0.00  0.00    +0.379 N 
ATOM      9  C   UNL     1      10.424  -5.925  -0.903  0.00  0.00    -0.082 C 
ATOM     10  C   UNL     1       9.042  -5.283  -0.757  0.00  0.00    -0.010 C 
ATOM     11  C   UNL     1       6.499  -6.764  -3.670  0.00  0.00    +0.249 C 
ATOM     12  O   UNL     1       7.329  -7.251  -4.413  0.00  0.00    -0.270 OA
ATOM     13  H   UNL     1      10.759  -5.923   1.108  0.00  0.00    -0.086 HD
ATOM     14  H   UNL     1      11.727  -6.961   0.274  0.00  0.00    -0.086 HD
ENDROOT
BRANCH  11  15
ATOM     15  C   UNL     1       5.299  -6.111  -4.230  0.00  0.00    +0.072 A 
ATOM     16  C   UNL     1       4.075  -6.199  -3.562  0.00  0.00    +0.016 A 
ATOM     17  C   UNL     1       2.959  -5.586  -4.090  0.00  0.00    +0.001 A 
ATOM     18  C   UNL     1       3.047  -4.884  -5.281  0.00  0.00    +0.003 A 
ATOM     19  C   UNL     1       4.253  -4.791  -5.949  0.00  0.00    +0.039 A 
ATOM     20  C   UNL     1       5.383  -5.395  -5.429  0.00  0.00    +0.135 A 
ATOM     21  F   UNL     1       6.563  -5.300  -6.079  0.00  0.00    -0.205 F 
ENDBRANCH  11  15
BRANCH   1  23
ATOM     22  N   UNL     1       6.923  -3.425   0.643  0.00  0.00    -0.314 N 
ATOM     23  C   UNL     1       6.696  -4.240  -0.406  0.00  0.00    +0.218 C 
ATOM     24  O   UNL     1       6.544  -3.773  -1.515  0.00  0.00    -0.275 OA
ATOM     25  H   UNL     1       7.045  -3.798   1.530  0.00  0.00    +0.149 HD
BRANCH  22  26
ATOM     26  C   UNL     1       6.986  -1.975   0.444  0.00  0.00    +0.123 C 
BRANCH  26  27
ATOM     27  C   UNL     1       7.253  -1.287   1.784  0.00  0.00    +0.120 C 
BRANCH  27  28
ATOM     28  N   UNL     1       7.316   0.163   1.585  0.00  0.00    -0.342 N 
ATOM     29  H   UNL     1       7.194   0.537   0.698  0.00  0.00    +0.146 HD
BRANCH  28  33
ATOM     30  C   UNL     1       8.017   2.682   4.826  0.00  0.00    +0.000 A 
ATOM     31  C   UNL     1       7.843   3.216   3.562  0.00  0.00    +0.002 A 
ATOM     32  C   UNL     1       7.611   2.383   2.485  0.00  0.00    +0.023 A 
ATOM     33  C   UNL     1       7.551   1.008   2.672  0.00  0.00    +0.027 A 
ATOM     34  C   UNL     1       7.726   0.475   3.943  0.00  0.00    +0.023 A 
ATOM     35  C   UNL     1       7.958   1.313   5.015  0.00  0.00    +0.002 A 
ENDBRANCH  28  33
ENDBRANCH  27  28
ENDBRANCH  26  27
ENDBRANCH  22  26
ENDBRANCH   1  23
TORSDOF 6
