REMARK  Name = ZINC38685074
REMARK  11 active torsions:
REMARK  status: ('A' for Active; 'I' for Inactive)
REMARK    1  A    between atoms: C_1  and  C_2
REMARK    2  A    between atoms: C_2  and  C_3
REMARK    3  A    between atoms: C_3  and  C_4
REMARK    4  A    between atoms: C_4  and  O_5
REMARK    5  A    between atoms: O_5  and  C_6
REMARK    6  A    between atoms: C_10  and  C_12
REMARK    7  A    between atoms: C_17  and  O_26
REMARK    8  A    between atoms: C_21  and  N_25
REMARK    9  A    between atoms: C_22  and  C_23
REMARK   10  A    between atoms: O_26  and  C_27
REMARK   11  A    between atoms: C_27  and  C_29
REMARK                            x       y       z     vdW  Elec       q    Type
REMARK                         _______ _______ _______ _____ _____    ______ ____
ROOT
ATOM      1  C   UNL     1      -5.766  -6.378  -0.016  0.00  0.00    +0.098 C 
ATOM      2  C   UNL     1      -5.941  -7.229  -1.246  0.00  0.00    +0.008 A 
ATOM      3  C   UNL     1      -6.261  -6.627  -2.450  0.00  0.00    +0.012 A 
ATOM      4  C   UNL     1      -6.425  -7.391  -3.588  0.00  0.00    +0.047 A 
ATOM      5  C   UNL     1      -6.268  -8.769  -3.527  0.00  0.00    +0.135 A 
ATOM      6  C   UNL     1      -5.947  -9.375  -2.323  0.00  0.00    +0.093 A 
ATOM      7  C   UNL     1      -5.783  -8.604  -1.179  0.00  0.00    +0.138 A 
ATOM      8  O   UNL     1      -5.469  -9.212  -0.009  0.00  0.00    -0.441 OA
ATOM      9  C   UNL     1      -5.681  -8.576   1.155  0.00  0.00    +0.199 C 
ATOM     10  C   UNL     1      -5.830  -7.234   1.217  0.00  0.00    +0.098 C 
ENDROOT
BRANCH   1  15
ATOM     11  C   UNL     1      -3.138  -3.666  -0.127  0.00  0.00    +0.121 A 
ATOM     12  C   UNL     1      -1.972  -4.416  -0.182  0.00  0.00    +0.045 A 
ATOM     13  C   UNL     1      -2.039  -5.795  -0.183  0.00  0.00    +0.004 A 
ATOM     14  C   UNL     1      -3.267  -6.429  -0.129  0.00  0.00    +0.005 A 
ATOM     15  C   UNL     1      -4.430  -5.684  -0.074  0.00  0.00    -0.031 A 
ATOM     16  C   UNL     1      -4.368  -4.304  -0.067  0.00  0.00    +0.050 A 
BRANCH  11  17
ATOM     17  O   UNL     1      -3.074  -2.308  -0.125  0.00  0.00    -0.492 OA
BRANCH  17  18
ATOM     18  C   UNL     1      -1.774  -1.719  -0.188  0.00  0.00    +0.229 C 
BRANCH  18  19
ATOM     19  C   UNL     1      -1.903  -0.195  -0.177  0.00  0.00    +0.041 C 
BRANCH  19  21
ATOM     20  C   UNL     1      -0.640   1.960  -0.232  0.00  0.00    +0.004 C 
ATOM     21  C   UNL     1      -0.511   0.435  -0.244  0.00  0.00    -0.000 C 
ENDBRANCH  19  21
ENDBRANCH  18  19
ENDBRANCH  17  18
ENDBRANCH  11  17
ENDBRANCH   1  15
BRANCH   9  22
ATOM     22  N   UNL     1      -5.749  -9.309   2.313  0.00  0.00    -0.328 N 
ATOM     23  H   UNL     1      -5.644 -10.273   2.283  0.00  0.00    +0.145 HD
ATOM     24  H   UNL     1      -5.902  -8.864   3.161  0.00  0.00    +0.145 HD
ENDBRANCH   9  22
BRANCH  10  25
ATOM     25  C   UNL     1      -6.052  -6.616   2.490  0.00  0.00    +0.101 C 
ATOM     26  N   UNL     1      -6.228  -6.126   3.499  0.00  0.00    -0.191 NA
ENDBRANCH  10  25
BRANCH   5  27
ATOM     27  O   UNL     1      -6.430  -9.523  -4.646  0.00  0.00    -0.422 OA
BRANCH  27  28
ATOM     28  C   UNL     1      -5.507  -9.414  -5.622  0.00  0.00    +0.344 C 
ATOM     29  O   UNL     1      -4.512  -8.739  -5.443  0.00  0.00    -0.245 OA
BRANCH  28  30
ATOM     30  C   UNL     1      -5.704 -10.113  -6.907  0.00  0.00    +0.059 A 
ATOM     31  C   UNL     1      -6.849 -10.885  -7.117  0.00  0.00    +0.016 A 
ATOM     32  C   UNL     1      -7.027 -11.536  -8.319  0.00  0.00    +0.016 A 
ATOM     33  C   UNL     1      -6.073 -11.426  -9.317  0.00  0.00    +0.018 A 
ATOM     34  C   UNL     1      -4.935 -10.663  -9.115  0.00  0.00    +0.016 A 
ATOM     35  C   UNL     1      -4.748 -10.002  -7.920  0.00  0.00    +0.016 A 
ATOM     36 BR   UNL     1      -6.325 -12.322 -10.963  0.00  0.00    -0.050 Br
ENDBRANCH  28  30
ENDBRANCH  27  28
ENDBRANCH   5  27
TORSDOF 10
