REMARK  Name = ZINC14650185
REMARK  14 active torsions:
REMARK  status: ('A' for Active; 'I' for Inactive)
REMARK    1  A    between atoms: C_1  and  C_2
REMARK    2  A    between atoms: C_2  and  C_3
REMARK    3  A    between atoms: C_3  and  C_4
REMARK    4  A    between atoms: C_4  and  O_5
REMARK    5  A    between atoms: O_5  and  C_6
REMARK    6  A    between atoms: C_11  and  C_12
REMARK    7  A    between atoms: N_14  and  C_15
REMARK    8  A    between atoms: C_15  and  N_17
REMARK    9  A    between atoms: C_23  and  C_25
REMARK   10  A    between atoms: C_25  and  C_26
REMARK   11  A    between atoms: C_26  and  O_28
REMARK   12  A    between atoms: O_28  and  C_29
REMARK   13  A    between atoms: C_29  and  C_30
REMARK   14  A    between atoms: C_29  and  C_31
REMARK                            x       y       z     vdW  Elec       q    Type
REMARK                         _______ _______ _______ _____ _____    ______ ____
ROOT
ATOM      1  C   UNL     1       2.871  -0.927   5.830  0.00  0.00    +0.140 C 
ATOM      2  S   UNL     1       3.423  -1.362   4.269  0.00  0.00    -0.018 S 
ENDROOT
BRANCH   1   3
ATOM      3  N   UNL     1       3.584  -1.277   6.919  0.00  0.00    -0.299 N 
ATOM      4  C   UNL     1       4.862  -1.997   6.799  0.00  0.00    +0.126 C 
ATOM      5  C   UNL     1       4.723  -3.346   7.496  0.00  0.00    +0.123 C 
ATOM      6  N   UNL     1       4.099  -3.192   8.803  0.00  0.00    -0.312 N 
ATOM      7  C   UNL     1       3.341  -2.155   9.162  0.00  0.00    +0.234 C 
ATOM      8  O   UNL     1       2.810  -2.176  10.252  0.00  0.00    -0.274 OA
ATOM      9  C   UNL     1       3.113  -0.960   8.276  0.00  0.00    +0.171 C 
ATOM     10  H   UNL     1       4.245  -3.892   9.458  0.00  0.00    +0.149 HD
BRANCH   9  11
ATOM     11  C   UNL     1       3.893   0.238   8.822  0.00  0.00    +0.152 C 
BRANCH  11  12
ATOM     12  C   UNL     1       3.549   1.468   8.021  0.00  0.00    +0.310 C 
ATOM     13  O   UNL     1       2.833   1.377   7.052  0.00  0.00    -0.251 OA
BRANCH  12  14
ATOM     14  O   UNL     1       4.039   2.663   8.385  0.00  0.00    -0.462 OA
BRANCH  14  15
ATOM     15  C   UNL     1       3.666   3.804   7.567  0.00  0.00    +0.170 C 
ATOM     16  C   UNL     1       3.632   5.064   8.435  0.00  0.00    +0.052 C 
ATOM     17  C   UNL     1       4.692   3.985   6.447  0.00  0.00    +0.052 C 
ENDBRANCH  14  15
ENDBRANCH  12  14
ENDBRANCH  11  12
ENDBRANCH   9  11
ENDBRANCH   1   3
BRANCH   1  20
ATOM     18  C   UNL     1       1.065   0.207   4.880  0.00  0.00    +0.253 C 
ATOM     19  O   UNL     1       1.506  -0.020   3.771  0.00  0.00    -0.270 OA
ATOM     20  N   UNL     1       1.723  -0.234   5.971  0.00  0.00    -0.264 N 
ATOM     21  H   UNL     1       1.371  -0.053   6.856  0.00  0.00    +0.157 HD
BRANCH  18  27
ATOM     22  C   UNL     1      -0.878   1.426   3.902  0.00  0.00    +0.133 A 
ATOM     23  C   UNL     1      -2.062   2.132   4.058  0.00  0.00    +0.047 A 
ATOM     24  C   UNL     1      -2.557   2.385   5.322  0.00  0.00    +0.019 A 
ATOM     25  C   UNL     1      -1.877   1.936   6.443  0.00  0.00    +0.019 A 
ATOM     26  C   UNL     1      -0.699   1.232   6.307  0.00  0.00    +0.032 A 
ATOM     27  C   UNL     1      -0.191   0.965   5.034  0.00  0.00    +0.080 A 
ATOM     28 BR   UNL     1      -2.568   2.291   8.168  0.00  0.00    -0.050 Br
BRANCH  22  29
ATOM     29  O   UNL     1      -0.392   1.177   2.661  0.00  0.00    -0.491 OA
BRANCH  29  30
ATOM     30  C   UNL     1      -1.150   1.672   1.555  0.00  0.00    +0.229 C 
BRANCH  30  31
ATOM     31  C   UNL     1      -0.449   1.298   0.248  0.00  0.00    +0.041 C 
BRANCH  31  33
ATOM     32  C   UNL     1      -0.560   1.453  -2.243  0.00  0.00    +0.004 C 
ATOM     33  C   UNL     1      -1.261   1.828  -0.936  0.00  0.00    -0.000 C 
ENDBRANCH  31  33
ENDBRANCH  30  31
ENDBRANCH  29  30
ENDBRANCH  22  29
ENDBRANCH  18  27
ENDBRANCH   1  20
TORSDOF 11
