REMARK  Name = ZINC23104253
REMARK  6 active torsions:
REMARK  status: ('A' for Active; 'I' for Inactive)
REMARK    1  A    between atoms: C_1  and  C_2
REMARK    2  A    between atoms: C_2  and  C_23
REMARK    3  A    between atoms: N_5  and  C_9
REMARK    4  A    between atoms: C_9  and  C_10
REMARK    5  A    between atoms: N_12  and  C_13
REMARK    6  A    between atoms: C_18  and  N_19
REMARK                            x       y       z     vdW  Elec       q    Type
REMARK                         _______ _______ _______ _____ _____    ______ ____
ROOT
ATOM      1  C   UNL     1      -1.361  10.344   0.119  0.00  0.00    +0.047 C 
ATOM      2  C   UNL     1       0.075   9.886   0.381  0.00  0.00    +0.136 C 
ATOM      3  C   UNL     1       0.365   8.580  -0.331  0.00  0.00    +0.251 C 
ATOM      4  O   UNL     1       0.338   8.375  -1.526  0.00  0.00    -0.272 OA
ATOM      5  N   UNL     1       0.657   7.692   0.640  0.00  0.00    -0.215 N 
ATOM      6  C   UNL     1       0.600   8.253   1.854  0.00  0.00    +0.310 C 
ATOM      7  O   UNL     1       0.827   7.654   2.886  0.00  0.00    -0.252 OA
ATOM      8  N   UNL     1       0.262   9.554   1.804  0.00  0.00    -0.281 N 
ATOM      9  H   UNL     1       0.119  10.328   2.572  0.00  0.00    +0.152 HD
ENDROOT
BRANCH   2  10
ATOM     10  C   UNL     1       1.055  10.948  -0.049  0.00  0.00    +0.003 A 
ATOM     11  C   UNL     1       1.935  11.489   0.869  0.00  0.00    +0.009 A 
ATOM     12  C   UNL     1       2.837  12.458   0.474  0.00  0.00    +0.020 A 
ATOM     13  C   UNL     1       2.853  12.896  -0.838  0.00  0.00    +0.042 A 
ATOM     14  C   UNL     1       1.969  12.359  -1.756  0.00  0.00    +0.040 A 
ATOM     15  C   UNL     1       1.069  11.384  -1.362  0.00  0.00    +0.048 A 
ATOM     16 CL   UNL     1      -0.041  10.710  -2.514  0.00  0.00    -0.083 Cl
ATOM     17 CL   UNL     1       3.982  14.118  -1.332  0.00  0.00    -0.083 Cl
ENDBRANCH   2  10
BRANCH   5  18
ATOM     18  C   UNL     1       1.000   6.289   0.398  0.00  0.00    +0.214 C 
BRANCH  18  19
ATOM     19  C   UNL     1      -0.255   5.455   0.412  0.00  0.00    +0.235 C 
ATOM     20  O   UNL     1      -1.330   5.981   0.607  0.00  0.00    -0.274 OA
ATOM     21  N   UNL     1      -0.182   4.125   0.209  0.00  0.00    -0.282 N 
ATOM     22  H   UNL     1       0.799   3.635   0.120  0.00  0.00    +0.155 HD
BRANCH  21  23
ATOM     23  C   UNL     1      -1.355   3.366   0.113  0.00  0.00    +0.064 A 
ATOM     24  C   UNL     1      -2.486   3.907  -0.484  0.00  0.00    +0.027 A 
ATOM     25  C   UNL     1      -3.641   3.157  -0.578  0.00  0.00    +0.022 A 
ATOM     26  C   UNL     1      -3.672   1.867  -0.079  0.00  0.00    +0.043 A 
ATOM     27  C   UNL     1      -2.545   1.323   0.512  0.00  0.00    +0.054 A 
ATOM     28  C   UNL     1      -1.389   2.072   0.614  0.00  0.00    +0.149 A 
ATOM     29 CL   UNL     1      -5.126   0.926  -0.200  0.00  0.00    -0.083 Cl
BRANCH  28  30
ATOM     30  N   UNL     1      -0.185   1.492   1.251  0.00  0.00    +0.058 N 
ATOM     31  O   UNL     1      -0.241   0.391   1.770  0.00  0.00    -0.126 OA
ATOM     32  O   UNL     1       0.863   2.113   1.252  0.00  0.00    -0.126 OA
ENDBRANCH  28  30
ENDBRANCH  21  23
ENDBRANCH  18  19
ENDBRANCH   5  18
TORSDOF 5
