REMARK  Name = ZINC11479829
REMARK  7 active torsions:
REMARK  status: ('A' for Active; 'I' for Inactive)
REMARK    1  A    between atoms: C_1  and  C_2
REMARK    2  A    between atoms: C_5  and  N_8
REMARK    3  A    between atoms: C_12  and  C_13
REMARK    4  A    between atoms: C_23  and  S_24
REMARK    5  A    between atoms: S_24  and  C_25
REMARK    6  A    between atoms: C_25  and  C_27
REMARK    7  A    between atoms: C_25  and  C_33
REMARK                            x       y       z     vdW  Elec       q    Type
REMARK                         _______ _______ _______ _____ _____    ______ ____
ROOT
ATOM      1  N   UNL     1      -1.310   2.547   1.440  0.00  0.00    -0.214 N 
ATOM      2  C   UNL     1      -0.357   1.589   1.462  0.00  0.00    +0.275 C 
ATOM      3  O   UNL     1      -0.438   0.479   1.955  0.00  0.00    -0.268 OA
ATOM      4  C   UNL     1       0.800   2.170   0.756  0.00  0.00    +0.129 C 
ATOM      5  C   UNL     1       2.014   1.567   0.520  0.00  0.00    +0.041 C 
ATOM      6  N   UNL     1       0.420   3.429   0.385  0.00  0.00    -0.220 NA
ATOM      7  C   UNL     1      -0.805   3.645   0.787  0.00  0.00    +0.169 C 
ENDROOT
BRANCH   5   8
ATOM      8  C   UNL     1       2.201   0.148   0.834  0.00  0.00    -0.019 A 
ATOM      9  C   UNL     1       1.191  -0.777   0.539  0.00  0.00    +0.012 A 
ATOM     10  C   UNL     1       1.370  -2.110   0.836  0.00  0.00    +0.050 A 
ATOM     11  C   UNL     1       2.550  -2.543   1.427  0.00  0.00    +0.166 A 
ATOM     12  C   UNL     1       3.562  -1.628   1.725  0.00  0.00    +0.167 A 
ATOM     13  C   UNL     1       3.394  -0.290   1.425  0.00  0.00    +0.057 A 
ATOM     14  O   UNL     1       4.604  -2.301   2.295  0.00  0.00    -0.453 OA
ATOM     15  C   UNL     1       4.389  -3.687   1.970  0.00  0.00    +0.466 C 
ATOM     16  O   UNL     1       2.961  -3.785   1.813  0.00  0.00    -0.453 OA
ENDBRANCH   5   8
BRANCH   1  21
ATOM     17  C   UNL     1      -6.508   2.113   3.677  0.00  0.00    +0.044 C 
ATOM     18  C   UNL     1      -5.128   2.227   3.083  0.00  0.00    -0.050 A 
ATOM     19  C   UNL     1      -4.020   2.254   3.911  0.00  0.00    +0.005 A 
ATOM     20  C   UNL     1      -2.754   2.360   3.370  0.00  0.00    +0.024 A 
ATOM     21  C   UNL     1      -2.594   2.439   1.993  0.00  0.00    +0.044 A 
ATOM     22  C   UNL     1      -3.708   2.418   1.165  0.00  0.00    +0.024 A 
ATOM     23  C   UNL     1      -4.971   2.306   1.712  0.00  0.00    +0.005 A 
ENDBRANCH   1  21
BRANCH   7  24
ATOM     24  S   UNL     1      -1.693   5.143   0.521  0.00  0.00    -0.072 S 
BRANCH  24  25
ATOM     25  C   UNL     1      -0.442   6.095  -0.377  0.00  0.00    +0.169 C 
BRANCH  25  26
ATOM     26  C   UNL     1      -0.949   7.494  -0.613  0.00  0.00    -0.025 A 
ATOM     27  C   UNL     1      -0.154   8.580  -0.295  0.00  0.00    +0.005 A 
ATOM     28  C   UNL     1      -0.618   9.864  -0.516  0.00  0.00    +0.000 A 
ATOM     29  C   UNL     1      -1.879  10.062  -1.044  0.00  0.00    +0.000 A 
ATOM     30  C   UNL     1      -2.676   8.976  -1.357  0.00  0.00    +0.000 A 
ATOM     31  C   UNL     1      -2.211   7.693  -1.141  0.00  0.00    +0.005 A 
ENDBRANCH  25  26
BRANCH  25  32
ATOM     32  C   UNL     1      -0.163   5.432  -1.702  0.00  0.00    +0.228 C 
ATOM     33  O   UNL     1       0.917   4.920  -1.907  0.00  0.00    -0.274 OA
ATOM     34  N   UNL     1      -1.112   5.410  -2.658  0.00  0.00    -0.328 N 
ATOM     35  H   UNL     1      -1.952   5.874  -2.518  0.00  0.00    +0.145 HD
ATOM     36  H   UNL     1      -0.956   4.929  -3.486  0.00  0.00    +0.145 HD
ENDBRANCH  25  32
ENDBRANCH  24  25
ENDBRANCH   7  24
TORSDOF 6
