REMARK  Name = ZINC06232513
REMARK  7 active torsions:
REMARK  status: ('A' for Active; 'I' for Inactive)
REMARK    1  A    between atoms: C_1  and  C_2
REMARK    2  A    between atoms: C_2  and  C_39
REMARK    3  A    between atoms: C_4  and  N_9
REMARK    4  A    between atoms: C_15  and  S_16
REMARK    5  A    between atoms: S_16  and  C_17
REMARK    6  A    between atoms: C_17  and  C_18
REMARK    7  A    between atoms: C_21  and  N_24
REMARK                            x       y       z     vdW  Elec       q    Type
REMARK                         _______ _______ _______ _____ _____    ______ ____
ROOT
ATOM      1  N   UNL     1      -0.033   1.187  -2.438  0.00  0.00    -0.284 N 
ATOM      2  C   UNL     1      -0.604   0.323  -3.305  0.00  0.00    +0.259 A 
ATOM      3  O   UNL     1      -1.720  -0.124  -3.096  0.00  0.00    -0.267 OA
ATOM      4  C   UNL     1       0.112  -0.050  -4.449  0.00  0.00    +0.050 A 
ATOM      5  C   UNL     1       1.381   0.478  -4.646  0.00  0.00    +0.083 A 
ATOM      6  N   UNL     1       1.894   1.333  -3.756  0.00  0.00    -0.223 NA
ATOM      7  C   UNL     1       1.211   1.685  -2.684  0.00  0.00    +0.173 A 
ATOM      8  C   UNL     1       2.141   0.074  -5.851  0.00  0.00    +0.004 A 
ATOM      9  C   UNL     1       3.525   0.213  -5.906  0.00  0.00    +0.010 A 
ATOM     10  C   UNL     1       4.205  -0.169  -7.046  0.00  0.00    +0.001 A 
ATOM     11  C   UNL     1       3.513  -0.686  -8.126  0.00  0.00    +0.000 A 
ATOM     12  C   UNL     1       2.138  -0.828  -8.075  0.00  0.00    +0.004 A 
ATOM     13  C   UNL     1       1.447  -0.451  -6.942  0.00  0.00    -0.037 A 
ATOM     14  C   UNL     1      -0.050  -0.608  -6.873  0.00  0.00    +0.047 C 
ATOM     15  C   UNL     1      -0.473  -0.995  -5.458  0.00  0.00    +0.007 C 
ATOM     16  C   UNL     1      -2.011  -0.977  -5.357  0.00  0.00    +0.012 C 
ATOM     17  C   UNL     1      -2.424  -2.449  -5.606  0.00  0.00    +0.001 C 
ATOM     18  C   UNL     1      -1.310  -3.244  -4.881  0.00  0.00    +0.001 C 
ATOM     19  C   UNL     1      -0.026  -2.433  -5.154  0.00  0.00    +0.012 C 
ENDROOT
BRANCH   1  23
ATOM     20  C   UNL     1      -2.050   3.625   0.478  0.00  0.00    +0.041 C 
ATOM     21  C   UNL     1      -2.854   2.630  -0.360  0.00  0.00    +0.066 C 
ATOM     22  C   UNL     1      -2.069   2.277  -1.626  0.00  0.00    +0.059 C 
ATOM     23  C   UNL     1      -0.756   1.595  -1.231  0.00  0.00    +0.098 C 
ATOM     24  C   UNL     1      -1.071   0.361  -0.379  0.00  0.00    +0.053 C 
ATOM     25  C   UNL     1      -1.893   0.788   0.839  0.00  0.00    +0.162 C 
ATOM     26  O   UNL     1      -3.086   1.444   0.402  0.00  0.00    -0.374 OA
ATOM     27  C   UNL     1      -4.194   3.257  -0.750  0.00  0.00    +0.041 C 
ENDBRANCH   1  23
BRANCH   7  28
ATOM     28  S   UNL     1       1.925   2.822  -1.543  0.00  0.00    -0.083 S 
BRANCH  28  29
ATOM     29  C   UNL     1       3.513   3.128  -2.356  0.00  0.00    +0.112 C 
BRANCH  29  30
ATOM     30  C   UNL     1       4.319   4.101  -1.534  0.00  0.00    -0.037 A 
ATOM     31  C   UNL     1       4.207   5.459  -1.765  0.00  0.00    +0.007 A 
ATOM     32  C   UNL     1       4.943   6.352  -1.008  0.00  0.00    +0.033 A 
ATOM     33  C   UNL     1       5.797   5.886  -0.027  0.00  0.00    +0.126 A 
ATOM     34  C   UNL     1       5.913   4.527   0.201  0.00  0.00    +0.033 A 
ATOM     35  C   UNL     1       5.173   3.635  -0.553  0.00  0.00    +0.007 A 
BRANCH  33  36
ATOM     36  N   UNL     1       6.588   6.841   0.781  0.00  0.00    +0.056 N 
ATOM     37  O   UNL     1       7.340   6.431   1.647  0.00  0.00    -0.126 OA
ATOM     38  O   UNL     1       6.486   8.038   0.581  0.00  0.00    -0.126 OA
ENDBRANCH  33  36
ENDBRANCH  29  30
ENDBRANCH  28  29
ENDBRANCH   7  28
TORSDOF 5
