REMARK  Name = ZINC20149651
REMARK  2 active torsions:
REMARK  status: ('A' for Active; 'I' for Inactive)
REMARK    1  A    between atoms: C_7  and  C_11
REMARK    2  A    between atoms: N_15  and  C_19
REMARK                            x       y       z     vdW  Elec       q    Type
REMARK                         _______ _______ _______ _____ _____    ______ ____
ROOT
ATOM      1  C   UNL     1      -0.822  -0.128  -1.125  0.00  0.00    +0.030 C 
ATOM      2  C   UNL     1       0.119   0.378  -0.282  0.00  0.00    +0.078 C 
ATOM      3  C   UNL     1       1.526   0.140  -0.244  0.00  0.00    +0.263 C 
ATOM      4  O   UNL     1       2.057  -0.610  -1.043  0.00  0.00    -0.269 OA
ATOM      5  N   UNL     1       2.236   0.759   0.683  0.00  0.00    -0.223 N 
ATOM      6  C   UNL     1       1.647   1.593   1.570  0.00  0.00    +0.125 C 
ATOM      7  S   UNL     1       2.364   2.489   2.840  0.00  0.00    -0.027 S 
ATOM      8  S   UNL     1      -0.070   1.522   1.079  0.00  0.00    -0.061 S 
ENDROOT
BRANCH   1  15
ATOM      9  C   UNL     1      -4.780  -2.030  -2.745  0.00  0.00    +0.001 A 
ATOM     10  C   UNL     1      -5.910  -1.393  -2.251  0.00  0.00    +0.002 A 
ATOM     11  C   UNL     1      -5.794  -0.333  -1.379  0.00  0.00    +0.026 A 
ATOM     12  C   UNL     1      -4.534   0.117  -0.997  0.00  0.00    +0.047 A 
ATOM     13  C   UNL     1      -3.392  -0.527  -1.500  0.00  0.00    +0.007 A 
ATOM     14  C   UNL     1      -3.524  -1.603  -2.374  0.00  0.00    +0.010 A 
ATOM     15  C   UNL     1      -2.237   0.175  -0.908  0.00  0.00    +0.001 A 
ATOM     16  C   UNL     1      -2.750   1.169  -0.121  0.00  0.00    +0.091 A 
ATOM     17  N   UNL     1      -4.106   1.137  -0.172  0.00  0.00    -0.360 N 
ATOM     18  H   UNL     1      -4.842   1.781   0.332  0.00  0.00    +0.165 HD
ENDBRANCH   1  15
BRANCH   5  19
ATOM     19  C   UNL     1       3.621   0.548   0.749  0.00  0.00    +0.046 A 
ATOM     20  C   UNL     1       4.475   1.294  -0.052  0.00  0.00    +0.028 A 
ATOM     21  C   UNL     1       5.840   1.088   0.011  0.00  0.00    +0.051 A 
ATOM     22  C   UNL     1       6.360   0.136   0.873  0.00  0.00    +0.166 A 
ATOM     23  C   UNL     1       5.506  -0.613   1.678  0.00  0.00    +0.168 A 
ATOM     24  C   UNL     1       4.138  -0.402   1.618  0.00  0.00    +0.073 A 
ATOM     25  O   UNL     1       6.255  -1.472   2.429  0.00  0.00    -0.453 OA
ATOM     26  C   UNL     1       7.599  -0.958   2.376  0.00  0.00    +0.466 C 
ATOM     27  O   UNL     1       7.646  -0.253   1.121  0.00  0.00    -0.453 OA
ENDBRANCH   5  19
TORSDOF 2
