REMARK  Name = ZINC02312202
REMARK  9 active torsions:
REMARK  status: ('A' for Active; 'I' for Inactive)
REMARK    1  A    between atoms: C_1  and  C_2
REMARK    2  A    between atoms: C_2  and  C_3
REMARK    3  A    between atoms: C_2  and  C_4
REMARK    4  A    between atoms: C_7  and  C_10
REMARK    5  A    between atoms: C_16  and  S_20
REMARK    6  A    between atoms: C_17  and  C_18
REMARK    7  A    between atoms: S_20  and  C_21
REMARK    8  A    between atoms: C_21  and  C_22
REMARK    9  A    between atoms: N_24  and  C_25
REMARK                            x       y       z     vdW  Elec       q    Type
REMARK                         _______ _______ _______ _____ _____    ______ ____
ROOT
ATOM      1  C   UNL     1      11.241  -1.059  -0.780  0.00  0.00    +0.070 C 
ATOM      2  C   UNL     1      10.974  -2.317   0.048  0.00  0.00    +0.109 C 
ATOM      3  C   UNL     1       9.592  -2.834  -0.252  0.00  0.00    +0.218 C 
ATOM      4  O   UNL     1       9.382  -4.029  -0.248  0.00  0.00    -0.275 OA
ATOM      5  N   UNL     1       8.588  -1.981  -0.520  0.00  0.00    -0.279 N 
ATOM      6  C   UNL     1       8.806  -0.619  -0.541  0.00  0.00    +0.082 C 
ATOM      7  C   UNL     1      10.067  -0.122  -0.661  0.00  0.00    +0.065 C 
ATOM      8  H   UNL     1       7.702  -2.328  -0.705  0.00  0.00    +0.155 HD
ENDROOT
BRANCH   1  12
ATOM      9  C   UNL     1      11.792  -2.140  -4.875  0.00  0.00    -0.045 A 
ATOM     10  C   UNL     1      12.804  -1.496  -4.189  0.00  0.00    +0.004 A 
ATOM     11  C   UNL     1      12.626  -1.146  -2.863  0.00  0.00    +0.004 A 
ATOM     12  C   UNL     1      11.436  -1.440  -2.225  0.00  0.00    -0.039 A 
ATOM     13  C   UNL     1      10.426  -2.089  -2.910  0.00  0.00    +0.004 A 
ATOM     14  C   UNL     1      10.602  -2.435  -4.237  0.00  0.00    +0.004 A 
BRANCH   9  16
ATOM     15  C   UNL     1      11.853  -4.037  -6.471  0.00  0.00    +0.012 C 
ATOM     16  C   UNL     1      11.986  -2.521  -6.321  0.00  0.00    +0.013 C 
ATOM     17  C   UNL     1      10.925  -1.827  -7.177  0.00  0.00    +0.012 C 
ENDBRANCH   9  16
ENDBRANCH   1  12
BRANCH   7  18
ATOM     18  C   UNL     1      10.279   1.294  -0.675  0.00  0.00    +0.098 C 
ATOM     19  N   UNL     1      10.447   2.418  -0.687  0.00  0.00    -0.191 NA
ENDBRANCH   7  18
BRANCH   6  20
ATOM     20  S   UNL     1       7.440   0.486  -0.403  0.00  0.00    -0.100 S 
BRANCH  20  21
ATOM     21  C   UNL     1       6.083  -0.705  -0.276  0.00  0.00    +0.171 C 
BRANCH  21  22
ATOM     22  C   UNL     1       4.776   0.034  -0.146  0.00  0.00    +0.227 C 
ATOM     23  O   UNL     1       4.764   1.247  -0.139  0.00  0.00    -0.275 OA
ATOM     24  N   UNL     1       3.622  -0.653  -0.037  0.00  0.00    -0.285 N 
ATOM     25  H   UNL     1       3.638  -1.620   0.035  0.00  0.00    +0.155 HD
BRANCH  24  26
ATOM     26  C   UNL     1       2.400   0.030  -0.027  0.00  0.00    +0.035 A 
ATOM     27  C   UNL     1       2.247   1.194  -0.769  0.00  0.00    +0.025 A 
ATOM     28  C   UNL     1       1.041   1.866  -0.757  0.00  0.00    +0.023 A 
ATOM     29  C   UNL     1      -0.016   1.381  -0.007  0.00  0.00    +0.059 A 
ATOM     30  C   UNL     1       0.133   0.221   0.734  0.00  0.00    +0.061 A 
ATOM     31  C   UNL     1       1.339  -0.455   0.726  0.00  0.00    +0.044 A 
ATOM     32 CL   UNL     1      -1.195  -0.384   1.674  0.00  0.00    -0.082 Cl
ATOM     33 CL   UNL     1      -1.529   2.233   0.011  0.00  0.00    -0.082 Cl
ENDBRANCH  24  26
ENDBRANCH  21  22
ENDBRANCH  20  21
ENDBRANCH   6  20
TORSDOF 7
