REMARK  Name = ZINC22820495
REMARK  6 active torsions:
REMARK  status: ('A' for Active; 'I' for Inactive)
REMARK    1  A    between atoms: C_9  and  O_37
REMARK    2  A    between atoms: C_10  and  C_11
REMARK    3  A    between atoms: C_24  and  S_26
REMARK    4  A    between atoms: S_26  and  C_27
REMARK    5  A    between atoms: C_27  and  C_28
REMARK    6  A    between atoms: C_31  and  N_34
REMARK                            x       y       z     vdW  Elec       q    Type
REMARK                         _______ _______ _______ _____ _____    ______ ____
ROOT
ATOM      1  C   UNL     1       4.960   0.163  -0.046  0.00  0.00    +0.179 C 
ATOM      2  C   UNL     1       5.711  -0.098   1.241  0.00  0.00    +0.041 C 
ATOM      3  C   UNL     1       6.808  -0.883   1.286  0.00  0.00    +0.020 C 
ATOM      4  C   UNL     1       7.527  -1.139   2.589  0.00  0.00    +0.052 C 
ATOM      5  C   UNL     1       7.389   0.082   3.501  0.00  0.00    +0.014 C 
ATOM      6  C   UNL     1       5.897   0.343   3.735  0.00  0.00    +0.080 C 
ATOM      7  C   UNL     1       5.218   0.519   2.405  0.00  0.00    +0.163 C 
ATOM      8  O   UNL     1       4.220   1.210   2.335  0.00  0.00    -0.292 OA
ATOM      9  N   UNL     1       7.320  -1.477   0.157  0.00  0.00    -0.287 N 
ATOM     10  C   UNL     1       6.872  -1.029  -1.075  0.00  0.00    +0.219 A 
ATOM     11  N   UNL     1       5.767  -0.255  -1.185  0.00  0.00    -0.220 N 
ATOM     12  N   UNL     1       5.608   0.016  -2.543  0.00  0.00    -0.141 NA
ATOM     13  C   UNL     1       6.591  -0.594  -3.169  0.00  0.00    +0.211 A 
ATOM     14  N   UNL     1       7.353  -1.225  -2.273  0.00  0.00    -0.187 NA
ATOM     15  H   UNL     1       7.976  -2.189   0.221  0.00  0.00    +0.155 HD
ENDROOT
BRANCH   1  25
ATOM     16  C   UNL     1      -0.008   1.337  -0.412  0.00  0.00    +0.001 A 
ATOM     17  C   UNL     1       1.177   2.071  -0.422  0.00  0.00    +0.001 A 
ATOM     18  C   UNL     1       2.384   1.455  -0.301  0.00  0.00    +0.009 A 
ATOM     19  C   UNL     1       2.441   0.057  -0.164  0.00  0.00    -0.009 A 
ATOM     20  C   UNL     1       1.235  -0.690  -0.154  0.00  0.00    -0.017 A 
ATOM     21  C   UNL     1       0.008  -0.017  -0.281  0.00  0.00    +0.008 A 
ATOM     22  C   UNL     1       1.290  -2.087  -0.016  0.00  0.00    +0.012 A 
ATOM     23  C   UNL     1       2.494  -2.707   0.105  0.00  0.00    +0.046 A 
ATOM     24  C   UNL     1       3.684  -1.973   0.096  0.00  0.00    +0.123 A 
ATOM     25  C   UNL     1       3.668  -0.613  -0.037  0.00  0.00    +0.031 A 
BRANCH  24  26
ATOM     26  O   UNL     1       4.872  -2.620   0.220  0.00  0.00    -0.506 OA
ATOM     27  H   UNL     1       5.262  -2.893  -0.623  0.00  0.00    +0.292 HD
ENDBRANCH  24  26
ENDBRANCH   1  25
BRANCH  13  28
ATOM     28  S   UNL     1       6.862  -0.579  -4.910  0.00  0.00    -0.080 S 
BRANCH  28  29
ATOM     29  C   UNL     1       8.353  -1.588  -5.131  0.00  0.00    +0.112 C 
BRANCH  29  30
ATOM     30  C   UNL     1       8.699  -1.658  -6.596  0.00  0.00    -0.037 A 
ATOM     31  C   UNL     1       8.174  -2.666  -7.384  0.00  0.00    +0.007 A 
ATOM     32  C   UNL     1       8.492  -2.730  -8.727  0.00  0.00    +0.033 A 
ATOM     33  C   UNL     1       9.335  -1.786  -9.284  0.00  0.00    +0.126 A 
ATOM     34  C   UNL     1       9.859  -0.778  -8.497  0.00  0.00    +0.033 A 
ATOM     35  C   UNL     1       9.538  -0.711  -7.154  0.00  0.00    +0.007 A 
BRANCH  33  36
ATOM     36  N   UNL     1       9.675  -1.855 -10.723  0.00  0.00    +0.056 N 
ATOM     37  O   UNL     1       9.217  -2.737 -11.411  0.00  0.00    -0.126 OA
ATOM     38  O   UNL     1      10.412  -1.030 -11.210  0.00  0.00    -0.126 OA
ENDBRANCH  33  36
ENDBRANCH  29  30
ENDBRANCH  28  29
ENDBRANCH  13  28
TORSDOF 6
