REMARK  Name = ZINC04555311
REMARK  7 active torsions:
REMARK  status: ('A' for Active; 'I' for Inactive)
REMARK    1  A    between atoms: C_1  and  C_2
REMARK    2  A    between atoms: C_2  and  C_3
REMARK    3  A    between atoms: C_2  and  N_50
REMARK    4  A    between atoms: C_11  and  O_27
REMARK    5  A    between atoms: C_13  and  C_16
REMARK    6  A    between atoms: C_17  and  C_18
REMARK    7  A    between atoms: C_23  and  N_24
REMARK                            x       y       z     vdW  Elec       q    Type
REMARK                         _______ _______ _______ _____ _____    ______ ____
ROOT
ATOM      1  C   UNL     1       0.119  -0.121   2.010  0.00  0.00    -0.073 C 
ATOM      2  C   UNL     1      -0.314  -1.436   1.356  0.00  0.00    +0.018 C 
ATOM      3  C   UNL     1       0.640  -2.534   1.815  0.00  0.00    -0.027 A 
ATOM      4  C   UNL     1       1.838  -2.205   2.355  0.00  0.00    -0.021 A 
ATOM      5  S   UNL     1       2.603  -3.756   2.740  0.00  0.00    -0.080 S 
ATOM      6  C   UNL     1       1.365  -4.806   2.200  0.00  0.00    +0.080 A 
ATOM      7  C   UNL     1       0.362  -3.953   1.717  0.00  0.00    +0.067 A 
ATOM      8  C   UNL     1      -0.859  -4.590   1.159  0.00  0.00    +0.220 C 
ATOM      9  N   UNL     1      -1.029  -5.867   1.372  0.00  0.00    -0.223 NA
ATOM     10  C   UNL     1      -0.141  -6.699   2.173  0.00  0.00    +0.217 C 
ATOM     11  N   UNL     1       1.237  -6.173   2.181  0.00  0.00    -0.313 N 
ATOM     12  C   UNL     1       2.371  -0.823   2.564  0.00  0.00    -0.035 C 
ATOM     13  H   UNL     1       2.010  -6.760   2.174  0.00  0.00    +0.149 HD
ATOM     14  N   UNL     1       1.555   0.107   1.747  0.00  0.00    +0.384 N 
ATOM     15  H   UNL     1       1.744  -0.067   0.753  0.00  0.00    -0.081 HD
ENDROOT
BRANCH  14  17
ATOM     16  C   UNL     1       3.425   1.681   1.928  0.00  0.00    -0.014 C 
ATOM     17  C   UNL     1       1.911   1.507   2.066  0.00  0.00    -0.074 C 
ATOM     18  C   UNL     1       1.199   2.436   1.081  0.00  0.00    -0.014 C 
ENDBRANCH  14  17
BRANCH  10  19
ATOM     19  C   UNL     1      -0.655  -6.748   3.589  0.00  0.00    +0.019 C 
ATOM     20  C   UNL     1      -0.857  -7.917   4.181  0.00  0.00    +0.009 C 
BRANCH  20  21
ATOM     21  C   UNL     1      -0.427  -9.166   3.517  0.00  0.00    +0.005 A 
ATOM     22  C   UNL     1       0.810  -9.227   2.874  0.00  0.00    +0.010 A 
ATOM     23  C   UNL     1       1.206 -10.396   2.257  0.00  0.00    +0.001 A 
ATOM     24  C   UNL     1       0.379 -11.505   2.274  0.00  0.00    +0.002 A 
ATOM     25  C   UNL     1      -0.848 -11.451   2.910  0.00  0.00    +0.033 A 
ATOM     26  C   UNL     1      -1.254 -10.289   3.535  0.00  0.00    +0.133 A 
BRANCH  26  27
ATOM     27  N   UNL     1      -2.565 -10.234   4.220  0.00  0.00    +0.057 N 
ATOM     28  O   UNL     1      -3.240 -11.243   4.324  0.00  0.00    -0.126 OA
ATOM     29  O   UNL     1      -2.968  -9.181   4.679  0.00  0.00    -0.126 OA
ENDBRANCH  26  27
ENDBRANCH  20  21
ENDBRANCH  10  19
BRANCH   8  30
ATOM     30  O   UNL     1      -1.763  -3.872   0.454  0.00  0.00    -0.492 OA
ATOM     31  H   UNL     1      -2.518  -4.389   0.140  0.00  0.00    +0.294 HD
ENDBRANCH   8  30
TORSDOF 5
