REMARK  Name = ZINC41584560
REMARK  6 active torsions:
REMARK  status: ('A' for Active; 'I' for Inactive)
REMARK    1  A    between atoms: C_1  and  C_2
REMARK    2  A    between atoms: C_4  and  O_32
REMARK    3  A    between atoms: C_5  and  C_18
REMARK    4  A    between atoms: C_11  and  C_12
REMARK    5  A    between atoms: C_18  and  N_19
REMARK    6  A    between atoms: C_24  and  C_26
REMARK                            x       y       z     vdW  Elec       q    Type
REMARK                         _______ _______ _______ _____ _____    ______ ____
ROOT
ATOM      1  C   UNL     1      -1.588   1.094  -1.027  0.00  0.00    +0.045 C 
ATOM      2  C   UNL     1      -1.269  -0.355  -0.760  0.00  0.00    -0.033 A 
ATOM      3  C   UNL     1      -0.918  -0.758   0.497  0.00  0.00    +0.050 A 
ATOM      4  C   UNL     1      -0.622  -2.096   0.747  0.00  0.00    +0.122 A 
ATOM      5  C   UNL     1      -0.680  -3.032  -0.273  0.00  0.00    +0.020 A 
ATOM      6  C   UNL     1      -1.035  -2.638  -1.555  0.00  0.00    +0.145 A 
ATOM      7  C   UNL     1      -1.337  -1.287  -1.795  0.00  0.00    +0.071 A 
ATOM      8  C   UNL     1      -1.678  -1.193  -3.225  0.00  0.00    +0.232 C 
ATOM      9  O   UNL     1      -1.997  -0.193  -3.847  0.00  0.00    -0.283 OA
ATOM     10  C   UNL     1      -1.555  -2.517  -3.725  0.00  0.00    +0.177 C 
ATOM     11  C   UNL     1      -1.778  -2.906  -5.014  0.00  0.00    +0.065 C 
ATOM     12  O   UNL     1      -1.167  -3.325  -2.711  0.00  0.00    -0.451 OA
ENDROOT
BRANCH  11  13
ATOM     13  C   UNL     1      -1.709  -4.274  -5.360  0.00  0.00    +0.016 A 
ATOM     14  C   UNL     1      -1.801  -4.867  -6.617  0.00  0.00    +0.015 A 
ATOM     15  C   UNL     1      -1.696  -6.236  -6.636  0.00  0.00    +0.008 A 
ATOM     16  C   UNL     1      -1.516  -6.901  -5.467  0.00  0.00    +0.046 A 
ATOM     17  S   UNL     1      -1.475  -5.690  -4.304  0.00  0.00    -0.097 S 
ENDBRANCH  11  13
BRANCH   4  18
ATOM     18  O   UNL     1      -0.274  -2.485   2.000  0.00  0.00    -0.506 OA
ATOM     19  H   UNL     1      -1.023  -2.751   2.551  0.00  0.00    +0.292 HD
ENDBRANCH   4  18
BRANCH   5  20
ATOM     20  C   UNL     1      -0.356  -4.477   0.010  0.00  0.00    -0.035 C 
BRANCH  20  21
ATOM     21  N   UNL     1       1.099  -4.672  -0.041  0.00  0.00    +0.387 N 
ATOM     22  C   UNL     1       1.578  -4.417  -1.404  0.00  0.00    -0.078 C 
ATOM     23  C   UNL     1       3.103  -4.539  -1.444  0.00  0.00    -0.019 C 
ATOM     24  C   UNL     1       3.507  -5.953  -1.016  0.00  0.00    -0.003 C 
ATOM     25  C   UNL     1       2.939  -6.235   0.378  0.00  0.00    -0.011 C 
ATOM     26  C   UNL     1       1.420  -6.050   0.351  0.00  0.00    -0.036 C 
ATOM     27  H   UNL     1       1.545  -4.029   0.597  0.00  0.00    -0.080 HD
BRANCH  26  28
ATOM     28  C   UNL     1       0.856  -6.327   1.720  0.00  0.00    -0.043 A 
ATOM     29  C   UNL     1       0.146  -7.493   1.965  0.00  0.00    +0.005 A 
ATOM     30  C   UNL     1      -0.354  -7.705   3.240  0.00  0.00    +0.020 A 
ATOM     31  C   UNL     1      -0.131  -6.755   4.218  0.00  0.00    +0.111 A 
ATOM     32  N   UNL     1       0.549  -5.657   3.950  0.00  0.00    -0.263 NA
ATOM     33  C   UNL     1       1.044  -5.425   2.750  0.00  0.00    +0.112 A 
ENDBRANCH  26  28
ENDBRANCH  20  21
ENDBRANCH   5  20
TORSDOF 5
