REMARK  Name = ZINC42133461
REMARK  15 active torsions:
REMARK  status: ('A' for Active; 'I' for Inactive)
REMARK    1  A    between atoms: C_1  and  C_2
REMARK    2  A    between atoms: C_2  and  C_3
REMARK    3  A    between atoms: C_3  and  C_4
REMARK    4  A    between atoms: C_4  and  N_5
REMARK    5  A    between atoms: C_6  and  N_31
REMARK    6  A    between atoms: C_7  and  N_14
REMARK    7  A    between atoms: N_14  and  C_15
REMARK    8  A    between atoms: C_15  and  C_16
REMARK    9  A    between atoms: C_17  and  C_19
REMARK   10  A    between atoms: C_19  and  N_20
REMARK   11  A    between atoms: N_20  and  C_21
REMARK   12  A    between atoms: N_20  and  C_23
REMARK   13  A    between atoms: C_21  and  C_22
REMARK   14  A    between atoms: C_23  and  C_24
REMARK   15  A    between atoms: C_29  and  C_30
REMARK                            x       y       z     vdW  Elec       q    Type
REMARK                         _______ _______ _______ _____ _____    ______ ____
ROOT
ATOM      1  N   UNL     1       4.759  -3.180   3.215  0.00  0.00    -0.266 N 
ATOM      2  C   UNL     1       5.566  -2.880   2.176  0.00  0.00    +0.203 C 
ATOM      3  O   UNL     1       5.108  -2.353   1.185  0.00  0.00    -0.277 OA
ENDROOT
BRANCH   1   6
ATOM      4  N   UNL     1       1.604  -1.490   4.046  0.00  0.00    -0.280 N 
ATOM      5  C   UNL     1       2.930  -1.854   4.093  0.00  0.00    +0.127 A 
ATOM      6  C   UNL     1       3.405  -2.786   3.193  0.00  0.00    +0.140 A 
ATOM      7  C   UNL     1       2.514  -3.337   2.252  0.00  0.00    +0.277 A 
ATOM      8  O   UNL     1       2.907  -4.164   1.446  0.00  0.00    -0.266 OA
ATOM      9  N   UNL     1       1.225  -2.946   2.249  0.00  0.00    -0.273 N 
ATOM     10  H   UNL     1       0.611  -3.325   1.601  0.00  0.00    +0.173 HD
ATOM     11  C   UNL     1       0.779  -2.040   3.137  0.00  0.00    +0.331 A 
ATOM     12  O   UNL     1      -0.391  -1.708   3.115  0.00  0.00    -0.246 OA
BRANCH   5  13
ATOM     13  N   UNL     1       3.772  -1.295   5.024  0.00  0.00    -0.343 N 
ATOM     14  H   UNL     1       3.450  -0.591   5.609  0.00  0.00    +0.144 HD
ATOM     15  H   UNL     1       4.688  -1.605   5.098  0.00  0.00    +0.144 HD
ENDBRANCH   5  13
BRANCH   4  16
ATOM     16  C   UNL     1       1.087  -0.501   4.995  0.00  0.00    +0.128 C 
BRANCH  16  17
ATOM     17  C   UNL     1       0.590  -1.214   6.254  0.00  0.00    +0.021 C 
BRANCH  17  19
ATOM     18  C   UNL     1      -0.448  -0.894   8.504  0.00  0.00    +0.004 C 
ATOM     19  C   UNL     1       0.049  -0.181   7.245  0.00  0.00    -0.002 C 
ENDBRANCH  17  19
ENDBRANCH  16  17
ENDBRANCH   4  16
ENDBRANCH   1   6
BRANCH   1  20
ATOM     20  C   UNL     1       5.289  -3.915   4.367  0.00  0.00    +0.110 C 
ATOM     21  C   UNL     1       5.232  -5.418   4.083  0.00  0.00    +0.025 C 
ENDBRANCH   1  20
BRANCH   2  22
ATOM     22  C   UNL     1       7.037  -3.200   2.248  0.00  0.00    +0.020 C 
BRANCH  22  23
ATOM     23  N   UNL     1       7.691  -2.779   1.002  0.00  0.00    +0.388 N 
ATOM     24  H   UNL     1       7.225  -3.206   0.216  0.00  0.00    -0.081 HD
BRANCH  23  25
ATOM     25  C   UNL     1       7.617  -1.317   0.881  0.00  0.00    -0.081 C 
ATOM     26  C   UNL     1       8.154  -0.891  -0.487  0.00  0.00    -0.017 C 
ENDBRANCH  23  25
BRANCH  23  27
ATOM     27  C   UNL     1       9.099  -3.198   1.022  0.00  0.00    -0.042 C 
BRANCH  27  28
ATOM     28  C   UNL     1       9.175  -4.703   1.023  0.00  0.00    -0.061 A 
ATOM     29  C   UNL     1       9.411  -5.383   2.204  0.00  0.00    +0.002 A 
ATOM     30  C   UNL     1       9.481  -6.763   2.205  0.00  0.00    +0.000 A 
ATOM     31  C   UNL     1       9.315  -7.464   1.025  0.00  0.00    +0.000 A 
ATOM     32  C   UNL     1       9.078  -6.785  -0.155  0.00  0.00    +0.003 A 
ATOM     33  C   UNL     1       9.004  -5.404  -0.155  0.00  0.00    -0.049 A 
ATOM     34  C   UNL     1       8.741  -4.664  -1.441  0.00  0.00    +0.044 C 
ENDBRANCH  27  28
ENDBRANCH  23  27
ENDBRANCH  22  23
ENDBRANCH   2  22
TORSDOF 11
