REMARK  Name = ZINC35449577
REMARK  13 active torsions:
REMARK  status: ('A' for Active; 'I' for Inactive)
REMARK    1  A    between atoms: C_1  and  C_2
REMARK    2  A    between atoms: C_2  and  C_3
REMARK    3  A    between atoms: C_2  and  C_4
REMARK    4  A    between atoms: C_4  and  C_5
REMARK    5  A    between atoms: C_5  and  S_6
REMARK    6  A    between atoms: S_6  and  C_7
REMARK    7  A    between atoms: C_14  and  C_24
REMARK    8  A    between atoms: C_26  and  O_34
REMARK    9  A    between atoms: C_27  and  O_32
REMARK   10  A    between atoms: C_28  and  O_30
REMARK   11  A    between atoms: O_30  and  C_31
REMARK   12  A    between atoms: O_32  and  C_33
REMARK   13  A    between atoms: O_34  and  C_35
REMARK                            x       y       z     vdW  Elec       q    Type
REMARK                         _______ _______ _______ _____ _____    ______ ____
ROOT
ATOM      1  C   UNL     1      -4.502  -0.221  -2.813  0.00  0.00    +0.171 A 
ATOM      2  N   UNL     1      -3.741   0.469  -3.638  0.00  0.00    -0.208 NA
ATOM      3  C   UNL     1      -4.209   0.895  -4.816  0.00  0.00    +0.135 A 
ATOM      4  C   UNL     1      -5.512   0.607  -5.185  0.00  0.00    +0.069 A 
ATOM      5  C   UNL     1      -6.316  -0.125  -4.303  0.00  0.00    +0.258 A 
ATOM      6  O   UNL     1      -7.471  -0.395  -4.594  0.00  0.00    -0.267 OA
ATOM      7  N   UNL     1      -5.790  -0.531  -3.129  0.00  0.00    -0.302 N 
ATOM      8  C   UNL     1      -6.055   1.064  -6.506  0.00  0.00    +0.093 C 
ATOM      9  C   UNL     1      -5.210   2.163  -7.096  0.00  0.00    +0.024 C 
ATOM     10  C   UNL     1      -3.952   2.389  -6.662  0.00  0.00    +0.017 C 
ATOM     11  N   UNL     1      -3.403   1.623  -5.669  0.00  0.00    -0.302 N 
ATOM     12  C   UNL     1      -3.112   3.495  -7.253  0.00  0.00    +0.051 C 
ATOM     13  C   UNL     1      -3.500   3.708  -8.718  0.00  0.00    +0.014 C 
ATOM     14  C   UNL     1      -4.992   4.050  -8.779  0.00  0.00    +0.080 C 
ATOM     15  C   UNL     1      -5.774   2.948  -8.118  0.00  0.00    +0.162 C 
ATOM     16  O   UNL     1      -6.915   2.730  -8.475  0.00  0.00    -0.292 OA
ATOM     17  H   UNL     1      -2.439   1.592  -5.563  0.00  0.00    +0.153 HD
ATOM     18  H   UNL     1      -6.331  -1.041  -2.506  0.00  0.00    +0.171 HD
ENDROOT
BRANCH   8  19
ATOM     19  C   UNL     1      -6.080  -0.103  -7.459  0.00  0.00    -0.028 A 
ATOM     20  C   UNL     1      -4.906  -0.759  -7.777  0.00  0.00    +0.054 A 
ATOM     21  C   UNL     1      -4.924  -1.833  -8.654  0.00  0.00    +0.165 A 
ATOM     22  C   UNL     1      -6.126  -2.250  -9.213  0.00  0.00    +0.204 A 
ATOM     23  C   UNL     1      -7.305  -1.589  -8.890  0.00  0.00    +0.165 A 
ATOM     24  C   UNL     1      -7.279  -0.519  -8.008  0.00  0.00    +0.054 A 
BRANCH  23  25
ATOM     25  O   UNL     1      -8.484  -1.993  -9.435  0.00  0.00    -0.491 OA
ATOM     26  C   UNL     1      -9.656  -1.266  -9.058  0.00  0.00    +0.277 C 
ENDBRANCH  23  25
BRANCH  22  27
ATOM     27  O   UNL     1      -6.149  -3.303 -10.075  0.00  0.00    -0.488 OA
ATOM     28  C   UNL     1      -6.338  -4.601  -9.508  0.00  0.00    +0.277 C 
ENDBRANCH  22  27
BRANCH  21  29
ATOM     29  O   UNL     1      -3.768  -2.477  -8.967  0.00  0.00    -0.491 OA
ATOM     30  C   UNL     1      -2.570  -1.994  -8.355  0.00  0.00    +0.277 C 
ENDBRANCH  21  29
ENDBRANCH   8  19
BRANCH   1  31
ATOM     31  S   UNL     1      -3.837  -0.759  -1.273  0.00  0.00    -0.088 S 
BRANCH  31  32
ATOM     32  C   UNL     1      -2.135  -0.131  -1.286  0.00  0.00    +0.077 C 
BRANCH  32  33
ATOM     33  C   UNL     1      -1.433  -0.534   0.013  0.00  0.00    +0.014 C 
BRANCH  33  35
ATOM     34  C   UNL     1      -0.019   1.526   0.010  0.00  0.00    +0.007 C 
ATOM     35  C   UNL     1       0.002  -0.004   0.002  0.00  0.00    -0.016 C 
ATOM     36  C   UNL     1       0.742  -0.511   1.242  0.00  0.00    +0.007 C 
ENDBRANCH  33  35
ENDBRANCH  32  33
ENDBRANCH  31  32
ENDBRANCH   1  31
TORSDOF 8
