REMARK  Name = ZINC63733025
REMARK  6 active torsions:
REMARK  status: ('A' for Active; 'I' for Inactive)
REMARK    1  A    between atoms: C_6  and  N_10
REMARK    2  A    between atoms: C_11  and  C_13
REMARK    3  A    between atoms: C_17  and  S_19
REMARK    4  A    between atoms: S_19  and  N_22
REMARK    5  A    between atoms: N_22  and  C_23
REMARK    6  A    between atoms: C_23  and  C_24
REMARK                            x       y       z     vdW  Elec       q    Type
REMARK                         _______ _______ _______ _____ _____    ______ ____
ROOT
ATOM      1  C   UNL     1       3.899  -4.800  -2.542  0.00  0.00    +0.039 A 
ATOM      2  C   UNL     1       4.413  -4.073  -3.617  0.00  0.00    +0.013 A 
ATOM      3  C   UNL     1       4.836  -4.733  -4.753  0.00  0.00    +0.003 A 
ATOM      4  C   UNL     1       4.750  -6.112  -4.827  0.00  0.00    +0.028 A 
ATOM      5  C   UNL     1       4.242  -6.838  -3.765  0.00  0.00    +0.106 A 
ATOM      6  C   UNL     1       3.821  -6.191  -2.621  0.00  0.00    +0.041 A 
ENDROOT
BRANCH   1   8
ATOM      7  N   UNL     1       3.522  -2.756  -1.248  0.00  0.00    -0.274 N 
ATOM      8  C   UNL     1       3.445  -4.099  -1.322  0.00  0.00    +0.247 C 
ATOM      9  O   UNL     1       3.003  -4.735  -0.385  0.00  0.00    -0.270 OA
ATOM     10  H   UNL     1       3.874  -2.248  -1.996  0.00  0.00    +0.153 HD
BRANCH   7  16
ATOM     11  C   UNL     1      -0.016   1.344   0.009  0.00  0.00    +0.002 A 
ATOM     12  C   UNL     1       1.158   2.118   0.002  0.00  0.00    +0.002 A 
ATOM     13  C   UNL     1       2.389   1.570  -0.013  0.00  0.00    +0.027 A 
ATOM     14  C   UNL     1       2.533   0.108  -0.022  0.00  0.00    +0.061 A 
ATOM     15  N   UNL     1       3.569  -0.680  -0.036  0.00  0.00    -0.348 N 
ATOM     16  C   UNL     1       3.071  -2.062  -0.039  0.00  0.00    +0.269 C 
ATOM     17  N   UNL     1       1.606  -1.974  -0.024  0.00  0.00    -0.348 N 
ATOM     18  C   UNL     1       1.290  -0.712  -0.014  0.00  0.00    +0.061 A 
ATOM     19  C   UNL     1       0.002  -0.004   0.002  0.00  0.00    +0.027 A 
ATOM     20  H   UNL     1       4.499  -0.405  -0.045  0.00  0.00    +0.163 HD
ATOM     21  H   UNL     1       0.987  -2.721  -0.022  0.00  0.00    +0.163 HD
ENDBRANCH   7  16
ENDBRANCH   1   8
BRANCH   5  22
ATOM     22  S   UNL     1       4.138  -8.594  -3.870  0.00  0.00    +0.059 S 
ATOM     23  O   UNL     1       3.122  -8.996  -2.961  0.00  0.00    -0.153 OA
ATOM     24  O   UNL     1       4.093  -8.916  -5.254  0.00  0.00    -0.153 OA
BRANCH  22  25
ATOM     25  N   UNL     1       5.562  -9.205  -3.288  0.00  0.00    -0.186 NA
ATOM     26  H   UNL     1       6.160  -9.689  -3.880  0.00  0.00    +0.148 HD
BRANCH  25  27
ATOM     27  C   UNL     1       5.920  -9.014  -1.881  0.00  0.00    +0.141 C 
BRANCH  27  28
ATOM     28  C   UNL     1       7.043  -9.951  -1.516  0.00  0.00    -0.028 A 
ATOM     29  C   UNL     1       6.757 -11.217  -1.039  0.00  0.00    +0.009 A 
ATOM     30  C   UNL     1       7.784 -12.081  -0.704  0.00  0.00    +0.050 A 
ATOM     31  C   UNL     1       9.102 -11.679  -0.846  0.00  0.00    +0.166 A 
ATOM     32  C   UNL     1       9.390 -10.404  -1.327  0.00  0.00    +0.167 A 
ATOM     33  C   UNL     1       8.356  -9.546  -1.666  0.00  0.00    +0.054 A 
ATOM     34  O   UNL     1      10.745 -10.251  -1.375  0.00  0.00    -0.453 OA
ATOM     35  C   UNL     1      11.279 -11.292  -0.535  0.00  0.00    +0.466 C 
ATOM     36  O   UNL     1      10.277 -12.325  -0.592  0.00  0.00    -0.453 OA
ENDBRANCH  27  28
ENDBRANCH  25  27
ENDBRANCH  22  25
ENDBRANCH   5  22
TORSDOF 6
