REMARK  Name = ZINC21365610
REMARK  4 active torsions:
REMARK  status: ('A' for Active; 'I' for Inactive)
REMARK    1  A    between atoms: C_4  and  O_28
REMARK    2  A    between atoms: C_5  and  C_7
REMARK    3  A    between atoms: C_9  and  C_21
REMARK    4  A    between atoms: C_12  and  C_15
REMARK                            x       y       z     vdW  Elec       q    Type
REMARK                         _______ _______ _______ _____ _____    ______ ____
ROOT
ATOM      1  C   UNL     1      -3.216   1.759  -1.459  0.00  0.00    +0.044 C 
ATOM      2  N   UNL     1      -2.343   1.298  -0.643  0.00  0.00    -0.298 NA
ATOM      3  C   UNL     1      -1.332   2.113   0.020  0.00  0.00    +0.081 C 
ATOM      4  N   UNL     1      -1.172   3.401  -0.667  0.00  0.00    +0.402 N 
ATOM      5  C   UNL     1      -2.483   4.047  -0.848  0.00  0.00    -0.013 C 
ATOM      6  C   UNL     1      -3.295   3.211  -1.842  0.00  0.00    +0.046 C 
ATOM      7  H   UNL     1      -0.526   4.059  -0.067  0.00  0.00    -0.081 HD
ATOM      8  H   UNL     1      -0.713   3.236  -1.653  0.00  0.00    -0.081 HD
ENDROOT
BRANCH   3   9
ATOM      9  C   UNL     1      -0.017   1.378   0.010  0.00  0.00    -0.040 A 
ATOM     10  C   UNL     1       1.170   2.087   0.002  0.00  0.00    +0.006 A 
ATOM     11  C   UNL     1       2.377   1.414  -0.013  0.00  0.00    +0.038 A 
ATOM     12  C   UNL     1       2.397   0.029  -0.021  0.00  0.00    +0.123 A 
ATOM     13  C   UNL     1       1.208  -0.679  -0.014  0.00  0.00    +0.038 A 
ATOM     14  C   UNL     1       0.002  -0.004   0.002  0.00  0.00    +0.006 A 
ATOM     15  F   UNL     1       3.577  -0.630  -0.037  0.00  0.00    -0.205 F 
ENDBRANCH   3   9
BRANCH   1  20
ATOM     16  C   UNL     1      -6.063   0.406  -3.493  0.00  0.00    +0.001 A 
ATOM     17  C   UNL     1      -6.019  -0.939  -3.163  0.00  0.00    +0.004 A 
ATOM     18  C   UNL     1      -5.067  -1.411  -2.280  0.00  0.00    +0.046 A 
ATOM     19  C   UNL     1      -4.147  -0.538  -1.718  0.00  0.00    +0.126 A 
ATOM     20  C   UNL     1      -4.188   0.823  -2.050  0.00  0.00    +0.037 A 
ATOM     21  C   UNL     1      -5.160   1.288  -2.940  0.00  0.00    +0.013 A 
BRANCH  19  22
ATOM     22  O   UNL     1      -3.211  -1.000  -0.851  0.00  0.00    -0.506 OA
ATOM     23  H   UNL     1      -2.483  -0.306  -0.406  0.00  0.00    +0.292 HD
ENDBRANCH  19  22
ENDBRANCH   1  20
BRANCH   5  24
ATOM     24  C   UNL     1      -2.293   5.440  -1.391  0.00  0.00    +0.028 A 
ATOM     25  C   UNL     1      -2.658   6.529  -0.623  0.00  0.00    +0.021 A 
ATOM     26  C   UNL     1      -2.478   7.806  -1.131  0.00  0.00    +0.003 A 
ATOM     27  C   UNL     1      -1.935   7.940  -2.400  0.00  0.00    +0.020 A 
ATOM     28  C   UNL     1      -1.594   6.805  -3.110  0.00  0.00    +0.111 A 
ATOM     29  N   UNL     1      -1.775   5.606  -2.592  0.00  0.00    -0.262 NA
ENDBRANCH   5  24
TORSDOF 4
