REMARK  Name = ZINC22852030
REMARK  5 active torsions:
REMARK  status: ('A' for Active; 'I' for Inactive)
REMARK    1  A    between atoms: C_3  and  C_8
REMARK    2  A    between atoms: C_8  and  C_10
REMARK    3  A    between atoms: C_8  and  N_24
REMARK    4  A    between atoms: C_16  and  C_18
REMARK    5  A    between atoms: C_27  and  C_30
REMARK                            x       y       z     vdW  Elec       q    Type
REMARK                         _______ _______ _______ _____ _____    ______ ____
ROOT
ATOM      1  C   UNL     1       1.229  -2.186  -0.021  0.00  0.00    +0.006 C 
ENDROOT
BRANCH   1   2
ATOM      2  C   UNL     1       1.318  -2.489  -1.495  0.00  0.00    +0.050 A 
ATOM      3  C   UNL     1       0.356  -2.889  -2.334  0.00  0.00    +0.282 A 
ATOM      4  N   UNL     1       0.631  -3.116  -3.660  0.00  0.00    -0.169 N 
ATOM      5  C   UNL     1       1.921  -2.917  -4.072  0.00  0.00    +0.200 A 
ATOM      6  S   UNL     1       2.735  -2.400  -2.579  0.00  0.00    -0.050 S 
ATOM      7  N   UNL     1       2.020  -3.173  -5.346  0.00  0.00    -0.197 NA
ATOM      8  C   UNL     1       0.822  -3.545  -5.818  0.00  0.00    +0.218 A 
ATOM      9  N   UNL     1      -0.051  -3.526  -4.835  0.00  0.00    -0.138 NA
ATOM     10  O   UNL     1      -0.910  -3.071  -1.869  0.00  0.00    -0.265 OA
BRANCH   8  11
ATOM     11  C   UNL     1       0.530  -3.916  -7.218  0.00  0.00    +0.173 A 
ATOM     12  C   UNL     1       1.425  -3.938  -8.242  0.00  0.00    +0.053 A 
ATOM     13  C   UNL     1       0.718  -4.347  -9.390  0.00  0.00    +0.042 A 
ATOM     14  C   UNL     1      -0.560  -4.552  -9.015  0.00  0.00    +0.196 A 
ATOM     15  O   UNL     1      -0.669  -4.296  -7.702  0.00  0.00    -0.460 OA
ENDBRANCH   8  11
ENDBRANCH   1   2
BRANCH   1  18
ATOM     16  C   UNL     1       2.582   1.330   0.240  0.00  0.00    +0.001 A 
ATOM     17  C   UNL     1       2.512  -0.037   0.045  0.00  0.00    +0.002 A 
ATOM     18  C   UNL     1       1.305  -0.695   0.190  0.00  0.00    -0.055 A 
ATOM     19  C   UNL     1       0.167   0.013   0.529  0.00  0.00    +0.017 A 
ATOM     20  C   UNL     1       0.237   1.381   0.723  0.00  0.00    +0.018 A 
ATOM     21  C   UNL     1       1.445   2.039   0.579  0.00  0.00    +0.015 A 
ATOM     22 BR   UNL     1      -1.321   2.352   1.179  0.00  0.00    -0.050 Br
ENDBRANCH   1  18
BRANCH   1  23
ATOM     23  N   UNL     1       2.343  -2.837   0.681  0.00  0.00    +0.387 N 
ATOM     24  C   UNL     1       2.351  -4.283   0.427  0.00  0.00    -0.077 C 
ATOM     25  C   UNL     1       3.602  -4.905   1.052  0.00  0.00    -0.006 C 
ATOM     26  C   UNL     1       3.604  -4.633   2.558  0.00  0.00    +0.071 C 
ATOM     27  C   UNL     1       3.546  -3.121   2.795  0.00  0.00    -0.006 C 
ATOM     28  C   UNL     1       2.297  -2.551   2.120  0.00  0.00    -0.077 C 
ATOM     29  H   UNL     1       3.282  -2.422   0.286  0.00  0.00    -0.080 HD
BRANCH  26  30
ATOM     30  C   UNL     1       4.862  -5.191   3.171  0.00  0.00    +0.213 C 
ATOM     31  O   UNL     1       5.638  -4.454   3.741  0.00  0.00    -0.276 OA
ATOM     32  N   UNL     1       5.126  -6.510   3.085  0.00  0.00    -0.329 N 
ATOM     33  H   UNL     1       6.045  -6.918   3.532  0.00  0.00    +0.145 HD
ATOM     34  H   UNL     1       4.423  -7.179   2.567  0.00  0.00    +0.145 HD
ENDBRANCH  26  30
ENDBRANCH   1  23
TORSDOF 5
