REMARK  Name = ZINC65747908
REMARK  15 active torsions:
REMARK  status: ('A' for Active; 'I' for Inactive)
REMARK    1  A    between atoms: C_1  and  C_2
REMARK    2  A    between atoms: C_5  and  O_19
REMARK    3  A    between atoms: C_6  and  C_10
REMARK    4  A    between atoms: C_7  and  O_8
REMARK    5  A    between atoms: O_8  and  C_9
REMARK    6  A    between atoms: C_10  and  C_11
REMARK    7  A    between atoms: C_12  and  C_13
REMARK    8  A    between atoms: C_12  and  C_14
REMARK    9  A    between atoms: C_14  and  C_15
REMARK   10  A    between atoms: C_15  and  C_16
REMARK   11  A    between atoms: O_19  and  C_20
REMARK   12  A    between atoms: C_22  and  O_36
REMARK   13  A    between atoms: C_24  and  O_35
REMARK   14  A    between atoms: C_26  and  O_34
REMARK   15  A    between atoms: C_28  and  C_31
REMARK                            x       y       z     vdW  Elec       q    Type
REMARK                         _______ _______ _______ _____ _____    ______ ____
ROOT
ATOM      1  C   UNL     1       1.084   0.802  -1.367  0.00  0.00    +0.048 C 
ATOM      2  C   UNL     1       1.277  -0.680  -1.177  0.00  0.00    -0.001 A 
ATOM      3  C   UNL     1       1.774  -1.443  -2.203  0.00  0.00    +0.014 A 
ATOM      4  C   UNL     1       1.957  -2.822  -2.035  0.00  0.00    +0.108 A 
ATOM      5  C   UNL     1       1.627  -3.418  -0.809  0.00  0.00    +0.145 A 
ATOM      6  C   UNL     1       1.126  -2.639   0.220  0.00  0.00    +0.041 A 
ATOM      7  C   UNL     1       0.956  -1.274   0.041  0.00  0.00    +0.130 A 
ATOM      8  C   UNL     1       2.496  -3.356  -3.292  0.00  0.00    +0.343 C 
ATOM      9  O   UNL     1       2.771  -4.523  -3.492  0.00  0.00    -0.245 OA
ATOM     10  O   UNL     1       2.640  -2.367  -4.191  0.00  0.00    -0.456 OA
ATOM     11  C   UNL     1       2.217  -1.130  -3.610  0.00  0.00    +0.269 C 
ENDROOT
BRANCH   7  12
ATOM     12  O   UNL     1       0.470  -0.514   1.056  0.00  0.00    -0.494 OA
ATOM     13  C   UNL     1      -0.949  -0.359   1.127  0.00  0.00    +0.277 C 
ENDBRANCH   7  12
BRANCH   6  14
ATOM     14  C   UNL     1       0.770  -3.274   1.539  0.00  0.00    +0.069 C 
BRANCH  14  15
ATOM     15  C   UNL     1       1.958  -3.211   2.464  0.00  0.00    -0.023 C 
ATOM     16  C   UNL     1       1.845  -2.637   3.636  0.00  0.00    -0.076 C 
ATOM     17  C   UNL     1       0.543  -1.994   4.039  0.00  0.00    +0.039 C 
BRANCH  16  18
ATOM     18  C   UNL     1       3.018  -2.621   4.583  0.00  0.00    +0.041 C 
BRANCH  18  19
ATOM     19  C   UNL     1       3.790  -1.311   4.416  0.00  0.00    +0.129 C 
BRANCH  19  20
ATOM     20  C   UNL     1       4.962  -1.294   5.363  0.00  0.00    +0.356 C 
ATOM     21  O   UNL     1       5.162  -2.243   6.103  0.00  0.00    -0.246 OA
ATOM     22  O   UNL     1       5.711  -0.333   5.389  0.00  0.00    -0.246 OA
ENDBRANCH  19  20
ENDBRANCH  18  19
ENDBRANCH  16  18
ENDBRANCH  14  15
ENDBRANCH   6  14
BRANCH   5  23
ATOM     23  O   UNL     1       1.798  -4.752  -0.632  0.00  0.00    -0.460 OA
BRANCH  23  24
ATOM     24  C   UNL     1       0.661  -5.588  -0.858  0.00  0.00    +0.340 C 
ATOM     25  C   UNL     1       0.978  -7.014  -0.402  0.00  0.00    +0.214 C 
ATOM     26  C   UNL     1      -0.224  -7.916  -0.702  0.00  0.00    +0.180 C 
ATOM     27  C   UNL     1      -0.544  -7.841  -2.198  0.00  0.00    +0.186 C 
ATOM     28  C   UNL     1      -0.801  -6.383  -2.584  0.00  0.00    +0.266 C 
ATOM     29  O   UNL     1       0.343  -5.593  -2.251  0.00  0.00    -0.322 OA
BRANCH  28  30
ATOM     30  C   UNL     1      -1.059  -6.293  -4.066  0.00  0.00    +0.387 C 
ATOM     31  O   UNL     1      -2.018  -6.866  -4.554  0.00  0.00    -0.243 OA
ATOM     32  O   UNL     1      -0.308  -5.648  -4.778  0.00  0.00    -0.243 OA
ENDBRANCH  28  30
BRANCH  27  33
ATOM     33  O   UNL     1       0.562  -8.347  -2.948  0.00  0.00    -0.386 OA
ATOM     34  H   UNL     1       0.428  -8.330  -3.906  0.00  0.00    +0.210 HD
ENDBRANCH  27  33
BRANCH  26  35
ATOM     35  O   UNL     1       0.089  -9.264  -0.345  0.00  0.00    -0.386 OA
ATOM     36  H   UNL     1      -0.629  -9.891  -0.508  0.00  0.00    +0.210 HD
ENDBRANCH  26  35
BRANCH  25  37
ATOM     37  O   UNL     1       2.125  -7.497  -1.104  0.00  0.00    -0.383 OA
ATOM     38  H   UNL     1       2.923  -6.969  -0.962  0.00  0.00    +0.210 HD
ENDBRANCH  25  37
ENDBRANCH  23  24
ENDBRANCH   5  23
TORSDOF 12
