REMARK  Name = ZINC06809515
REMARK  8 active torsions:
REMARK  status: ('A' for Active; 'I' for Inactive)
REMARK    1  A    between atoms: C_1  and  C_2
REMARK    2  A    between atoms: C_2  and  C_3
REMARK    3  A    between atoms: C_2  and  C_4
REMARK    4  A    between atoms: C_2  and  N_46
REMARK    5  A    between atoms: C_5  and  N_46
REMARK    6  A    between atoms: C_11  and  N_13
REMARK    7  A    between atoms: N_13  and  S_14
REMARK    8  A    between atoms: S_14  and  C_17
REMARK                            x       y       z     vdW  Elec       q    Type
REMARK                         _______ _______ _______ _____ _____    ______ ____
ROOT
ATOM      1  C   UNL     1      -0.470   0.341   0.112  0.00  0.00    -0.052 C 
ATOM      2  C   UNL     1      -1.757   0.211   0.929  0.00  0.00    -0.014 C 
ATOM      3  C   UNL     1      -2.132  -1.267   1.057  0.00  0.00    -0.001 C 
ATOM      4  C   UNL     1      -1.002  -2.021   1.761  0.00  0.00    +0.001 C 
ATOM      5  C   UNL     1       0.285  -1.890   0.944  0.00  0.00    +0.019 C 
ATOM      6  C   UNL     1       0.660  -0.413   0.816  0.00  0.00    +0.063 C 
ENDROOT
BRANCH   1   7
ATOM      7  N   UNL     1      -0.107   1.766  -0.003  0.00  0.00    +0.385 N 
ATOM      8  H   UNL     1      -0.755   2.328   0.561  0.00  0.00    -0.085 HD
ATOM      9  H   UNL     1       0.851   1.901   0.341  0.00  0.00    -0.085 HD
BRANCH   7  11
ATOM     10  C   UNL     1      -1.598   1.965  -1.946  0.00  0.00    -0.011 C 
ATOM     11  C   UNL     1      -0.184   2.203  -1.410  0.00  0.00    -0.077 C 
ATOM     12  C   UNL     1       0.147   3.694  -1.492  0.00  0.00    -0.011 C 
ATOM     13  C   UNL     1       0.819   1.410  -2.250  0.00  0.00    -0.011 C 
ENDBRANCH   7  11
ENDBRANCH   1   7
BRANCH   6  14
ATOM     14  N   UNL     1       0.869   0.156   2.150  0.00  0.00    -0.188 NA
ATOM     15  H   UNL     1       0.114   0.488   2.659  0.00  0.00    +0.148 HD
BRANCH  14  16
ATOM     16  S   UNL     1       2.396   0.231   2.787  0.00  0.00    +0.059 S 
ATOM     17  O   UNL     1       2.274   0.848   4.061  0.00  0.00    -0.153 OA
ATOM     18  O   UNL     1       2.971  -1.057   2.616  0.00  0.00    -0.153 OA
BRANCH  16  19
ATOM     19  C   UNL     1       3.327   1.337   1.780  0.00  0.00    +0.105 A 
ATOM     20  C   UNL     1       4.032   0.853   0.693  0.00  0.00    +0.030 A 
ATOM     21  C   UNL     1       4.759   1.721  -0.101  0.00  0.00    +0.022 A 
ATOM     22  C   UNL     1       4.789   3.071   0.198  0.00  0.00    +0.041 A 
ATOM     23  C   UNL     1       4.087   3.553   1.289  0.00  0.00    +0.022 A 
ATOM     24  C   UNL     1       3.357   2.686   2.079  0.00  0.00    +0.030 A 
ATOM     25 CL   UNL     1       5.707   4.160  -0.794  0.00  0.00    -0.084 Cl
ENDBRANCH  16  19
ENDBRANCH  14  16
ENDBRANCH   6  14
TORSDOF 5
