REMARK  Name = ZINC38706097
REMARK  9 active torsions:
REMARK  status: ('A' for Active; 'I' for Inactive)
REMARK    1  A    between atoms: C_1  and  C_2
REMARK    2  A    between atoms: C_4  and  C_36
REMARK    3  A    between atoms: C_5  and  C_9
REMARK    4  A    between atoms: C_6  and  O_8
REMARK    5  A    between atoms: N_17  and  C_28
REMARK    6  A    between atoms: C_18  and  C_20
REMARK    7  A    between atoms: C_23  and  S_26
REMARK    8  A    between atoms: S_26  and  C_27
REMARK    9  A    between atoms: C_28  and  C_29
REMARK                            x       y       z     vdW  Elec       q    Type
REMARK                         _______ _______ _______ _____ _____    ______ ____
ROOT
ATOM      1  C   UNL     1       0.224  -4.534  -0.150  0.00  0.00    +0.102 A 
ATOM      2  C   UNL     1       0.244  -5.256   1.048  0.00  0.00    +0.035 A 
ATOM      3  C   UNL     1       0.188  -6.588   0.685  0.00  0.00    +0.126 A 
ATOM      4  N   UNL     1       0.137  -6.608  -0.680  0.00  0.00    -0.272 N 
ATOM      5  H   UNL     1       0.090  -7.410  -1.224  0.00  0.00    +0.189 HD
ATOM      6  N   UNL     1       0.153  -5.407  -1.136  0.00  0.00    -0.173 NA
ATOM      7  C   UNL     1       0.206  -7.404   1.904  0.00  0.00    +0.266 C 
ATOM      8  O   UNL     1       0.167  -8.620   1.926  0.00  0.00    -0.268 OA
ATOM      9  N   UNL     1       0.271  -6.618   2.994  0.00  0.00    -0.281 N 
ATOM     10  C   UNL     1       0.301  -5.218   2.550  0.00  0.00    +0.142 C 
ENDROOT
BRANCH   1  15
ATOM     11  C   UNL     1       0.393   1.202  -0.683  0.00  0.00    +0.044 C 
ATOM     12  C   UNL     1       0.347  -0.297  -0.542  0.00  0.00    -0.047 A 
ATOM     13  C   UNL     1       1.213  -1.086  -1.278  0.00  0.00    +0.007 A 
ATOM     14  C   UNL     1       1.177  -2.460  -1.155  0.00  0.00    -0.037 A 
ATOM     15  C   UNL     1       0.267  -3.056  -0.286  0.00  0.00    +0.047 A 
ATOM     16  C   UNL     1      -0.608  -2.258   0.456  0.00  0.00    +0.127 A 
ATOM     17  C   UNL     1      -0.557  -0.879   0.327  0.00  0.00    +0.049 A 
ATOM     18  C   UNL     1       2.123  -3.315  -1.959  0.00  0.00    +0.044 C 
BRANCH  16  19
ATOM     19  O   UNL     1      -1.499  -2.830   1.306  0.00  0.00    -0.506 OA
ATOM     20  H   UNL     1      -1.195  -2.878   2.222  0.00  0.00    +0.292 HD
ENDBRANCH  16  19
ENDBRANCH   1  15
BRANCH  10  21
ATOM     21  C   UNL     1       1.577  -4.557   3.005  0.00  0.00    -0.022 A 
ATOM     22  C   UNL     1       2.793  -5.177   2.782  0.00  0.00    +0.007 A 
ATOM     23  C   UNL     1       3.963  -4.574   3.198  0.00  0.00    +0.015 A 
ATOM     24  C   UNL     1       3.918  -3.342   3.840  0.00  0.00    +0.008 A 
ATOM     25  C   UNL     1       2.695  -2.721   4.061  0.00  0.00    +0.015 A 
ATOM     26  C   UNL     1       1.528  -3.328   3.639  0.00  0.00    +0.007 A 
BRANCH  24  27
ATOM     27  S   UNL     1       5.410  -2.569   4.372  0.00  0.00    -0.129 S 
ATOM     28  C   UNL     1       4.853  -1.021   5.137  0.00  0.00    +0.090 C 
ENDBRANCH  24  27
ENDBRANCH  10  21
BRANCH   9  29
ATOM     29  C   UNL     1       0.306  -7.079   4.384  0.00  0.00    +0.144 C 
BRANCH  29  30
ATOM     30  C   UNL     1       1.737  -7.284   4.810  0.00  0.00    -0.030 A 
ATOM     31  C   UNL     1       2.344  -8.512   4.624  0.00  0.00    +0.008 A 
ATOM     32  C   UNL     1       3.656  -8.700   5.014  0.00  0.00    +0.038 A 
ATOM     33  C   UNL     1       4.363  -7.659   5.590  0.00  0.00    +0.123 A 
ATOM     34  C   UNL     1       3.754  -6.429   5.776  0.00  0.00    +0.038 A 
ATOM     35  C   UNL     1       2.443  -6.241   5.380  0.00  0.00    +0.008 A 
ATOM     36  F   UNL     1       5.646  -7.842   5.972  0.00  0.00    -0.205 F 
ENDBRANCH  29  30
ENDBRANCH   9  29
TORSDOF 6
