REMARK  Name = ZINC58669101
REMARK  10 active torsions:
REMARK  status: ('A' for Active; 'I' for Inactive)
REMARK    1  A    between atoms: C_1  and  C_2
REMARK    2  A    between atoms: C_2  and  C_3
REMARK    3  A    between atoms: C_3  and  N_4
REMARK    4  A    between atoms: C_14  and  S_17
REMARK    5  A    between atoms: S_17  and  C_18
REMARK    6  A    between atoms: C_18  and  C_20
REMARK    7  A    between atoms: C_18  and  C_21
REMARK    8  A    between atoms: N_23  and  C_24
REMARK    9  A    between atoms: C_27  and  S_30
REMARK   10  A    between atoms: S_30  and  N_33
REMARK                            x       y       z     vdW  Elec       q    Type
REMARK                         _______ _______ _______ _____ _____    ______ ____
ROOT
ATOM      1  C   UNL     1       5.812  -4.660  -1.737  0.00  0.00    +0.137 C 
ATOM      2  C   UNL     1       4.872  -5.399  -2.692  0.00  0.00    +0.029 C 
ENDROOT
BRANCH   1   3
ATOM      3  C   UNL     1       7.154  -4.474  -2.397  0.00  0.00    +0.230 C 
ATOM      4  O   UNL     1       7.439  -3.409  -2.901  0.00  0.00    -0.274 OA
ATOM      5  N   UNL     1       8.038  -5.491  -2.425  0.00  0.00    -0.285 N 
ATOM      6  H   UNL     1       7.838  -6.321  -1.964  0.00  0.00    +0.155 HD
BRANCH   5   7
ATOM      7  C   UNL     1       9.244  -5.351  -3.121  0.00  0.00    +0.034 A 
ATOM      8  C   UNL     1       9.795  -6.439  -3.785  0.00  0.00    +0.025 A 
ATOM      9  C   UNL     1      10.986  -6.297  -4.470  0.00  0.00    +0.030 A 
ATOM     10  C   UNL     1      11.629  -5.073  -4.496  0.00  0.00    +0.105 A 
ATOM     11  C   UNL     1      11.083  -3.987  -3.835  0.00  0.00    +0.030 A 
ATOM     12  C   UNL     1       9.889  -4.121  -3.153  0.00  0.00    +0.025 A 
BRANCH  10  13
ATOM     13  S   UNL     1      13.148  -4.896  -5.371  0.00  0.00    +0.056 S 
ATOM     14  O   UNL     1      13.826  -3.792  -4.788  0.00  0.00    -0.153 OA
ATOM     15  O   UNL     1      13.726  -6.191  -5.448  0.00  0.00    -0.153 OA
BRANCH  13  16
ATOM     16  N   UNL     1      12.770  -4.454  -6.922  0.00  0.00    -0.204 NA
ATOM     17  H   UNL     1      11.842  -4.343  -7.183  0.00  0.00    +0.144 HD
ATOM     18  H   UNL     1      13.477  -4.305  -7.570  0.00  0.00    +0.144 HD
ENDBRANCH  13  16
ENDBRANCH  10  13
ENDBRANCH   5   7
ENDBRANCH   1   3
BRANCH   1  19
ATOM     19  S   UNL     1       5.108  -3.039  -1.330  0.00  0.00    -0.072 S 
BRANCH  19  30
ATOM     20  N   UNL     1       0.776  -1.962   1.249  0.00  0.00    -0.323 N 
ATOM     21  C   UNL     1      -0.192  -2.767   1.827  0.00  0.00    +0.053 A 
ATOM     22  C   UNL     1      -1.364  -2.473   2.515  0.00  0.00    +0.026 A 
ATOM     23  C   UNL     1      -2.159  -3.493   2.993  0.00  0.00    +0.002 A 
ATOM     24  C   UNL     1      -1.802  -4.817   2.793  0.00  0.00    +0.001 A 
ATOM     25  C   UNL     1      -0.644  -5.129   2.114  0.00  0.00    +0.012 A 
ATOM     26  C   UNL     1       0.168  -4.108   1.626  0.00  0.00    +0.029 A 
ATOM     27  C   UNL     1       1.437  -4.089   0.877  0.00  0.00    +0.138 A 
ATOM     28  C   UNL     1       1.756  -2.731   0.671  0.00  0.00    +0.165 A 
ATOM     29  N   UNL     1       2.868  -2.439   0.003  0.00  0.00    -0.201 NA
ATOM     30  C   UNL     1       3.633  -3.425  -0.446  0.00  0.00    +0.212 A 
ATOM     31  N   UNL     1       3.309  -4.697  -0.242  0.00  0.00    -0.122 NA
ATOM     32  N   UNL     1       2.246  -5.027   0.408  0.00  0.00    -0.143 NA
BRANCH  20  33
ATOM     33  C   UNL     1       0.755  -0.497   1.249  0.00  0.00    +0.123 C 
BRANCH  33  35
ATOM     34  C   UNL     1      -0.013   1.532   0.010  0.00  0.00    +0.005 C 
ATOM     35  C   UNL     1       0.009   0.002   0.010  0.00  0.00    +0.018 C 
ENDBRANCH  33  35
ENDBRANCH  20  33
ENDBRANCH  19  30
ENDBRANCH   1  19
TORSDOF 8
