REMARK  Name = ZINC36025610
REMARK  9 active torsions:
REMARK  status: ('A' for Active; 'I' for Inactive)
REMARK    1  A    between atoms: C_1  and  C_2
REMARK    2  A    between atoms: N_7  and  C_9
REMARK    3  A    between atoms: C_9  and  C_10
REMARK    4  A    between atoms: C_16  and  C_18
REMARK    5  A    between atoms: C_18  and  N_19
REMARK    6  A    between atoms: C_22  and  C_26
REMARK    7  A    between atoms: C_22  and  C_27
REMARK    8  A    between atoms: C_30  and  O_33
REMARK    9  A    between atoms: O_33  and  C_34
REMARK                            x       y       z     vdW  Elec       q    Type
REMARK                         _______ _______ _______ _____ _____    ______ ____
ROOT
ATOM      1  C   UNL     1       1.321  -3.966   2.518  0.00  0.00    +0.034 A 
ATOM      2  C   UNL     1       2.332  -4.755   2.078  0.00  0.00    +0.070 A 
ATOM      3  S   UNL     1       1.653  -6.375   2.398  0.00  0.00    -0.060 S 
ATOM      4  C   UNL     1       0.179  -5.886   3.047  0.00  0.00    +0.165 A 
ATOM      5  N   UNL     1       0.255  -4.573   3.005  0.00  0.00    -0.231 NA
ATOM      6  N   UNL     1      -0.862  -6.677   3.518  0.00  0.00    -0.263 N 
ATOM      7  C   UNL     1      -0.756  -8.020   3.486  0.00  0.00    +0.237 C 
ATOM      8  O   UNL     1       0.248  -8.539   3.046  0.00  0.00    -0.274 OA
ATOM      9  H   UNL     1      -1.665  -6.262   3.870  0.00  0.00    +0.157 HD
ENDROOT
BRANCH   1  10
ATOM     10  C   UNL     1       1.413  -2.463   2.461  0.00  0.00    -0.022 C 
BRANCH  10  16
ATOM     11  C   UNL     1      -0.019   1.526   0.010  0.00  0.00    +0.005 C 
ATOM     12  C   UNL     1       0.002  -0.004   0.002  0.00  0.00    -0.031 C 
ATOM     13  C   UNL     1       0.721  -0.499  -1.257  0.00  0.00    -0.001 C 
ATOM     14  C   UNL     1       0.805  -2.027  -1.217  0.00  0.00    -0.018 C 
ATOM     15  C   UNL     1       1.518  -2.460   0.066  0.00  0.00    -0.078 C 
ATOM     16  N   UNL     1       0.768  -1.979   1.233  0.00  0.00    +0.384 N 
ATOM     17  C   UNL     1       0.744  -0.512   1.240  0.00  0.00    -0.075 C 
ATOM     18  H   UNL     1      -0.177  -2.330   1.192  0.00  0.00    -0.081 HD
ENDBRANCH  10  16
ENDBRANCH   1  10
BRANCH   7  19
ATOM     19  C   UNL     1      -1.885  -8.877   3.997  0.00  0.00    +0.214 C 
BRANCH  19  20
ATOM     20  N   UNL     1      -1.528 -10.291   3.854  0.00  0.00    -0.215 N 
ATOM     21  C   UNL     1      -1.790 -11.032   2.760  0.00  0.00    +0.251 C 
ATOM     22  O   UNL     1      -2.346 -10.668   1.745  0.00  0.00    -0.272 OA
ATOM     23  C   UNL     1      -1.246 -12.414   3.060  0.00  0.00    +0.135 C 
ATOM     24  N   UNL     1      -0.687 -12.279   4.416  0.00  0.00    -0.281 N 
ATOM     25  C   UNL     1      -0.895 -11.005   4.793  0.00  0.00    +0.310 C 
ATOM     26  O   UNL     1      -0.550 -10.553   5.867  0.00  0.00    -0.252 OA
ATOM     27  C   UNL     1      -2.371 -13.451   3.042  0.00  0.00    +0.047 C 
ATOM     28  H   UNL     1      -0.252 -12.973   4.935  0.00  0.00    +0.152 HD
BRANCH  23  29
ATOM     29  C   UNL     1      -0.166 -12.784   2.076  0.00  0.00    -0.015 A 
ATOM     30  C   UNL     1      -0.199 -12.274   0.791  0.00  0.00    +0.010 A 
ATOM     31  C   UNL     1       0.789 -12.612  -0.113  0.00  0.00    +0.046 A 
ATOM     32  C   UNL     1       1.816 -13.463   0.270  0.00  0.00    +0.120 A 
ATOM     33  C   UNL     1       1.847 -13.973   1.560  0.00  0.00    +0.046 A 
ATOM     34  C   UNL     1       0.859 -13.628   2.461  0.00  0.00    +0.010 A 
BRANCH  32  35
ATOM     35  O   UNL     1       2.789 -13.797  -0.618  0.00  0.00    -0.495 OA
ATOM     36  C   UNL     1       3.815 -14.678  -0.155  0.00  0.00    +0.277 C 
ENDBRANCH  32  35
ENDBRANCH  23  29
ENDBRANCH  19  20
ENDBRANCH   7  19
TORSDOF 6
