REMARK  Name = ZINC50036983
REMARK  4 active torsions:
REMARK  status: ('A' for Active; 'I' for Inactive)
REMARK    1  A    between atoms: C_1  and  C_2
REMARK    2  A    between atoms: C_2  and  N_3
REMARK    3  A    between atoms: C_4  and  C_8
REMARK    4  A    between atoms: C_13  and  N_14
REMARK                            x       y       z     vdW  Elec       q    Type
REMARK                         _______ _______ _______ _____ _____    ______ ____
ROOT
ATOM      1  C   UNL     1      -1.453  -0.966   2.459  0.00  0.00    +0.044 A 
ATOM      2  C   UNL     1      -0.204  -0.397   2.715  0.00  0.00    +0.054 A 
ATOM      3  C   UNL     1       0.165  -0.101   4.011  0.00  0.00    +0.159 A 
ATOM      4  C   UNL     1      -0.702  -0.367   5.064  0.00  0.00    +0.160 A 
ATOM      5  C   UNL     1      -1.941  -0.931   4.822  0.00  0.00    +0.064 A 
ATOM      6  C   UNL     1      -2.327  -1.228   3.523  0.00  0.00    +0.038 A 
ATOM      7  F   UNL     1      -0.332  -0.074   6.330  0.00  0.00    -0.202 F 
ATOM      8  F   UNL     1       1.374   0.450   4.258  0.00  0.00    -0.202 F 
ENDROOT
BRANCH   1  10
ATOM      9  N   UNL     1      -1.766  -0.461  -0.002  0.00  0.00    -0.225 N 
ATOM     10  C   UNL     1      -1.853  -1.284   1.073  0.00  0.00    +0.184 A 
ATOM     11  N   UNL     1      -2.363  -2.422   0.647  0.00  0.00    -0.108 NA
ATOM     12  N   UNL     1      -2.598  -2.364  -0.615  0.00  0.00    -0.023 NA
ATOM     13  N   UNL     1      -2.269  -1.208  -1.081  0.00  0.00    -0.044 NA
BRANCH   9  15
ATOM     14  C   UNL     1      -2.397   1.881   0.315  0.00  0.00    +0.029 C 
ATOM     15  C   UNL     1      -1.262   0.914  -0.030  0.00  0.00    +0.144 C 
ENDBRANCH   9  15
ENDBRANCH   1  10
BRANCH   6  16
ATOM     16  N   UNL     1      -3.579  -1.791   3.276  0.00  0.00    -0.357 N 
ATOM     17  H   UNL     1      -3.883  -1.917   2.364  0.00  0.00    +0.142 HD
ATOM     18  H   UNL     1      -4.146  -2.056   4.018  0.00  0.00    +0.142 HD
ENDBRANCH   6  16
TORSDOF 3
