REMARK  Name = ZINC59266320
REMARK  7 active torsions:
REMARK  status: ('A' for Active; 'I' for Inactive)
REMARK    1  A    between atoms: C_1  and  C_2
REMARK    2  A    between atoms: C_5  and  C_31
REMARK    3  A    between atoms: N_13  and  C_14
REMARK    4  A    between atoms: C_14  and  C_15
REMARK    5  A    between atoms: N_17  and  C_18
REMARK    6  A    between atoms: C_18  and  C_20
REMARK    7  A    between atoms: C_18  and  C_21
REMARK                            x       y       z     vdW  Elec       q    Type
REMARK                         _______ _______ _______ _____ _____    ______ ____
ROOT
ATOM      1  C   UNL     1       1.992  -1.054   0.548  0.00  0.00    +0.201 C 
ENDROOT
BRANCH   1  12
ATOM      2  C   UNL     1      -0.092   1.691   0.100  0.00  0.00    +0.028 C 
ATOM      3  C   UNL     1      -0.115   0.185  -0.172  0.00  0.00    +0.072 C 
ATOM      4  C   UNL     1      -1.558  -0.333  -0.105  0.00  0.00    +0.039 C 
ATOM      5  C   UNL     1      -2.149   0.027   1.258  0.00  0.00    +0.108 C 
ATOM      6  C   UNL     1      -1.232  -0.421   2.365  0.00  0.00    -0.014 A 
ATOM      7  C   UNL     1      -1.750  -0.587   3.639  0.00  0.00    +0.006 A 
ATOM      8  C   UNL     1      -0.933  -0.994   4.676  0.00  0.00    +0.000 A 
ATOM      9  C   UNL     1       0.410  -1.237   4.448  0.00  0.00    +0.002 A 
ATOM     10  C   UNL     1       0.934  -1.075   3.182  0.00  0.00    +0.023 A 
ATOM     11  C   UNL     1       0.113  -0.668   2.136  0.00  0.00    +0.034 A 
ATOM     12  N   UNL     1       0.663  -0.518   0.857  0.00  0.00    -0.318 N 
BRANCH   5  13
ATOM     13  C   UNL     1      -3.484  -0.654   1.417  0.00  0.00    +0.218 C 
ATOM     14  O   UNL     1      -3.656  -1.766   0.963  0.00  0.00    -0.275 OA
ATOM     15  N   UNL     1      -4.487  -0.028   2.064  0.00  0.00    -0.329 N 
ATOM     16  H   UNL     1      -4.374   0.888   2.363  0.00  0.00    +0.145 HD
ATOM     17  H   UNL     1      -5.322  -0.493   2.230  0.00  0.00    +0.145 HD
ENDBRANCH   5  13
ENDBRANCH   1  12
BRANCH   1  18
ATOM     18  C   UNL     1       3.035  -0.006   0.839  0.00  0.00    +0.231 C 
ATOM     19  O   UNL     1       2.703   1.081   1.262  0.00  0.00    -0.274 OA
ATOM     20  N   UNL     1       4.339  -0.277   0.628  0.00  0.00    -0.307 N 
ATOM     21  H   UNL     1       4.605  -1.147   0.290  0.00  0.00    +0.149 HD
BRANCH  20  22
ATOM     22  C   UNL     1       5.354   0.741   0.911  0.00  0.00    +0.100 C 
ATOM     23  C   UNL     1       5.732   0.686   2.392  0.00  0.00    +0.033 C 
BRANCH  22  24
ATOM     24  C   UNL     1       6.576   0.478   0.070  0.00  0.00    -0.027 A 
ATOM     25  C   UNL     1       7.014  -0.818  -0.132  0.00  0.00    +0.006 A 
ATOM     26  C   UNL     1       8.136  -1.050  -0.900  0.00  0.00    +0.004 A 
ATOM     27  C   UNL     1       8.829   0.008  -1.476  0.00  0.00    -0.044 A 
ATOM     28  C   UNL     1       8.390   1.298  -1.279  0.00  0.00    -0.044 A 
ATOM     29  C   UNL     1       7.259   1.529  -0.506  0.00  0.00    +0.009 A 
ATOM     30  C   UNL     1       9.082   2.491  -1.885  0.00  0.00    +0.035 C 
ATOM     31  C   UNL     1      10.498   2.124  -2.325  0.00  0.00    +0.005 C 
ATOM     32  C   UNL     1      10.423   0.862  -3.192  0.00  0.00    +0.005 C 
ATOM     33  C   UNL     1      10.050  -0.317  -2.296  0.00  0.00    +0.035 C 
ENDBRANCH  22  24
ENDBRANCH  20  22
ENDBRANCH   1  18
TORSDOF 5
