REMARK  Name = ZINC24903431
REMARK  5 active torsions:
REMARK  status: ('A' for Active; 'I' for Inactive)
REMARK    1  A    between atoms: C_3  and  C_6
REMARK    2  A    between atoms: C_16  and  C_18
REMARK    3  A    between atoms: C_18  and  N_19
REMARK    4  A    between atoms: N_22  and  C_25
REMARK    5  A    between atoms: C_25  and  C_26
REMARK                            x       y       z     vdW  Elec       q    Type
REMARK                         _______ _______ _______ _____ _____    ______ ____
ROOT
ATOM      1  C   UNL     1      -1.363   4.911   0.389  0.00  0.00    -0.009 A 
ATOM      2  C   UNL     1      -0.447   5.965   0.374  0.00  0.00    +0.011 A 
ATOM      3  C   UNL     1      -0.891   7.269   0.341  0.00  0.00    +0.026 A 
ATOM      4  C   UNL     1      -2.255   7.541   0.321  0.00  0.00    +0.059 A 
ATOM      5  C   UNL     1      -3.167   6.488   0.334  0.00  0.00    +0.134 A 
ATOM      6  C   UNL     1      -2.733   5.185   0.363  0.00  0.00    +0.040 A 
ATOM      7  S   UNL     1      -4.889   6.869   0.302  0.00  0.00    +0.102 S 
ATOM      8  O   UNL     1      -5.357   6.769   1.640  0.00  0.00    -0.146 OA
ATOM      9  O   UNL     1      -5.456   6.121  -0.765  0.00  0.00    -0.146 OA
ATOM     10  N   UNL     1      -4.991   8.468  -0.125  0.00  0.00    -0.117 NA
ATOM     11  C   UNL     1      -3.958   9.228  -0.086  0.00  0.00    +0.135 C 
ATOM     12  N   UNL     1      -2.711   8.856   0.291  0.00  0.00    -0.299 N 
ATOM     13  H   UNL     1      -2.042   9.677   0.588  0.00  0.00    +0.153 HD
ENDROOT
BRANCH   1  16
ATOM     14  C   UNL     1       0.602   1.677   0.485  0.00  0.00    +0.008 A 
ATOM     15  C   UNL     1       0.399   3.040   0.451  0.00  0.00    +0.016 A 
ATOM     16  C   UNL     1      -0.886   3.513   0.426  0.00  0.00    +0.019 A 
ATOM     17  S   UNL     1      -1.835   2.000   0.445  0.00  0.00    -0.097 S 
ATOM     18  C   UNL     1      -0.472   0.848   0.492  0.00  0.00    +0.046 A 
ENDBRANCH   1  16
BRANCH  11  19
ATOM     19  C   UNL     1      -4.150  10.665  -0.498  0.00  0.00    +0.157 C 
BRANCH  19  20
ATOM     20  N   UNL     1      -5.553  10.885  -0.872  0.00  0.00    -0.299 NA
ATOM     21  C   UNL     1      -5.900  10.128  -2.083  0.00  0.00    +0.066 C 
ATOM     22  C   UNL     1      -7.387  10.320  -2.393  0.00  0.00    -0.063 C 
ATOM     23  N   UNL     1      -7.666  11.752  -2.572  0.00  0.00    +0.382 N 
ATOM     24  C   UNL     1      -7.319  12.509  -1.361  0.00  0.00    -0.063 C 
ATOM     25  C   UNL     1      -5.833  12.317  -1.051  0.00  0.00    +0.066 C 
ATOM     26  H   UNL     1      -7.037  12.121  -3.395  0.00  0.00    -0.082 HD
BRANCH  23  27
ATOM     27  C   UNL     1      -9.070  11.972  -2.946  0.00  0.00    -0.075 C 
BRANCH  27  28
ATOM     28  C   UNL     1      -9.420  11.096  -4.150  0.00  0.00    -0.028 C 
ATOM     29  C   UNL     1      -8.553  11.502  -5.345  0.00  0.00    +0.002 C 
ATOM     30  C   UNL     1      -8.903  10.626  -6.549  0.00  0.00    +0.000 C 
ATOM     31  C   UNL     1     -10.380  10.812  -6.904  0.00  0.00    +0.000 C 
ATOM     32  C   UNL     1     -11.246  10.406  -5.709  0.00  0.00    +0.000 C 
ATOM     33  C   UNL     1     -10.896  11.282  -4.505  0.00  0.00    +0.002 C 
ENDBRANCH  27  28
ENDBRANCH  23  27
ENDBRANCH  19  20
ENDBRANCH  11  19
TORSDOF 5
