REMARK  Name = ZINC59391700
REMARK  8 active torsions:
REMARK  status: ('A' for Active; 'I' for Inactive)
REMARK    1  A    between atoms: C_2  and  C_3
REMARK    2  A    between atoms: C_3  and  S_4
REMARK    3  A    between atoms: S_4  and  C_5
REMARK    4  A    between atoms: C_10  and  N_14
REMARK    5  A    between atoms: C_15  and  C_16
REMARK    6  A    between atoms: C_19  and  S_21
REMARK    7  A    between atoms: S_21  and  C_22
REMARK    8  A    between atoms: C_27  and  N_31
REMARK                            x       y       z     vdW  Elec       q    Type
REMARK                         _______ _______ _______ _____ _____    ______ ____
ROOT
ATOM      1  C   UNL     1     -10.010  -7.029   0.023  0.00  0.00    +0.147 A 
ATOM      2  C   UNL     1     -10.573  -7.873   1.008  0.00  0.00    +0.052 A 
ATOM      3  C   UNL     1     -11.686  -8.437   0.462  0.00  0.00    +0.057 A 
ATOM      4  C   UNL     1     -11.805  -7.941  -0.852  0.00  0.00    +0.168 A 
ATOM      5  O   UNL     1     -10.785  -7.094  -1.081  0.00  0.00    -0.447 OA
ENDROOT
BRANCH   1   7
ATOM      6  N   UNL     1      -8.435  -5.501  -0.833  0.00  0.00    -0.252 NA
ATOM      7  C   UNL     1      -8.856  -6.257   0.168  0.00  0.00    +0.157 C 
BRANCH   6  13
ATOM      8  C   UNL     1      -2.999  -2.535  -1.381  0.00  0.00    +0.136 A 
ATOM      9  N   UNL     1      -3.858  -2.507  -0.372  0.00  0.00    -0.233 NA
ATOM     10  C   UNL     1      -4.997  -3.192  -0.377  0.00  0.00    +0.080 A 
ATOM     11  C   UNL     1      -5.989  -3.233   0.653  0.00  0.00    +0.031 A 
ATOM     12  C   UNL     1      -7.105  -3.975   0.518  0.00  0.00    +0.030 A 
ATOM     13  C   UNL     1      -7.332  -4.763  -0.694  0.00  0.00    +0.065 A 
ATOM     14  C   UNL     1      -6.349  -4.724  -1.717  0.00  0.00    +0.045 A 
ATOM     15  C   UNL     1      -5.246  -3.971  -1.548  0.00  0.00    +0.042 A 
ATOM     16  S   UNL     1      -3.807  -3.632  -2.537  0.00  0.00    -0.061 S 
BRANCH   8  17
ATOM     17  S   UNL     1      -1.457  -1.697  -1.543  0.00  0.00    -0.095 S 
BRANCH  17  18
ATOM     18  C   UNL     1      -1.293  -0.775   0.010  0.00  0.00    +0.103 C 
BRANCH  18  20
ATOM     19  C   UNL     1      -0.016   1.306   0.009  0.00  0.00    +0.005 C 
ATOM     20  C   UNL     1       0.002  -0.004   0.002  0.00  0.00    -0.023 C 
ENDBRANCH  18  20
ENDBRANCH  17  18
ENDBRANCH   8  17
ENDBRANCH   6  13
ENDBRANCH   1   7
BRANCH   4  21
ATOM     21  S   UNL     1     -13.003  -8.331  -1.932  0.00  0.00    -0.025 S 
BRANCH  21  22
ATOM     22  C   UNL     1     -12.599  -7.400  -3.373  0.00  0.00    +0.143 A 
ATOM     23  N   UNL     1     -11.585  -6.585  -3.572  0.00  0.00    -0.232 NA
ATOM     24  C   UNL     1     -11.396  -5.935  -4.729  0.00  0.00    +0.080 A 
ATOM     25  C   UNL     1     -10.354  -5.037  -5.067  0.00  0.00    +0.031 A 
ATOM     26  C   UNL     1     -10.306  -4.456  -6.295  0.00  0.00    +0.035 A 
ATOM     27  C   UNL     1     -11.269  -4.715  -7.262  0.00  0.00    +0.127 A 
ATOM     28  C   UNL     1     -12.303  -5.585  -6.974  0.00  0.00    +0.050 A 
ATOM     29  C   UNL     1     -12.361  -6.178  -5.737  0.00  0.00    +0.042 A 
ATOM     30  S   UNL     1     -13.457  -7.327  -4.939  0.00  0.00    -0.060 S 
BRANCH  27  31
ATOM     31  N   UNL     1     -11.188  -4.065  -8.590  0.00  0.00    +0.056 N 
ATOM     32  O   UNL     1     -10.200  -3.236  -8.858  0.00  0.00    -0.126 OA
ATOM     33  O   UNL     1     -12.103  -4.315  -9.502  0.00  0.00    -0.126 OA
ENDBRANCH  27  31
ENDBRANCH  21  22
ENDBRANCH   4  21
TORSDOF 8
