REMARK  Name = ZINC65022375
REMARK  9 active torsions:
REMARK  status: ('A' for Active; 'I' for Inactive)
REMARK    1  A    between atoms: C_1  and  C_2
REMARK    2  A    between atoms: C_2  and  C_3
REMARK    3  A    between atoms: C_3  and  C_5
REMARK    4  A    between atoms: C_3  and  N_6
REMARK    5  A    between atoms: N_6  and  S_7
REMARK    6  A    between atoms: S_7  and  C_10
REMARK    7  A    between atoms: N_17  and  C_22
REMARK    8  A    between atoms: C_22  and  C_23
REMARK    9  A    between atoms: C_25  and  C_28
REMARK                            x       y       z     vdW  Elec       q    Type
REMARK                         _______ _______ _______ _____ _____    ______ ____
ROOT
ATOM      1  C   UNL     1       2.003   1.866  -3.140  0.00  0.00    +0.127 A 
ATOM      2  C   UNL     1       2.739   3.025  -3.311  0.00  0.00    +0.077 A 
ATOM      3  C   UNL     1       2.107   4.192  -3.702  0.00  0.00    +0.144 A 
ATOM      4  C   UNL     1       0.730   4.196  -3.922  0.00  0.00    +0.080 A 
ATOM      5  C   UNL     1      -0.002   3.033  -3.750  0.00  0.00    +0.049 A 
ATOM      6  C   UNL     1       0.638   1.868  -3.365  0.00  0.00    +0.069 A 
ATOM      7 CL   UNL     1      -0.276   0.407  -3.155  0.00  0.00    -0.081 Cl
ATOM      8  N   UNL     1       0.102   5.386  -4.317  0.00  0.00    -0.258 N 
ATOM      9  C   UNL     1       0.861   6.404  -4.777  0.00  0.00    +0.258 C 
ATOM     10  O   UNL     1       0.343   7.454  -5.096  0.00  0.00    -0.271 OA
ATOM     11  C   UNL     1       2.354   6.232  -4.894  0.00  0.00    +0.325 C 
ATOM     12  O   UNL     1       2.815   5.340  -3.876  0.00  0.00    -0.481 OA
ENDROOT
BRANCH   1  13
ATOM     13  S   UNL     1       2.809   0.380  -2.642  0.00  0.00    +0.060 S 
ATOM     14  O   UNL     1       4.180   0.705  -2.455  0.00  0.00    -0.153 OA
ATOM     15  O   UNL     1       2.382  -0.634  -3.540  0.00  0.00    -0.153 OA
BRANCH  13  16
ATOM     16  N   UNL     1       2.211  -0.025  -1.152  0.00  0.00    -0.187 NA
ATOM     17  H   UNL     1       1.692  -0.837  -1.042  0.00  0.00    +0.148 HD
BRANCH  16  18
ATOM     18  C   UNL     1       2.467   0.843   0.001  0.00  0.00    +0.073 C 
ATOM     19  C   UNL     1       1.279   1.784   0.205  0.00  0.00    +0.025 C 
BRANCH  18  21
ATOM     20  C   UNL     1       3.920  -0.868   1.099  0.00  0.00    +0.005 C 
ATOM     21  C   UNL     1       2.659  -0.016   1.253  0.00  0.00    +0.017 C 
ENDBRANCH  18  21
ENDBRANCH  16  18
ENDBRANCH  13  16
ENDBRANCH   1  13
BRANCH   8  22
ATOM     22  C   UNL     1      -1.354   5.522  -4.233  0.00  0.00    +0.193 C 
BRANCH  22  23
ATOM     23  C   UNL     1      -1.729   6.073  -2.881  0.00  0.00    +0.189 A 
ATOM     24  N   UNL     1      -1.989   5.346  -1.789  0.00  0.00    -0.195 NA
ATOM     25  C   UNL     1      -2.281   6.129  -0.788  0.00  0.00    +0.224 A 
ATOM     26  O   UNL     1      -2.215   7.396  -1.214  0.00  0.00    -0.338 OA
ATOM     27  N   UNL     1      -1.847   7.336  -2.584  0.00  0.00    -0.060 NA
ATOM     28  C   UNL     1      -2.632   5.684   0.608  0.00  0.00    +0.112 C 
ENDBRANCH  22  23
ENDBRANCH   8  22
TORSDOF 6
