REMARK  Name = ZINC11787630
REMARK  10 active torsions:
REMARK  status: ('A' for Active; 'I' for Inactive)
REMARK    1  A    between atoms: C_1  and  C_2
REMARK    2  A    between atoms: C_2  and  C_3
REMARK    3  A    between atoms: C_6  and  C_9
REMARK    4  A    between atoms: C_9  and  N_66
REMARK    5  A    between atoms: C_12  and  C_15
REMARK    6  A    between atoms: C_15  and  C_26
REMARK    7  A    between atoms: N_18  and  C_22
REMARK    8  A    between atoms: C_22  and  C_23
REMARK    9  A    between atoms: C_24  and  C_25
REMARK   10  A    between atoms: C_26  and  C_27
REMARK                            x       y       z     vdW  Elec       q    Type
REMARK                         _______ _______ _______ _____ _____    ______ ____
ROOT
ATOM      1  C   UNL     1       0.037  -2.202   0.624  0.00  0.00    +0.119 C 
ATOM      2  C   UNL     1       0.023  -0.767   1.113  0.00  0.00    +0.248 C 
ATOM      3  O   UNL     1       0.029  -0.385   2.263  0.00  0.00    -0.273 OA
ATOM      4  N   UNL     1       0.002  -0.004   0.002  0.00  0.00    -0.212 N 
ATOM      5  C   UNL     1      -0.004  -0.750  -1.109  0.00  0.00    +0.310 C 
ATOM      6  O   UNL     1      -0.026  -0.287  -2.233  0.00  0.00    -0.252 OA
ATOM      7  N   UNL     1       0.021  -2.068  -0.843  0.00  0.00    -0.284 N 
ATOM      8  H   UNL     1       0.024  -2.790  -1.491  0.00  0.00    +0.151 HD
ENDROOT
BRANCH   1  11
ATOM      9  C   UNL     1       3.802  -2.795   1.165  0.00  0.00    -0.078 C 
ATOM     10  C   UNL     1       2.535  -2.109   0.648  0.00  0.00    -0.013 C 
ATOM     11  C   UNL     1       1.309  -2.915   1.086  0.00  0.00    +0.018 C 
ATOM     12  C   UNL     1       1.304  -3.035   2.612  0.00  0.00    -0.013 C 
ATOM     13  C   UNL     1       2.607  -3.693   3.072  0.00  0.00    -0.078 C 
ATOM     14  N   UNL     1       3.746  -2.856   2.641  0.00  0.00    +0.382 N 
ATOM     15  H   UNL     1       3.620  -1.906   3.009  0.00  0.00    -0.081 HD
BRANCH  14  16
ATOM     16  C   UNL     1       5.009  -3.412   3.171  0.00  0.00    -0.043 C 
BRANCH  16  20
ATOM     17  C   UNL     1       4.521  -4.283   7.324  0.00  0.00    -0.048 A 
ATOM     18  C   UNL     1       4.252  -5.254   6.378  0.00  0.00    +0.004 A 
ATOM     19  C   UNL     1       4.410  -4.972   5.034  0.00  0.00    +0.002 A 
ATOM     20  C   UNL     1       4.837  -3.719   4.636  0.00  0.00    -0.064 A 
ATOM     21  C   UNL     1       5.111  -2.750   5.582  0.00  0.00    +0.002 A 
ATOM     22  C   UNL     1       4.949  -3.030   6.926  0.00  0.00    +0.004 A 
BRANCH  17  24
ATOM     23  C   UNL     1       5.659  -5.141   9.353  0.00  0.00    +0.009 C 
ATOM     24  C   UNL     1       4.348  -4.590   8.789  0.00  0.00    +0.032 C 
ENDBRANCH  17  24
ENDBRANCH  16  20
ENDBRANCH  14  16
ENDBRANCH   1  11
BRANCH   4  25
ATOM     25  C   UNL     1      -0.018   1.461   0.010  0.00  0.00    +0.206 C 
BRANCH  25  26
ATOM     26  C   UNL     1       1.363   1.970  -0.000  0.00  0.00    -0.083 C 
ATOM     27  C   UNL     1       2.465   2.377  -0.009  0.00  0.00    -0.104 C 
ATOM     28  C   UNL     1       3.845   2.886  -0.019  0.00  0.00    +0.106 C 
ENDBRANCH  25  26
ENDBRANCH   4  25
BRANCH   1  29
ATOM     29  C   UNL     1      -1.207  -2.948   1.110  0.00  0.00    +0.070 C 
BRANCH  29  30
ATOM     30  C   UNL     1      -2.436  -2.329   0.497  0.00  0.00    -0.042 A 
ATOM     31  C   UNL     1      -2.914  -2.794  -0.714  0.00  0.00    +0.004 A 
ATOM     32  C   UNL     1      -4.041  -2.227  -1.278  0.00  0.00    +0.003 A 
ATOM     33  C   UNL     1      -4.693  -1.194  -0.631  0.00  0.00    +0.038 A 
ATOM     34  C   UNL     1      -4.215  -0.727   0.582  0.00  0.00    +0.124 A 
ATOM     35  C   UNL     1      -3.089  -1.300   1.148  0.00  0.00    +0.042 A 
ATOM     36  F   UNL     1      -4.851   0.283   1.215  0.00  0.00    -0.205 F 
ENDBRANCH  29  30
ENDBRANCH   1  29
TORSDOF 8
