REMARK  Name = ZINC64384203
REMARK  6 active torsions:
REMARK  status: ('A' for Active; 'I' for Inactive)
REMARK    1  A    between atoms: C_1  and  C_2
REMARK    2  A    between atoms: C_6  and  N_9
REMARK    3  A    between atoms: C_7  and  C_8
REMARK    4  A    between atoms: C_10  and  C_12
REMARK    5  A    between atoms: N_14  and  N_15
REMARK    6  A    between atoms: N_15  and  C_16
REMARK                            x       y       z     vdW  Elec       q    Type
REMARK                         _______ _______ _______ _____ _____    ______ ____
ROOT
ATOM      1  C   UNL     1       1.930  -4.250   4.118  0.00  0.00    +0.315 C 
ATOM      2  O   UNL     1       2.755  -3.546   4.662  0.00  0.00    -0.264 OA
ATOM      3  N   UNL     1       1.665  -5.478   4.606  0.00  0.00    -0.229 N 
ATOM      4  H   UNL     1       1.006  -6.041   4.171  0.00  0.00    +0.173 HD
ENDROOT
BRANCH   1   6
ATOM      5  N   UNL     1       1.471  -2.526   2.420  0.00  0.00    -0.304 N 
ATOM      6  C   UNL     1       1.207  -3.754   2.907  0.00  0.00    +0.301 C 
ATOM      7  O   UNL     1       0.382  -4.458   2.363  0.00  0.00    -0.265 OA
ATOM      8  H   UNL     1       2.131  -1.963   2.855  0.00  0.00    +0.149 HD
BRANCH   5  14
ATOM      9  C   UNL     1      -0.019   1.526   0.010  0.00  0.00    +0.008 C 
ATOM     10  C   UNL     1       0.002  -0.004   0.002  0.00  0.00    -0.009 C 
ATOM     11  C   UNL     1       0.718  -0.497  -1.257  0.00  0.00    +0.003 C 
ATOM     12  C   UNL     1       0.739  -2.027  -1.265  0.00  0.00    +0.002 C 
ATOM     13  C   UNL     1       1.479  -2.534  -0.026  0.00  0.00    +0.022 C 
ATOM     14  C   UNL     1       0.763  -2.041   1.233  0.00  0.00    +0.076 C 
ATOM     15  C   UNL     1       0.742  -0.511   1.242  0.00  0.00    +0.009 C 
ATOM     16  C   UNL     1       0.026  -0.018   2.500  0.00  0.00    +0.009 C 
ENDBRANCH   5  14
ENDBRANCH   1   6
BRANCH   3  17
ATOM     17  N   UNL     1       2.343  -5.942   5.741  0.00  0.00    -0.263 N 
ATOM     18  H   UNL     1       3.002  -5.379   6.176  0.00  0.00    +0.170 HD
BRANCH  17  19
ATOM     19  C   UNL     1       2.068  -7.216   6.246  0.00  0.00    +0.063 A 
ATOM     20  C   UNL     1       1.129  -8.025   5.621  0.00  0.00    +0.027 A 
ATOM     21  C   UNL     1       0.859  -9.284   6.123  0.00  0.00    +0.022 A 
ATOM     22  C   UNL     1       1.524  -9.739   7.248  0.00  0.00    +0.042 A 
ATOM     23  C   UNL     1       2.462  -8.936   7.873  0.00  0.00    +0.042 A 
ATOM     24  C   UNL     1       2.740  -7.678   7.372  0.00  0.00    +0.065 A 
ATOM     25 CL   UNL     1       3.921  -6.673   8.152  0.00  0.00    -0.082 Cl
ATOM     26 CL   UNL     1       1.182 -11.321   7.875  0.00  0.00    -0.083 Cl
ENDBRANCH  17  19
ENDBRANCH   3  17
TORSDOF 4
