REMARK  Name = ZINC15779659
REMARK  8 active torsions:
REMARK  status: ('A' for Active; 'I' for Inactive)
REMARK    1  A    between atoms: C_1  and  C_2
REMARK    2  A    between atoms: C_2  and  C_3
REMARK    3  A    between atoms: C_2  and  O_4
REMARK    4  A    between atoms: O_4  and  C_5
REMARK    5  A    between atoms: C_8  and  C_13
REMARK    6  A    between atoms: C_10  and  O_11
REMARK    7  A    between atoms: O_11  and  C_12
REMARK    8  A    between atoms: C_13  and  N_14
REMARK                            x       y       z     vdW  Elec       q    Type
REMARK                         _______ _______ _______ _____ _____    ______ ____
ROOT
ATOM      1  N   UNL     1       6.683  -2.204  -0.607  0.00  0.00    +0.385 N 
ATOM      2  C   UNL     1       8.144  -2.276  -0.454  0.00  0.00    -0.072 C 
ATOM      3  C   UNL     1       8.502  -3.610   0.205  0.00  0.00    +0.037 C 
ATOM      4  C   UNL     1       7.835  -4.737  -0.537  0.00  0.00    +0.046 A 
ATOM      5  C   UNL     1       6.790  -4.506  -1.408  0.00  0.00    -0.024 A 
ATOM      6  C   UNL     1       6.215  -5.588  -2.059  0.00  0.00    +0.118 A 
ATOM      7  N   UNL     1       6.684  -6.803  -1.829  0.00  0.00    -0.223 NA
ATOM      8  C   UNL     1       7.690  -6.991  -0.988  0.00  0.00    +0.218 A 
ATOM      9  N   UNL     1       8.259  -5.979  -0.351  0.00  0.00    -0.219 NA
ATOM     10  N   UNL     1       8.158  -8.275  -0.770  0.00  0.00    -0.297 N 
ATOM     11  C   UNL     1       9.269  -8.519   0.161  0.00  0.00    +0.127 C 
ATOM     12  C   UNL     1       8.815  -9.544   1.207  0.00  0.00    +0.125 C 
ATOM     13  N   UNL     1       8.210 -10.689   0.512  0.00  0.00    -0.314 N 
ATOM     14  C   UNL     1       7.099 -10.445  -0.419  0.00  0.00    +0.125 C 
ATOM     15  C   UNL     1       7.549  -9.421  -1.461  0.00  0.00    +0.127 C 
ATOM     16  C   UNL     1       8.680 -11.979   0.731  0.00  0.00    +0.099 A 
ATOM     17  C   UNL     1       9.644 -12.205   1.708  0.00  0.00    +0.042 A 
ATOM     18  C   UNL     1      10.103 -13.493   1.915  0.00  0.00    +0.005 A 
ATOM     19  C   UNL     1       9.580 -14.516   1.135  0.00  0.00    +0.018 A 
ATOM     20  C   UNL     1       8.625 -14.220   0.183  0.00  0.00    +0.084 A 
ATOM     21  N   UNL     1       8.202 -12.982   0.011  0.00  0.00    -0.350 N 
ATOM     22  C   UNL     1       6.266  -3.122  -1.672  0.00  0.00    -0.039 C 
ATOM     23  H   UNL     1       7.527 -12.802  -0.663  0.00  0.00    +0.166 HD
ATOM     24  H   UNL     1       6.238  -2.468   0.260  0.00  0.00    -0.081 HD
ENDROOT
BRANCH   1  25
ATOM     25  C   UNL     1       6.294  -0.832  -0.960  0.00  0.00    -0.042 C 
BRANCH  25  29
ATOM     26  C   UNL     1       2.028  -0.546  -1.083  0.00  0.00    +0.162 A 
ATOM     27  C   UNL     1       2.708  -0.298   0.099  0.00  0.00    +0.049 A 
ATOM     28  C   UNL     1       4.087  -0.392   0.135  0.00  0.00    +0.005 A 
ATOM     29  C   UNL     1       4.791  -0.732  -1.005  0.00  0.00    -0.060 A 
ATOM     30  C   UNL     1       4.118  -0.981  -2.187  0.00  0.00    +0.051 A 
ATOM     31  C   UNL     1       2.736  -0.895  -2.229  0.00  0.00    +0.162 A 
BRANCH  31  32
ATOM     32  O   UNL     1       2.072  -1.145  -3.390  0.00  0.00    -0.491 OA
ATOM     33  C   UNL     1       2.864  -1.497  -4.527  0.00  0.00    +0.277 C 
ENDBRANCH  31  32
BRANCH  26  34
ATOM     34  O   UNL     1       0.672  -0.456  -1.121  0.00  0.00    -0.486 OA
BRANCH  34  36
ATOM     35  C   UNL     1       0.042   1.466   0.203  0.00  0.00    +0.051 C 
ATOM     36  C   UNL     1       0.015  -0.059   0.085  0.00  0.00    +0.167 C 
ATOM     37  C   UNL     1      -1.437  -0.543   0.057  0.00  0.00    +0.051 C 
ENDBRANCH  34  36
ENDBRANCH  26  34
ENDBRANCH  25  29
ENDBRANCH   1  25
TORSDOF 5
