REMARK  Name = ZINC07951864
REMARK  3 active torsions:
REMARK  status: ('A' for Active; 'I' for Inactive)
REMARK    1  A    between atoms: C_7  and  C_15
REMARK    2  A    between atoms: N_20  and  C_23
REMARK    3  A    between atoms: C_28  and  O_29
REMARK                            x       y       z     vdW  Elec       q    Type
REMARK                         _______ _______ _______ _____ _____    ______ ____
ROOT
ATOM      1  C   UNL     1      -3.509   5.456  -0.021  0.00  0.00    +0.228 C 
ATOM      2  O   UNL     1      -3.777   6.024   1.017  0.00  0.00    -0.275 OA
ATOM      3  N   UNL     1      -3.053   4.188   0.003  0.00  0.00    -0.298 N 
ATOM      4  C   UNL     1      -2.764   3.514   1.278  0.00  0.00    +0.126 C 
ATOM      5  C   UNL     1      -1.351   2.925   1.209  0.00  0.00    +0.124 C 
ATOM      6  N   UNL     1      -1.236   2.075   0.017  0.00  0.00    -0.324 N 
ATOM      7  C   UNL     1      -1.413   2.857  -1.214  0.00  0.00    +0.124 C 
ATOM      8  C   UNL     1      -2.829   3.442  -1.244  0.00  0.00    +0.126 C 
ENDROOT
BRANCH   1  15
ATOM      9  C   UNL     1      -6.836   4.680  -2.782  0.00  0.00    +0.001 A 
ATOM     10  C   UNL     1      -7.736   5.721  -2.637  0.00  0.00    +0.004 A 
ATOM     11  C   UNL     1      -7.328   6.911  -2.070  0.00  0.00    +0.046 A 
ATOM     12  C   UNL     1      -6.014   7.067  -1.643  0.00  0.00    +0.133 A 
ATOM     13  C   UNL     1      -5.115   6.023  -1.790  0.00  0.00    +0.011 A 
ATOM     14  C   UNL     1      -5.529   4.832  -2.360  0.00  0.00    +0.008 A 
ATOM     15  C   UNL     1      -3.688   6.168  -1.337  0.00  0.00    +0.142 C 
ATOM     16  C   UNL     1      -3.333   7.620  -1.168  0.00  0.00    +0.011 A 
ATOM     17  C   UNL     1      -2.000   7.993  -1.128  0.00  0.00    +0.008 A 
ATOM     18  C   UNL     1      -1.654   9.321  -0.975  0.00  0.00    +0.001 A 
ATOM     19  C   UNL     1      -2.639  10.285  -0.860  0.00  0.00    +0.004 A 
ATOM     20  C   UNL     1      -3.970   9.919  -0.899  0.00  0.00    +0.046 A 
ATOM     21  C   UNL     1      -4.322   8.582  -1.053  0.00  0.00    +0.133 A 
ATOM     22  O   UNL     1      -5.633   8.243  -1.090  0.00  0.00    -0.455 OA
ENDBRANCH   1  15
BRANCH   6  23
ATOM     23  C   UNL     1      -0.015   1.390   0.005  0.00  0.00    +0.072 A 
ATOM     24  C   UNL     1       1.179   2.097  -0.006  0.00  0.00    +0.027 A 
ATOM     25  C   UNL     1       2.383   1.418  -0.024  0.00  0.00    +0.002 A 
ATOM     26  C   UNL     1       2.401   0.036  -0.030  0.00  0.00    +0.004 A 
ATOM     27  C   UNL     1       1.215  -0.675  -0.019  0.00  0.00    +0.047 A 
ATOM     28  C   UNL     1       0.004  -0.003  -0.002  0.00  0.00    +0.138 A 
BRANCH  28  29
ATOM     29  O   UNL     1      -1.163  -0.701   0.009  0.00  0.00    -0.505 OA
ATOM     30  H   UNL     1      -1.511  -0.899  -0.872  0.00  0.00    +0.292 HD
ENDBRANCH  28  29
ENDBRANCH   6  23
TORSDOF 3
