REMARK  Name = ZINC66632692
REMARK  7 active torsions:
REMARK  status: ('A' for Active; 'I' for Inactive)
REMARK    1  A    between atoms: C_1  and  C_2
REMARK    2  A    between atoms: C_2  and  C_3
REMARK    3  A    between atoms: C_2  and  C_4
REMARK    4  A    between atoms: C_4  and  N_5
REMARK    5  A    between atoms: N_8  and  N_9
REMARK    6  A    between atoms: C_10  and  C_12
REMARK    7  A    between atoms: C_24  and  C_26
REMARK                            x       y       z     vdW  Elec       q    Type
REMARK                         _______ _______ _______ _____ _____    ______ ____
ROOT
ATOM      1  C   UNL     1      -3.447   1.483  -5.710  0.00  0.00    +0.164 C 
ATOM      2  C   UNL     1      -2.644   0.456  -6.538  0.00  0.00    +0.037 C 
ATOM      3  C   UNL     1      -2.623   1.103  -7.957  0.00  0.00    +0.012 C 
ATOM      4  C   UNL     1      -1.538   2.181  -7.929  0.00  0.00    +0.005 C 
ATOM      5  C   UNL     1      -1.704   3.145  -9.101  0.00  0.00    +0.000 C 
ATOM      6  C   UNL     1      -3.060   3.846  -8.971  0.00  0.00    +0.002 C 
ATOM      7  C   UNL     1      -4.162   2.792  -9.075  0.00  0.00    +0.023 C 
ATOM      8  C   UNL     1      -4.029   1.729  -8.001  0.00  0.00    +0.080 C 
ATOM      9  N   UNL     1      -4.269   2.262  -6.654  0.00  0.00    -0.283 N 
ATOM     10  C   UNL     1      -5.092   3.280  -6.335  0.00  0.00    +0.247 C 
ATOM     11  O   UNL     1      -5.662   3.898  -7.213  0.00  0.00    -0.270 OA
ENDROOT
BRANCH  10  12
ATOM     12  C   UNL     1      -5.302   3.645  -4.918  0.00  0.00    +0.037 A 
ATOM     13  C   UNL     1      -4.217   3.703  -4.041  0.00  0.00    +0.013 A 
ATOM     14  C   UNL     1      -4.420   4.045  -2.720  0.00  0.00    +0.001 A 
ATOM     15  C   UNL     1      -5.694   4.330  -2.263  0.00  0.00    +0.000 A 
ATOM     16  C   UNL     1      -6.774   4.273  -3.127  0.00  0.00    +0.001 A 
ATOM     17  C   UNL     1      -6.584   3.939  -4.452  0.00  0.00    +0.013 A 
ENDBRANCH  10  12
BRANCH   1  19
ATOM     18  N   UNL     1      -3.825   0.302  -3.569  0.00  0.00    -0.232 N 
ATOM     19  C   UNL     1      -4.337   0.766  -4.726  0.00  0.00    +0.250 C 
ATOM     20  O   UNL     1      -5.513   0.608  -4.976  0.00  0.00    -0.272 OA
ATOM     21  H   UNL     1      -2.884   0.428  -3.369  0.00  0.00    +0.173 HD
BRANCH  18  25
ATOM     22  N   UNL     1      -2.833  -0.653  -1.220  0.00  0.00    -0.298 N 
ATOM     23  C   UNL     1      -4.140  -0.829  -1.498  0.00  0.00    +0.316 C 
ATOM     24  O   UNL     1      -4.858  -1.407  -0.705  0.00  0.00    -0.251 OA
ATOM     25  N   UNL     1      -4.652  -0.365  -2.655  0.00  0.00    -0.218 N 
ATOM     26  H   UNL     1      -2.261  -0.192  -1.853  0.00  0.00    +0.150 HD
ATOM     27  H   UNL     1      -5.592  -0.491  -2.855  0.00  0.00    +0.174 HD
BRANCH  22  28
ATOM     28  C   UNL     1      -2.277  -1.158   0.037  0.00  0.00    +0.108 C 
BRANCH  28  30
ATOM     29  C   UNL     1      -0.599   0.689   0.159  0.00  0.00    +0.009 C 
ATOM     30  C   UNL     1      -0.784  -0.829   0.103  0.00  0.00    -0.000 C 
ATOM     31  C   UNL     1      -0.177  -1.464   1.356  0.00  0.00    +0.009 C 
ENDBRANCH  28  30
ENDBRANCH  22  28
ENDBRANCH  18  25
ENDBRANCH   1  19
TORSDOF 5
