REMARK  Name = ZINC12340659
REMARK  4 active torsions:
REMARK  status: ('A' for Active; 'I' for Inactive)
REMARK    1  A    between atoms: C_4  and  C_7
REMARK    2  A    between atoms: C_9  and  N_16
REMARK    3  A    between atoms: N_16  and  N_17
REMARK    4  A    between atoms: C_18  and  C_19
REMARK                            x       y       z     vdW  Elec       q    Type
REMARK                         _______ _______ _______ _____ _____    ______ ____
ROOT
ATOM      1  C   UNL     1      -7.156   1.050  -0.647  0.00  0.00    +0.078 A 
ATOM      2  C   UNL     1      -5.980   1.789  -0.441  0.00  0.00    +0.073 A 
ATOM      3  C   UNL     1      -4.800   1.121  -0.254  0.00  0.00    +0.145 A 
ATOM      4  N   UNL     1      -4.804  -0.246  -0.263  0.00  0.00    -0.181 N 
ATOM      5  C   UNL     1      -5.971  -0.932  -0.463  0.00  0.00    +0.255 A 
ATOM      6  N   UNL     1      -7.119  -0.274  -0.650  0.00  0.00    -0.210 NA
ATOM      7  N   UNL     1      -5.676  -2.227  -0.422  0.00  0.00    -0.197 NA
ATOM      8  C   UNL     1      -4.376  -2.384  -0.206  0.00  0.00    +0.247 A 
ATOM      9  N   UNL     1      -3.801  -1.211  -0.102  0.00  0.00    -0.151 NA
ENDROOT
BRANCH   1  13
ATOM     10  C   UNL     1     -10.848   3.069  -1.251  0.00  0.00    +0.000 A 
ATOM     11  C   UNL     1     -10.810   1.686  -1.254  0.00  0.00    +0.001 A 
ATOM     12  C   UNL     1      -9.614   1.025  -1.059  0.00  0.00    +0.010 A 
ATOM     13  C   UNL     1      -8.443   1.754  -0.858  0.00  0.00    +0.001 A 
ATOM     14  C   UNL     1      -8.488   3.148  -0.851  0.00  0.00    +0.010 A 
ATOM     15  C   UNL     1      -9.689   3.797  -1.053  0.00  0.00    +0.001 A 
ENDBRANCH   1  13
BRANCH   3  16
ATOM     16  N   UNL     1      -3.627   1.816  -0.054  0.00  0.00    -0.221 N 
ATOM     17  H   UNL     1      -2.796   1.335   0.082  0.00  0.00    +0.176 HD
BRANCH  16  18
ATOM     18  N   UNL     1      -3.635   3.217  -0.046  0.00  0.00    -0.189 NA
ATOM     19  C   UNL     1      -2.516   3.872   0.019  0.00  0.00    +0.139 C 
BRANCH  19  20
ATOM     20  C   UNL     1      -1.257   3.224  -0.392  0.00  0.00    +0.013 A 
ATOM     21  C   UNL     1      -1.280   2.154  -1.290  0.00  0.00    +0.012 A 
ATOM     22  C   UNL     1      -0.099   1.552  -1.671  0.00  0.00    +0.021 A 
ATOM     23  C   UNL     1       1.108   2.006  -1.166  0.00  0.00    +0.042 A 
ATOM     24  C   UNL     1       1.139   3.066  -0.276  0.00  0.00    +0.040 A 
ATOM     25  C   UNL     1      -0.036   3.674   0.118  0.00  0.00    +0.051 A 
ATOM     26 CL   UNL     1       0.003   4.999   1.240  0.00  0.00    -0.083 Cl
ATOM     27 CL   UNL     1       2.590   1.242  -1.651  0.00  0.00    -0.083 Cl
ENDBRANCH  19  20
ENDBRANCH  16  18
ENDBRANCH   3  16
TORSDOF 4
