REMARK  Name = ZINC39944396
REMARK  9 active torsions:
REMARK  status: ('A' for Active; 'I' for Inactive)
REMARK    1  A    between atoms: C_1  and  C_2
REMARK    2  A    between atoms: C_10  and  C_14
REMARK    3  A    between atoms: C_14  and  S_15
REMARK    4  A    between atoms: S_15  and  C_16
REMARK    5  A    between atoms: C_19  and  C_23
REMARK    6  A    between atoms: N_21  and  N_22
REMARK    7  A    between atoms: C_23  and  C_24
REMARK    8  A    between atoms: C_24  and  C_26
REMARK    9  A    between atoms: C_24  and  C_27
REMARK                            x       y       z     vdW  Elec       q    Type
REMARK                         _______ _______ _______ _____ _____    ______ ____
ROOT
ATOM      1  C   UNL     1      -3.635  -7.610   6.472  0.00  0.00    +0.189 C 
ATOM      2  N   UNL     1      -2.837  -7.787   7.470  0.00  0.00    -0.161 NA
ATOM      3  N   UNL     1      -3.323  -8.763   8.349  0.00  0.00    -0.245 N 
ATOM      4  C   UNL     1      -4.599  -9.229   7.779  0.00  0.00    +0.193 C 
ATOM      5  N   UNL     1      -4.751  -8.431   6.551  0.00  0.00    -0.225 N 
ATOM      6  H   UNL     1      -2.904  -9.071   9.167  0.00  0.00    +0.170 HD
ENDROOT
BRANCH   5   7
ATOM      7  N   UNL     1      -5.787  -8.488   5.662  0.00  0.00    -0.250 NA
ATOM      8  H   UNL     1      -5.648  -7.839   4.903  0.00  0.00    +0.141 HD
ATOM      9  H   UNL     1      -5.914  -9.428   5.316  0.00  0.00    +0.141 HD
ENDBRANCH   5   7
BRANCH   1  10
ATOM     10  S   UNL     1      -3.346  -6.460   5.169  0.00  0.00    -0.080 S 
BRANCH  10  11
ATOM     11  C   UNL     1      -1.761  -5.694   5.604  0.00  0.00    +0.150 C 
BRANCH  11  20
ATOM     12  C   UNL     1       0.031   2.275   1.040  0.00  0.00    +0.007 C 
ATOM     13  C   UNL     1       0.123   0.750   0.943  0.00  0.00    -0.012 C 
ATOM     14  C   UNL     1      -1.283   0.170   0.810  0.00  0.00    +0.008 C 
ATOM     15  C   UNL     1      -1.218  -1.353   0.629  0.00  0.00    +0.033 C 
ATOM     16  C   UNL     1      -0.376  -1.894   1.782  0.00  0.00    -0.042 C 
ATOM     17  C   UNL     1      -0.769  -2.845   2.631  0.00  0.00    +0.071 C 
ATOM     18  C   UNL     1       0.085  -3.128   3.815  0.00  0.00    +0.111 C 
ATOM     19  N   UNL     1      -0.246  -4.014   4.724  0.00  0.00    -0.227 NA
ATOM     20  C   UNL     1      -1.391  -4.675   4.556  0.00  0.00    +0.134 C 
ATOM     21  N   UNL     1      -2.221  -4.513   3.558  0.00  0.00    -0.160 NA
ATOM     22  C   UNL     1      -2.038  -3.643   2.548  0.00  0.00    +0.271 C 
ATOM     23  O   UNL     1      -2.838  -3.513   1.638  0.00  0.00    -0.268 OA
ATOM     24  S   UNL     1       1.478  -2.060   3.631  0.00  0.00    -0.097 S 
ATOM     25  C   UNL     1       1.013  -1.301   2.027  0.00  0.00    +0.080 C 
ATOM     26  C   UNL     1       0.823   0.208   2.193  0.00  0.00    +0.022 C 
ENDBRANCH  11  20
ENDBRANCH  10  11
ENDBRANCH   1  10
BRANCH   4  27
ATOM     27  C   UNL     1      -5.752  -8.950   8.745  0.00  0.00    +0.052 C 
BRANCH  27  28
ATOM     28  C   UNL     1      -5.533  -9.733  10.041  0.00  0.00    +0.019 C 
ATOM     29  C   UNL     1      -6.606  -9.344  11.060  0.00  0.00    +0.012 C 
BRANCH  28  30
ATOM     30  C   UNL     1      -5.623 -11.210   9.756  0.00  0.00    -0.044 A 
ATOM     31  C   UNL     1      -6.785 -11.743   9.231  0.00  0.00    +0.004 A 
ATOM     32  C   UNL     1      -6.867 -13.098   8.970  0.00  0.00    +0.000 A 
ATOM     33  C   UNL     1      -5.788 -13.920   9.234  0.00  0.00    +0.000 A 
ATOM     34  C   UNL     1      -4.625 -13.386   9.759  0.00  0.00    +0.000 A 
ATOM     35  C   UNL     1      -4.542 -12.031  10.016  0.00  0.00    +0.004 A 
ENDBRANCH  28  30
ENDBRANCH  27  28
ENDBRANCH   4  27
TORSDOF 7
