REMARK  Name = ZINC00237194
REMARK  7 active torsions:
REMARK  status: ('A' for Active; 'I' for Inactive)
REMARK    1  A    between atoms: C_1  and  C_2
REMARK    2  A    between atoms: C_7  and  N_8
REMARK    3  A    between atoms: N_8  and  C_9
REMARK    4  A    between atoms: C_9  and  C_11
REMARK    5  A    between atoms: C_9  and  C_12
REMARK    6  A    between atoms: N_14  and  N_15
REMARK    7  A    between atoms: C_16  and  C_17
REMARK                            x       y       z     vdW  Elec       q    Type
REMARK                         _______ _______ _______ _____ _____    ______ ____
ROOT
ATOM      1  C   UNL     1       3.342  10.165   0.029  0.00  0.00    +0.252 C 
ATOM      2  O   UNL     1       4.397   9.567   0.015  0.00  0.00    -0.272 OA
ATOM      3  N   UNL     1       2.180   9.482   0.036  0.00  0.00    -0.205 N 
ATOM      4  H   UNL     1       1.336   9.960   0.047  0.00  0.00    +0.177 HD
ENDROOT
BRANCH   1   5
ATOM      5  C   UNL     1       3.329  11.672   0.038  0.00  0.00    +0.155 C 
ATOM      6  C   UNL     1       2.592  12.184  -1.201  0.00  0.00    +0.038 C 
BRANCH   5   7
ATOM      7  N   UNL     1       4.707  12.172   0.028  0.00  0.00    -0.333 N 
ATOM      8  H   UNL     1       5.419  11.624  -0.337  0.00  0.00    +0.147 HD
BRANCH   7  15
ATOM      9  C   UNL     1       7.409  13.058  -0.021  0.00  0.00    +0.045 C 
ATOM     10  C   UNL     1       6.300  13.910   0.540  0.00  0.00    -0.030 A 
ATOM     11  C   UNL     1       6.580  15.164   1.048  0.00  0.00    +0.005 A 
ATOM     12  C   UNL     1       5.564  15.944   1.568  0.00  0.00    +0.000 A 
ATOM     13  C   UNL     1       4.263  15.474   1.577  0.00  0.00    +0.002 A 
ATOM     14  C   UNL     1       3.975  14.224   1.067  0.00  0.00    +0.023 A 
ATOM     15  C   UNL     1       4.994  13.438   0.544  0.00  0.00    +0.031 A 
ENDBRANCH   7  15
ENDBRANCH   5   7
ENDBRANCH   1   5
BRANCH   3  16
ATOM     16  N   UNL     1       2.191   8.081   0.027  0.00  0.00    -0.188 NA
ATOM     17  C   UNL     1       1.073   7.423   0.034  0.00  0.00    +0.138 C 
BRANCH  17  18
ATOM     18  C   UNL     1       1.085   5.949   0.025  0.00  0.00    -0.005 A 
ATOM     19  C   UNL     1       2.312   5.260   0.009  0.00  0.00    +0.010 A 
ATOM     20  C   UNL     1       2.349   3.904   0.001  0.00  0.00    +0.009 A 
ATOM     21  C   UNL     1       1.150   3.167   0.008  0.00  0.00    -0.018 A 
ATOM     22  C   UNL     1       1.163   1.762   0.000  0.00  0.00    +0.008 A 
ATOM     23  C   UNL     1      -0.013   1.076   0.008  0.00  0.00    +0.001 A 
ATOM     24  C   UNL     1      -1.235   1.745   0.018  0.00  0.00    +0.001 A 
ATOM     25  C   UNL     1      -1.288   3.105   0.031  0.00  0.00    +0.008 A 
ATOM     26  C   UNL     1      -0.094   3.849   0.024  0.00  0.00    -0.017 A 
ATOM     27  C   UNL     1      -0.113   5.251   0.032  0.00  0.00    +0.018 A 
ENDBRANCH  17  18
ENDBRANCH   3  16
TORSDOF 5
