REMARK  Name = ZINC19851785
REMARK  13 active torsions:
REMARK  status: ('A' for Active; 'I' for Inactive)
REMARK    1  A    between atoms: C_1  and  C_2
REMARK    2  A    between atoms: C_2  and  O_3
REMARK    3  A    between atoms: O_3  and  C_4
REMARK    4  A    between atoms: C_7  and  C_13
REMARK    5  A    between atoms: C_9  and  O_10
REMARK    6  A    between atoms: O_10  and  C_11
REMARK    7  A    between atoms: C_11  and  C_12
REMARK    8  A    between atoms: N_18  and  C_32
REMARK    9  A    between atoms: C_22  and  C_30
REMARK   10  A    between atoms: C_23  and  N_29
REMARK   11  A    between atoms: C_24  and  C_25
REMARK   12  A    between atoms: C_24  and  C_27
REMARK   13  A    between atoms: C_32  and  C_33
REMARK                            x       y       z     vdW  Elec       q    Type
REMARK                         _______ _______ _______ _____ _____    ______ ____
ROOT
ATOM      1  C   UNL     1       3.715  -0.701  -0.037  0.00  0.00    +0.068 C 
ATOM      2  C   UNL     1       4.582  -0.224   1.129  0.00  0.00    +0.044 C 
ATOM      3  C   UNL     1       3.838  -0.261   2.444  0.00  0.00    +0.094 C 
ATOM      4  N   UNL     1       4.195  -1.434   3.246  0.00  0.00    -0.294 NA
ATOM      5  C   UNL     1       5.641  -1.435   3.532  0.00  0.00    +0.112 C 
ATOM      6  C   UNL     1       6.366  -1.564   2.214  0.00  0.00    -0.006 C 
ATOM      7  C   UNL     1       5.853  -1.025   1.124  0.00  0.00    -0.026 C 
ATOM      8  C   UNL     1       6.533  -1.203  -0.183  0.00  0.00    +0.074 C 
ATOM      9  C   UNL     1       5.855  -0.922  -1.325  0.00  0.00    +0.054 C 
ATOM     10  C   UNL     1       4.446  -0.411  -1.349  0.00  0.00    +0.188 C 
ENDROOT
BRANCH   1  14
ATOM     11  C   UNL     1      -0.017   1.387   0.011  0.00  0.00    +0.162 A 
ATOM     12  C   UNL     1       1.168   2.076   0.214  0.00  0.00    +0.050 A 
ATOM     13  C   UNL     1       2.373   1.398   0.199  0.00  0.00    +0.008 A 
ATOM     14  C   UNL     1       2.399   0.033  -0.021  0.00  0.00    -0.037 A 
ATOM     15  C   UNL     1       1.220  -0.660  -0.225  0.00  0.00    +0.053 A 
ATOM     16  C   UNL     1       0.009   0.013  -0.210  0.00  0.00    +0.162 A 
BRANCH  11  17
ATOM     17  O   UNL     1      -1.202   2.054   0.021  0.00  0.00    -0.489 OA
BRANCH  17  19
ATOM     18  C   UNL     1      -2.572   4.034   0.228  0.00  0.00    +0.048 C 
ATOM     19  C   UNL     1      -1.153   3.463   0.253  0.00  0.00    +0.226 C 
ENDBRANCH  17  19
ENDBRANCH  11  17
BRANCH  16  20
ATOM     20  O   UNL     1      -1.151  -0.667  -0.410  0.00  0.00    -0.489 OA
BRANCH  20  21
ATOM     21  C   UNL     1      -1.048  -2.075  -0.630  0.00  0.00    +0.226 C 
ATOM     22  C   UNL     1      -2.446  -2.663  -0.835  0.00  0.00    +0.048 C 
ENDBRANCH  20  21
ENDBRANCH  16  20
ENDBRANCH   1  14
BRANCH   9  23
ATOM     23  N   UNL     1       6.492  -1.116  -2.519  0.00  0.00    -0.358 N 
ATOM     24  H   UNL     1       5.970  -0.898  -3.462  0.00  0.00    +0.142 HD
ATOM     25  H   UNL     1       7.527  -1.489  -2.536  0.00  0.00    +0.142 HD
ENDBRANCH   9  23
BRANCH  10  26
ATOM     26  C   UNL     1       3.721  -1.057  -2.455  0.00  0.00    +0.091 C 
ATOM     27  N   UNL     1       3.161  -1.555  -3.308  0.00  0.00    -0.194 NA
ENDBRANCH  10  26
BRANCH  10  28
ATOM     28  C   UNL     1       4.467   1.043  -1.575  0.00  0.00    +0.091 C 
ATOM     29  N   UNL     1       4.483   2.165  -1.750  0.00  0.00    -0.194 NA
ENDBRANCH  10  28
BRANCH   8  30
ATOM     30  C   UNL     1       7.888  -1.663  -0.238  0.00  0.00    +0.101 C 
ATOM     31  N   UNL     1       8.963  -2.029  -0.282  0.00  0.00    -0.191 NA
ENDBRANCH   8  30
BRANCH   4  32
ATOM     32  C   UNL     1       3.413  -1.479   4.489  0.00  0.00    +0.120 C 
BRANCH  32  33
ATOM     33  C   UNL     1       3.622  -2.810   5.166  0.00  0.00    -0.033 A 
ATOM     34  C   UNL     1       2.783  -3.870   4.878  0.00  0.00    +0.005 A 
ATOM     35  C   UNL     1       2.977  -5.092   5.495  0.00  0.00    +0.000 A 
ATOM     36  C   UNL     1       4.004  -5.250   6.407  0.00  0.00    +0.000 A 
ATOM     37  C   UNL     1       4.840  -4.188   6.699  0.00  0.00    +0.000 A 
ATOM     38  C   UNL     1       4.648  -2.968   6.078  0.00  0.00    +0.005 A 
ENDBRANCH  32  33
ENDBRANCH   4  32
TORSDOF 11
