REMARK  Name = ZINC20898564
REMARK  8 active torsions:
REMARK  status: ('A' for Active; 'I' for Inactive)
REMARK    1  A    between atoms: C_1  and  C_2
REMARK    2  A    between atoms: C_7  and  C_8
REMARK    3  A    between atoms: C_10  and  C_33
REMARK    4  A    between atoms: C_14  and  C_17
REMARK    5  A    between atoms: C_19  and  O_24
REMARK    6  A    between atoms: C_22  and  O_23
REMARK    7  A    between atoms: N_25  and  C_32
REMARK    8  A    between atoms: N_28  and  C_31
REMARK                            x       y       z     vdW  Elec       q    Type
REMARK                         _______ _______ _______ _____ _____    ______ ____
ROOT
ATOM      1  C   UNL     1       8.406   3.256  -1.742  0.00  0.00    +0.044 C 
ATOM      2  C   UNL     1       6.955   3.142  -1.352  0.00  0.00    -0.046 A 
ATOM      3  C   UNL     1       6.253   4.273  -0.979  0.00  0.00    +0.028 A 
ATOM      4  C   UNL     1       4.919   4.171  -0.619  0.00  0.00    +0.052 A 
ATOM      5  C   UNL     1       4.290   2.922  -0.653  0.00  0.00    +0.068 A 
ATOM      6  C   UNL     1       4.999   1.795  -1.021  0.00  0.00    +0.031 A 
ATOM      7  C   UNL     1       6.333   1.907  -1.370  0.00  0.00    -0.045 A 
ATOM      8  C   UNL     1       7.111   0.680  -1.770  0.00  0.00    +0.044 C 
ATOM      9  N   UNL     1       2.932   2.857  -0.310  0.00  0.00    -0.306 N 
ATOM     10  C   UNL     1       2.167   1.756  -0.078  0.00  0.00    +0.069 A 
ATOM     11  C   UNL     1       0.905   2.189   0.246  0.00  0.00    +0.089 A 
ATOM     12  C   UNL     1       0.936   3.672   0.174  0.00  0.00    +0.082 A 
ATOM     13  C   UNL     1       2.170   4.009  -0.172  0.00  0.00    +0.073 A 
ATOM     14  C   UNL     1       2.756   5.383  -0.417  0.00  0.00    +0.154 C 
ATOM     15  N   UNL     1       4.208   5.300  -0.196  0.00  0.00    -0.330 N 
ATOM     16  N   UNL     1      -0.237   4.387   0.460  0.00  0.00    -0.294 N 
ATOM     17  C   UNL     1      -1.335   3.670   0.788  0.00  0.00    +0.332 A 
ATOM     18  O   UNL     1      -2.350   4.290   1.037  0.00  0.00    -0.246 OA
ATOM     19  N   UNL     1      -1.399   2.337   0.855  0.00  0.00    -0.263 N 
ATOM     20  C   UNL     1      -0.345   1.516   0.610  0.00  0.00    +0.266 A 
ATOM     21  O   UNL     1      -0.434   0.304   0.682  0.00  0.00    -0.267 OA
ATOM     22  C   UNL     1      -2.680   1.725   1.219  0.00  0.00    +0.157 C 
ATOM     23  C   UNL     1      -0.270   5.851   0.407  0.00  0.00    +0.154 C 
ATOM     24  H   UNL     1       4.737   6.126   0.303  0.00  0.00    +0.147 HD
ENDROOT
BRANCH  14  25
ATOM     25  C   UNL     1       2.481   5.809  -1.836  0.00  0.00    +0.023 A 
ATOM     26  C   UNL     1       2.058   4.880  -2.767  0.00  0.00    +0.054 A 
ATOM     27  C   UNL     1       1.804   5.273  -4.072  0.00  0.00    +0.117 A 
ATOM     28  C   UNL     1       1.974   6.599  -4.444  0.00  0.00    +0.049 A 
ATOM     29  C   UNL     1       2.396   7.528  -3.513  0.00  0.00    +0.049 A 
ATOM     30  C   UNL     1       2.646   7.136  -2.206  0.00  0.00    +0.122 A 
BRANCH  30  31
ATOM     31  O   UNL     1       3.057   8.051  -1.288  0.00  0.00    -0.506 OA
ATOM     32  H   UNL     1       3.188   9.104  -1.581  0.00  0.00    +0.292 HD
ENDBRANCH  30  31
BRANCH  27  33
ATOM     33  O   UNL     1       1.388   4.359  -4.989  0.00  0.00    -0.507 OA
ATOM     34  H   UNL     1       1.186   4.670  -6.024  0.00  0.00    +0.292 HD
ENDBRANCH  27  33
ENDBRANCH  14  25
BRANCH  10  35
ATOM     35  C   UNL     1       2.613   0.352  -0.159  0.00  0.00    -0.000 A 
ATOM     36  C   UNL     1       3.683  -0.091   0.622  0.00  0.00    +0.010 A 
ATOM     37  C   UNL     1       4.091  -1.406   0.544  0.00  0.00    +0.001 A 
ATOM     38  C   UNL     1       3.450  -2.284  -0.312  0.00  0.00    +0.000 A 
ATOM     39  C   UNL     1       2.393  -1.850  -1.093  0.00  0.00    +0.001 A 
ATOM     40  C   UNL     1       1.971  -0.539  -1.022  0.00  0.00    +0.010 A 
ENDBRANCH  10  35
TORSDOF 4
