REMARK  Name = ZINC23699966
REMARK  8 active torsions:
REMARK  status: ('A' for Active; 'I' for Inactive)
REMARK    1  A    between atoms: C_1  and  C_2
REMARK    2  A    between atoms: C_3  and  N_15
REMARK    3  A    between atoms: N_6  and  C_9
REMARK    4  A    between atoms: N_7  and  C_8
REMARK    5  A    between atoms: C_16  and  C_18
REMARK    6  A    between atoms: C_18  and  C_20
REMARK    7  A    between atoms: C_18  and  N_21
REMARK    8  A    between atoms: C_24  and  C_27
REMARK                            x       y       z     vdW  Elec       q    Type
REMARK                         _______ _______ _______ _____ _____    ______ ____
ROOT
ATOM      1  C   UNL     1      -0.765   2.589  -3.007  0.00  0.00    +0.067 C 
ATOM      2  C   UNL     1      -0.345   2.678  -1.562  0.00  0.00    +0.059 A 
ATOM      3  C   UNL     1      -1.024   2.166  -0.511  0.00  0.00    +0.121 A 
ATOM      4  C   UNL     1      -0.260   2.486   0.696  0.00  0.00    +0.293 A 
ATOM      5  O   UNL     1      -0.556   2.193   1.840  0.00  0.00    -0.264 OA
ATOM      6  N   UNL     1       0.838   3.162   0.298  0.00  0.00    -0.216 N 
ATOM      7  N   UNL     1       0.791   3.284  -1.096  0.00  0.00    -0.282 N 
ATOM      8  C   UNL     1       1.798   3.952  -1.924  0.00  0.00    +0.171 C 
ENDROOT
BRANCH   6   9
ATOM      9  C   UNL     1       1.846   3.654   1.132  0.00  0.00    +0.067 A 
ATOM     10  C   UNL     1       3.181   3.435   0.815  0.00  0.00    +0.028 A 
ATOM     11  C   UNL     1       4.174   3.928   1.638  0.00  0.00    +0.002 A 
ATOM     12  C   UNL     1       3.842   4.628   2.783  0.00  0.00    +0.000 A 
ATOM     13  C   UNL     1       2.514   4.843   3.104  0.00  0.00    +0.002 A 
ATOM     14  C   UNL     1       1.516   4.359   2.283  0.00  0.00    +0.028 A 
ENDBRANCH   6   9
BRANCH   3  15
ATOM     15  N   UNL     1      -2.243   1.461  -0.566  0.00  0.00    -0.281 N 
ATOM     16  C   UNL     1      -2.337   0.234  -0.015  0.00  0.00    +0.204 C 
ATOM     17  O   UNL     1      -1.351  -0.298   0.452  0.00  0.00    -0.277 OA
ATOM     18  H   UNL     1      -3.117   1.911  -1.059  0.00  0.00    +0.155 HD
BRANCH  16  19
ATOM     19  C   UNL     1      -3.666  -0.475   0.022  0.00  0.00    +0.016 C 
ATOM     20  C   UNL     1      -4.432  -0.057   1.278  0.00  0.00    -0.004 C 
BRANCH  19  21
ATOM     21  N   UNL     1      -3.445  -1.927   0.044  0.00  0.00    +0.387 N 
ATOM     22  C   UNL     1      -4.707  -2.648   0.255  0.00  0.00    -0.078 C 
ATOM     23  C   UNL     1      -4.420  -4.143   0.417  0.00  0.00    -0.015 C 
ATOM     24  C   UNL     1      -3.719  -4.663  -0.840  0.00  0.00    -0.018 C 
ATOM     25  C   UNL     1      -2.432  -3.863  -1.065  0.00  0.00    -0.015 C 
ATOM     26  C   UNL     1      -2.776  -2.376  -1.184  0.00  0.00    -0.078 C 
ATOM     27  C   UNL     1      -3.375  -6.143  -0.660  0.00  0.00    +0.007 C 
ATOM     28  H   UNL     1      -2.781  -2.157   0.890  0.00  0.00    -0.081 HD
ENDBRANCH  19  21
ENDBRANCH  16  19
ENDBRANCH   3  15
TORSDOF 4
