REMARK  Name = ZINC63571824
REMARK  2 active torsions:
REMARK  status: ('A' for Active; 'I' for Inactive)
REMARK    1  A    between atoms: C_8  and  C_29
REMARK    2  A    between atoms: N_18  and  C_19
REMARK                            x       y       z     vdW  Elec       q    Type
REMARK                         _______ _______ _______ _____ _____    ______ ____
ROOT
ATOM      1  C   UNL     1      -0.400   1.114   0.109  0.00  0.00    +0.001 A 
ATOM      2  C   UNL     1       0.705   1.976   0.095  0.00  0.00    +0.002 A 
ATOM      3  C   UNL     1       1.977   1.528   0.048  0.00  0.00    +0.026 A 
ATOM      4  C   UNL     1       2.249   0.134   0.012  0.00  0.00    +0.043 A 
ATOM      5  N   UNL     1       3.380  -0.535  -0.015  0.00  0.00    -0.375 N 
ATOM      6  C   UNL     1       3.074  -1.960  -0.123  0.00  0.00    +0.131 C 
ATOM      7  C   UNL     1       3.690  -2.765   1.027  0.00  0.00    +0.134 C 
ATOM      8  N   UNL     1       3.018  -4.073   1.073  0.00  0.00    -0.276 N 
ATOM      9  C   UNL     1       1.569  -4.160   1.286  0.00  0.00    +0.114 C 
ATOM     10  C   UNL     1       0.843  -3.376   0.178  0.00  0.00    +0.052 C 
ATOM     11  C   UNL     1       1.563  -2.058   0.004  0.00  0.00    -0.035 C 
ATOM     12  C   UNL     1       1.097  -0.802   0.034  0.00  0.00    -0.001 A 
ATOM     13  C   UNL     1      -0.254  -0.229   0.081  0.00  0.00    +0.010 A 
ATOM     14  C   UNL     1       3.739  -5.201   0.917  0.00  0.00    +0.303 C 
ATOM     15  O   UNL     1       4.952  -5.142   0.852  0.00  0.00    -0.253 OA
ATOM     16  N   UNL     1       3.116  -6.393   0.835  0.00  0.00    -0.294 N 
ATOM     17  H   UNL     1       2.147  -6.433   0.812  0.00  0.00    +0.151 HD
ATOM     18  H   UNL     1       4.268  -0.148   0.030  0.00  0.00    +0.160 HD
ENDROOT
BRANCH  16  19
ATOM     19  C   UNL     1       3.902  -7.628   0.779  0.00  0.00    +0.037 C 
ATOM     20  C   UNL     1       4.758  -7.745   2.042  0.00  0.00    +0.029 C 
ATOM     21  C   UNL     1       5.579  -9.034   1.985  0.00  0.00    -0.008 C 
ATOM     22  C   UNL     1       4.636 -10.236   1.895  0.00  0.00    +0.007 C 
ATOM     23  C   UNL     1       3.780 -10.119   0.631  0.00  0.00    -0.008 C 
ATOM     24  C   UNL     1       2.959  -8.829   0.689  0.00  0.00    +0.029 C 
ATOM     25  C   UNL     1       4.689 -10.090  -0.599  0.00  0.00    +0.007 C 
ATOM     26  C   UNL     1       5.632  -8.889  -0.509  0.00  0.00    -0.008 C 
ATOM     27  C   UNL     1       6.488  -9.006   0.754  0.00  0.00    +0.007 C 
ATOM     28  C   UNL     1       4.811  -7.599  -0.451  0.00  0.00    +0.029 C 
ENDBRANCH  16  19
BRANCH   7  29
ATOM     29  C   UNL     1       5.165  -2.957   0.782  0.00  0.00    -0.025 A 
ATOM     30  C   UNL     1       5.634  -3.134  -0.507  0.00  0.00    +0.008 A 
ATOM     31  C   UNL     1       6.986  -3.310  -0.733  0.00  0.00    +0.038 A 
ATOM     32  C   UNL     1       7.871  -3.309   0.332  0.00  0.00    +0.123 A 
ATOM     33  C   UNL     1       7.400  -3.131   1.622  0.00  0.00    +0.038 A 
ATOM     34  C   UNL     1       6.048  -2.951   1.845  0.00  0.00    +0.008 A 
ATOM     35  F   UNL     1       9.193  -3.481   0.113  0.00  0.00    -0.205 F 
ENDBRANCH   7  29
TORSDOF 2
