REMARK  Name = ZINC02978119
REMARK  6 active torsions:
REMARK  status: ('A' for Active; 'I' for Inactive)
REMARK    1  A    between atoms: C_1  and  C_2
REMARK    2  A    between atoms: C_2  and  S_3
REMARK    3  A    between atoms: S_3  and  C_4
REMARK    4  A    between atoms: C_17  and  C_20
REMARK    5  A    between atoms: C_23  and  O_30
REMARK    6  A    between atoms: O_30  and  C_31
REMARK                            x       y       z     vdW  Elec       q    Type
REMARK                         _______ _______ _______ _____ _____    ______ ____
ROOT
ATOM      1  C   UNL     1       7.593  -1.951   1.792  0.00  0.00    +0.212 A 
ATOM      2  N   UNL     1       6.626  -1.089   1.493  0.00  0.00    -0.184 NA
ATOM      3  C   UNL     1       5.369  -1.499   1.498  0.00  0.00    +0.248 A 
ATOM      4  C   UNL     1       5.096  -2.849   1.816  0.00  0.00    +0.156 A 
ATOM      5  N   UNL     1       6.105  -3.656   2.107  0.00  0.00    -0.141 NA
ATOM      6  N   UNL     1       7.315  -3.214   2.093  0.00  0.00    -0.122 NA
ATOM      7  C   UNL     1       3.699  -3.331   1.817  0.00  0.00    +0.028 A 
ATOM      8  C   UNL     1       3.195  -4.095   2.862  0.00  0.00    +0.012 A 
ATOM      9  C   UNL     1       1.893  -4.553   2.810  0.00  0.00    +0.001 A 
ATOM     10  C   UNL     1       1.087  -4.255   1.725  0.00  0.00    +0.002 A 
ATOM     11  C   UNL     1       1.575  -3.489   0.681  0.00  0.00    +0.024 A 
ATOM     12  C   UNL     1       2.874  -3.018   0.721  0.00  0.00    +0.039 A 
ATOM     13  N   UNL     1       3.395  -2.229  -0.309  0.00  0.00    -0.305 N 
ATOM     14  C   UNL     1       3.689  -0.825  -0.038  0.00  0.00    +0.294 C 
ATOM     15  O   UNL     1       4.349  -0.656   1.212  0.00  0.00    -0.449 OA
ATOM     16  H   UNL     1       3.557  -2.607  -1.187  0.00  0.00    +0.150 HD
ENDROOT
BRANCH  14  17
ATOM     17  C   UNL     1       2.399  -0.047  -0.022  0.00  0.00    +0.019 A 
ATOM     18  C   UNL     1       1.761   0.193   1.157  0.00  0.00    +0.013 A 
ATOM     19  C   UNL     1       0.569   0.910   1.195  0.00  0.00    +0.047 A 
ATOM     20  C   UNL     1       0.003   1.393   0.049  0.00  0.00    +0.128 A 
ATOM     21  C   UNL     1       0.636   1.163  -1.189  0.00  0.00    +0.024 A 
ATOM     22  C   UNL     1       1.850   0.433  -1.222  0.00  0.00    -0.006 A 
ATOM     23  C   UNL     1       2.482   0.204  -2.457  0.00  0.00    +0.009 A 
ATOM     24  C   UNL     1       1.921   0.685  -3.600  0.00  0.00    +0.001 A 
ATOM     25  C   UNL     1       0.728   1.403  -3.566  0.00  0.00    +0.001 A 
ATOM     26  C   UNL     1       0.087   1.644  -2.389  0.00  0.00    +0.012 A 
BRANCH  20  27
ATOM     27  O   UNL     1      -1.164   2.086   0.102  0.00  0.00    -0.495 OA
ATOM     28  C   UNL     1      -1.750   2.273   1.392  0.00  0.00    +0.277 C 
ENDBRANCH  20  27
ENDBRANCH  14  17
BRANCH   1  29
ATOM     29  S   UNL     1       9.269  -1.410   1.788  0.00  0.00    -0.085 S 
BRANCH  29  31
ATOM     30  C   UNL     1      11.610  -2.719   2.310  0.00  0.00    +0.016 C 
ATOM     31  C   UNL     1      10.099  -2.951   2.249  0.00  0.00    +0.074 C 
ENDBRANCH  29  31
ENDBRANCH   1  29
TORSDOF 4
