REMARK  Name = ZINC00783869
REMARK  7 active torsions:
REMARK  status: ('A' for Active; 'I' for Inactive)
REMARK    1  A    between atoms: C_1  and  C_2
REMARK    2  A    between atoms: C_2  and  C_3
REMARK    3  A    between atoms: C_6  and  C_9
REMARK    4  A    between atoms: C_9  and  O_27
REMARK    5  A    between atoms: C_11  and  C_23
REMARK    6  A    between atoms: C_14  and  C_16
REMARK    7  A    between atoms: C_21  and  O_22
REMARK                            x       y       z     vdW  Elec       q    Type
REMARK                         _______ _______ _______ _____ _____    ______ ____
ROOT
ATOM      1  C   UNL     1       0.071  -4.296  -0.006  0.00  0.00    +0.187 C 
ATOM      2  C   UNL     1      -1.355  -4.882   0.020  0.00  0.00    +0.123 C 
ATOM      3  C   UNL     1      -1.447  -5.665  -1.271  0.00  0.00    +0.144 C 
ATOM      4  N   UNL     1      -0.353  -5.571  -1.908  0.00  0.00    -0.174 NA
ATOM      5  N   UNL     1       0.619  -4.798  -1.277  0.00  0.00    -0.153 N 
ATOM      6  C   UNL     1       1.856  -4.550  -1.752  0.00  0.00    +0.272 C 
ATOM      7  O   UNL     1       2.592  -3.783  -1.161  0.00  0.00    -0.268 OA
ENDROOT
BRANCH   1  11
ATOM      8  C   UNL     1      -0.053  -0.026   0.001  0.00  0.00    -0.048 A 
ATOM      9  C   UNL     1      -0.061  -0.716  -1.197  0.00  0.00    +0.004 A 
ATOM     10  C   UNL     1      -0.016  -2.098  -1.199  0.00  0.00    +0.008 A 
ATOM     11  C   UNL     1       0.027  -2.790  -0.004  0.00  0.00    +0.004 A 
ATOM     12  C   UNL     1       0.030  -2.100   1.194  0.00  0.00    +0.008 A 
ATOM     13  C   UNL     1      -0.010  -0.719   1.197  0.00  0.00    +0.004 A 
BRANCH   8  15
ATOM     14  C   UNL     1       1.330   2.032  -0.023  0.00  0.00    +0.009 C 
ATOM     15  C   UNL     1      -0.097   1.480   0.003  0.00  0.00    +0.032 C 
ENDBRANCH   8  15
ENDBRANCH   1  11
BRANCH   6  16
ATOM     16  C   UNL     1       2.317  -5.209  -2.989  0.00  0.00    +0.080 A 
ATOM     17  C   UNL     1       1.435  -5.989  -3.740  0.00  0.00    +0.017 A 
ATOM     18  C   UNL     1       1.870  -6.597  -4.897  0.00  0.00    +0.001 A 
ATOM     19  C   UNL     1       3.183  -6.448  -5.314  0.00  0.00    +0.004 A 
ATOM     20  C   UNL     1       4.067  -5.684  -4.578  0.00  0.00    +0.046 A 
ATOM     21  C   UNL     1       3.645  -5.060  -3.413  0.00  0.00    +0.129 A 
BRANCH  21  22
ATOM     22  O   UNL     1       4.512  -4.309  -2.689  0.00  0.00    -0.506 OA
ATOM     23  H   UNL     1       4.993  -4.806  -2.013  0.00  0.00    +0.292 HD
ENDBRANCH  21  22
ENDBRANCH   6  16
BRANCH   3  24
ATOM     24  C   UNL     1      -2.655  -6.440  -1.730  0.00  0.00    +0.432 C 
ATOM     25  F   UNL     1      -2.383  -7.037  -2.966  0.00  0.00    -0.165 F 
ATOM     26  F   UNL     1      -2.959  -7.431  -0.790  0.00  0.00    -0.165 F 
ATOM     27  F   UNL     1      -3.744  -5.572  -1.861  0.00  0.00    -0.165 F 
ENDBRANCH   3  24
BRANCH   1  28
ATOM     28  O   UNL     1       0.835  -4.779   1.101  0.00  0.00    -0.366 OA
ATOM     29  H   UNL     1       1.751  -4.468   1.113  0.00  0.00    +0.212 HD
ENDBRANCH   1  28
TORSDOF 6
