REMARK  Name = ZINC63139017
REMARK  10 active torsions:
REMARK  status: ('A' for Active; 'I' for Inactive)
REMARK    1  A    between atoms: C_1  and  C_2
REMARK    2  A    between atoms: C_2  and  N_3
REMARK    3  A    between atoms: N_3  and  C_4
REMARK    4  A    between atoms: N_3  and  C_6
REMARK    5  A    between atoms: C_4  and  C_5
REMARK    6  A    between atoms: C_6  and  C_7
REMARK    7  A    between atoms: C_7  and  C_8
REMARK    8  A    between atoms: C_8  and  N_9
REMARK    9  A    between atoms: C_29  and  C_31
REMARK   10  A    between atoms: C_35  and  N_37
REMARK                            x       y       z     vdW  Elec       q    Type
REMARK                         _______ _______ _______ _____ _____    ______ ____
ROOT
ATOM      1  N   UNL     1       2.177  -3.308   3.274  0.00  0.00    -0.291 N 
ATOM      2  C   UNL     1       3.625  -3.381   3.174  0.00  0.00    +0.203 C 
ATOM      3  C   UNL     1       4.230  -4.159   4.295  0.00  0.00    +0.234 C 
ATOM      4  O   UNL     1       5.436  -4.285   4.307  0.00  0.00    -0.274 OA
ATOM      5  N   UNL     1       3.536  -4.728   5.288  0.00  0.00    -0.279 N 
ATOM      6  C   UNL     1       2.084  -4.631   5.391  0.00  0.00    +0.167 C 
ATOM      7  C   UNL     1       1.478  -3.858   4.265  0.00  0.00    +0.237 C 
ATOM      8  O   UNL     1       0.273  -3.727   4.251  0.00  0.00    -0.274 OA
ATOM      9  C   UNL     1       1.695  -3.978   6.730  0.00  0.00    +0.065 C 
ATOM     10  C   UNL     1       2.524  -4.653   7.794  0.00  0.00    -0.034 C 
ATOM     11  C   UNL     1       2.187  -5.220   8.945  0.00  0.00    -0.001 A 
ATOM     12  C   UNL     1       0.901  -5.302   9.658  0.00  0.00    +0.010 A 
ATOM     13  C   UNL     1       0.908  -5.993  10.828  0.00  0.00    +0.001 A 
ATOM     14  C   UNL     1       2.051  -6.604  11.355  0.00  0.00    +0.002 A 
ATOM     15  C   UNL     1       3.276  -6.571  10.772  0.00  0.00    +0.026 A 
ATOM     16  C   UNL     1       3.397  -5.866   9.539  0.00  0.00    +0.043 A 
ATOM     17  N   UNL     1       4.438  -5.658   8.788  0.00  0.00    -0.375 N 
ATOM     18  C   UNL     1       4.035  -4.811   7.665  0.00  0.00    +0.131 C 
ATOM     19  C   UNL     1       4.290  -5.483   6.314  0.00  0.00    +0.133 C 
ATOM     20  H   UNL     1       5.330  -6.005   8.945  0.00  0.00    +0.160 HD
ENDROOT
BRANCH  19  21
ATOM     21  C   UNL     1       5.763  -5.447   5.995  0.00  0.00    -0.023 A 
ATOM     22  C   UNL     1       6.535  -4.381   6.415  0.00  0.00    +0.005 A 
ATOM     23  C   UNL     1       7.886  -4.348   6.122  0.00  0.00    +0.003 A 
ATOM     24  C   UNL     1       8.464  -5.383   5.410  0.00  0.00    +0.033 A 
ATOM     25  C   UNL     1       7.692  -6.450   4.992  0.00  0.00    +0.127 A 
ATOM     26  C   UNL     1       6.342  -6.484   5.288  0.00  0.00    +0.038 A 
BRANCH  25  27
ATOM     27  N   UNL     1       8.311  -7.557   4.229  0.00  0.00    +0.056 N 
ATOM     28  O   UNL     1       9.492  -7.528   3.973  0.00  0.00    -0.126 OA
ATOM     29  O   UNL     1       7.635  -8.490   3.862  0.00  0.00    -0.126 OA
ENDBRANCH  25  27
ENDBRANCH  19  21
BRANCH   1  30
ATOM     30  C   UNL     1       1.447  -2.583   2.231  0.00  0.00    +0.106 C 
BRANCH  30  31
ATOM     31  C   UNL     1       1.313  -1.112   2.630  0.00  0.00    +0.000 C 
BRANCH  31  32
ATOM     32  C   UNL     1       0.550  -0.355   1.541  0.00  0.00    -0.077 C 
BRANCH  32  33
ATOM     33  N   UNL     1       0.313   1.027   1.979  0.00  0.00    +0.379 N 
ATOM     34  H   UNL     1      -0.164   1.020   2.868  0.00  0.00    -0.082 HD
BRANCH  33  36
ATOM     35  C   UNL     1       1.362   3.121   2.694  0.00  0.00    -0.017 C 
ATOM     36  C   UNL     1       1.599   1.724   2.119  0.00  0.00    -0.082 C 
ENDBRANCH  33  36
BRANCH  33  37
ATOM     37  C   UNL     1      -0.514   1.721   0.984  0.00  0.00    -0.082 C 
ATOM     38  C   UNL     1      -1.909   1.092   0.952  0.00  0.00    -0.017 C 
ENDBRANCH  33  37
ENDBRANCH  32  33
ENDBRANCH  31  32
ENDBRANCH  30  31
ENDBRANCH   1  30
TORSDOF 8
