REMARK  Name = ZINC01831443
REMARK  8 active torsions:
REMARK  status: ('A' for Active; 'I' for Inactive)
REMARK    1  A    between atoms: C_1  and  C_2
REMARK    2  A    between atoms: C_2  and  C_3
REMARK    3  A    between atoms: C_3  and  N_4
REMARK    4  A    between atoms: C_14  and  C_16
REMARK    5  A    between atoms: C_19  and  O_24
REMARK    6  A    between atoms: C_21  and  O_22
REMARK    7  A    between atoms: O_22  and  C_23
REMARK    8  A    between atoms: O_24  and  C_25
REMARK                            x       y       z     vdW  Elec       q    Type
REMARK                         _______ _______ _______ _____ _____    ______ ____
ROOT
ATOM      1  N   UNL     1       0.762  -1.980   1.234  0.00  0.00    +0.380 N 
ATOM      2  C   UNL     1      -0.610  -2.487   1.356  0.00  0.00    -0.074 C 
ATOM      3  C   UNL     1      -0.603  -4.014   1.270  0.00  0.00    +0.048 C 
ATOM      4  C   UNL     1       0.252  -4.581   2.410  0.00  0.00    +0.177 C 
ATOM      5  C   UNL     1       1.663  -3.989   2.308  0.00  0.00    +0.048 C 
ATOM      6  C   UNL     1       1.573  -2.463   2.357  0.00  0.00    -0.074 C 
ATOM      7  N   UNL     1       0.301  -6.020   2.337  0.00  0.00    -0.177 NA
ATOM      8  C   UNL     1       0.968  -6.576   3.554  0.00  0.00    +0.138 C 
ATOM      9  C   UNL     1       1.165  -8.008   3.142  0.00  0.00    +0.023 C 
ATOM     10  C   UNL     1       1.093  -8.005   1.796  0.00  0.00    +0.050 C 
ATOM     11  N   UNL     1       0.883  -6.692   1.329  0.00  0.00    -0.273 N 
ATOM     12  C   UNL     1      -0.040  -6.335   4.639  0.00  0.00    +0.018 A 
ATOM     13  C   UNL     1      -0.352  -7.248   5.609  0.00  0.00    +0.024 A 
ATOM     14  C   UNL     1      -1.310  -6.937   6.563  0.00  0.00    +0.018 A 
ATOM     15  C   UNL     1      -1.943  -5.707   6.525  0.00  0.00    +0.019 A 
ATOM     16  C   UNL     1      -1.624  -4.783   5.549  0.00  0.00    +0.047 A 
ATOM     17  C   UNL     1      -0.662  -5.081   4.596  0.00  0.00    +0.128 A 
ATOM     18  O   UNL     1      -0.325  -4.181   3.661  0.00  0.00    -0.469 OA
ATOM     19 BR   UNL     1      -1.749  -8.189   7.910  0.00  0.00    -0.050 Br
ATOM     20  H   UNL     1       1.113  -6.343   0.454  0.00  0.00    +0.167 HD
ATOM     21  H   UNL     1       1.163  -2.305   0.366  0.00  0.00    -0.082 HD
ENDROOT
BRANCH  10  22
ATOM     22  C   UNL     1       1.217  -9.203   0.936  0.00  0.00    +0.039 A 
ATOM     23  C   UNL     1       1.132  -9.081  -0.451  0.00  0.00    +0.017 A 
ATOM     24  C   UNL     1       1.248 -10.198  -1.250  0.00  0.00    +0.046 A 
ATOM     25  C   UNL     1       1.450 -11.448  -0.677  0.00  0.00    +0.124 A 
ATOM     26  C   UNL     1       1.536 -11.579   0.701  0.00  0.00    +0.091 A 
ATOM     27  C   UNL     1       1.426 -10.462   1.511  0.00  0.00    +0.132 A 
BRANCH  27  28
ATOM     28  O   UNL     1       1.515 -10.588   2.860  0.00  0.00    -0.494 OA
ATOM     29  C   UNL     1       1.729 -11.903   3.376  0.00  0.00    +0.277 C 
ENDBRANCH  27  28
BRANCH  25  30
ATOM     30  O   UNL     1       1.563 -12.545  -1.470  0.00  0.00    -0.495 OA
ATOM     31  C   UNL     1       1.465 -12.339  -2.881  0.00  0.00    +0.277 C 
ENDBRANCH  25  30
ENDBRANCH  10  22
BRANCH   1  32
ATOM     32  C   UNL     1       0.742  -0.511   1.242  0.00  0.00    -0.079 C 
BRANCH  32  34
ATOM     33  C   UNL     1      -0.019   1.526   0.010  0.00  0.00    +0.002 C 
ATOM     34  C   UNL     1       0.002  -0.004   0.002  0.00  0.00    -0.022 C 
ENDBRANCH  32  34
ENDBRANCH   1  32
TORSDOF 5
