REMARK  Name = ZINC01808305
REMARK  5 active torsions:
REMARK  status: ('A' for Active; 'I' for Inactive)
REMARK    1  A    between atoms: C_1  and  O_2
REMARK    2  A    between atoms: O_2  and  C_3
REMARK    3  A    between atoms: N_13  and  C_16
REMARK    4  A    between atoms: C_16  and  C_17
REMARK    5  A    between atoms: C_27  and  C_29
REMARK                            x       y       z     vdW  Elec       q    Type
REMARK                         _______ _______ _______ _____ _____    ______ ____
ROOT
ATOM      1  C   UNL     1       0.626  -0.619   1.042  0.00  0.00    +0.162 A 
ATOM      2  C   UNL     1       1.202   0.138   2.050  0.00  0.00    +0.049 A 
ATOM      3  C   UNL     1       1.837  -0.476   3.114  0.00  0.00    +0.004 A 
ATOM      4  C   UNL     1       1.893  -1.859   3.179  0.00  0.00    +0.009 A 
ATOM      5  C   UNL     1       1.321  -2.610   2.186  0.00  0.00    +0.021 A 
ATOM      6  C   UNL     1       0.682  -2.007   1.097  0.00  0.00    +0.170 A 
ATOM      7  O   UNL     1       0.157  -2.766   0.104  0.00  0.00    -0.466 OA
ATOM      8  C   UNL     1      -0.266  -4.116   0.346  0.00  0.00    +0.177 C 
ATOM      9  C   UNL     1      -1.739  -4.249  -0.058  0.00  0.00    +0.048 C 
ATOM     10  C   UNL     1      -1.883  -3.929  -1.547  0.00  0.00    -0.073 C 
ATOM     11  N   UNL     1      -1.075  -4.868  -2.335  0.00  0.00    +0.383 N 
ATOM     12  C   UNL     1       0.345  -4.705  -2.002  0.00  0.00    -0.073 C 
ATOM     13  C   UNL     1       0.571  -5.056  -0.530  0.00  0.00    +0.048 C 
ATOM     14  N   UNL     1      -0.093  -4.435   1.741  0.00  0.00    -0.177 NA
ATOM     15  C   UNL     1       1.308  -4.110   2.173  0.00  0.00    +0.138 C 
ATOM     16  C   UNL     1       1.342  -4.770   3.524  0.00  0.00    +0.023 C 
ATOM     17  C   UNL     1       0.352  -5.684   3.499  0.00  0.00    +0.047 C 
ATOM     18  N   UNL     1      -0.304  -5.659   2.255  0.00  0.00    -0.273 N 
ATOM     19  H   UNL     1      -0.800  -6.385   1.845  0.00  0.00    +0.167 HD
ATOM     20  H   UNL     1      -1.362  -5.812  -2.127  0.00  0.00    -0.081 HD
ENDROOT
BRANCH  17  21
ATOM     21  C   UNL     1      -0.009  -6.577   4.624  0.00  0.00    -0.003 A 
ATOM     22  C   UNL     1       0.693  -6.506   5.827  0.00  0.00    +0.011 A 
ATOM     23  C   UNL     1       0.352  -7.340   6.872  0.00  0.00    +0.016 A 
ATOM     24  C   UNL     1      -0.684  -8.247   6.727  0.00  0.00    +0.018 A 
ATOM     25  C   UNL     1      -1.384  -8.322   5.535  0.00  0.00    +0.016 A 
ATOM     26  C   UNL     1      -1.056  -7.488   4.486  0.00  0.00    +0.011 A 
ATOM     27 BR   UNL     1      -1.145  -9.388   8.164  0.00  0.00    -0.050 Br
ENDBRANCH  17  21
BRANCH   1  29
ATOM     28  C   UNL     1      -0.017   1.425   0.010  0.00  0.00    +0.277 C 
ATOM     29  O   UNL     1       0.002  -0.004   0.002  0.00  0.00    -0.491 OA
ENDBRANCH   1  29
BRANCH  11  30
ATOM     30  C   UNL     1      -1.275  -4.602  -3.766  0.00  0.00    -0.043 C 
BRANCH  30  31
ATOM     31  C   UNL     1      -0.544  -5.641  -4.576  0.00  0.00    -0.064 A 
ATOM     32  C   UNL     1       0.769  -5.429  -4.951  0.00  0.00    +0.002 A 
ATOM     33  C   UNL     1       1.439  -6.382  -5.694  0.00  0.00    +0.000 A 
ATOM     34  C   UNL     1       0.796  -7.549  -6.063  0.00  0.00    +0.000 A 
ATOM     35  C   UNL     1      -0.517  -7.762  -5.688  0.00  0.00    +0.000 A 
ATOM     36  C   UNL     1      -1.186  -6.810  -4.941  0.00  0.00    +0.002 A 
ENDBRANCH  30  31
ENDBRANCH  11  30
TORSDOF 4
