REMARK  Name = ZINC07177478
REMARK  8 active torsions:
REMARK  status: ('A' for Active; 'I' for Inactive)
REMARK    1  A    between atoms: C_1  and  C_2
REMARK    2  A    between atoms: C_5  and  N_9
REMARK    3  A    between atoms: C_10  and  C_12
REMARK    4  A    between atoms: C_12  and  C_14
REMARK    5  A    between atoms: C_12  and  S_15
REMARK    6  A    between atoms: S_15  and  C_16
REMARK    7  A    between atoms: C_18  and  C_23
REMARK    8  A    between atoms: C_20  and  N_22
REMARK                            x       y       z     vdW  Elec       q    Type
REMARK                         _______ _______ _______ _____ _____    ______ ____
ROOT
ATOM      1  C   UNL     1      -0.136  -6.343  -1.190  0.00  0.00    +0.137 C 
ATOM      2  C   UNL     1      -1.594  -6.763  -0.994  0.00  0.00    +0.029 C 
ENDROOT
BRANCH   1   4
ATOM      3  N   UNL     1       0.057  -4.171  -0.023  0.00  0.00    -0.284 N 
ATOM      4  C   UNL     1      -0.042  -4.839  -1.189  0.00  0.00    +0.230 C 
ATOM      5  O   UNL     1      -0.055  -4.230  -2.238  0.00  0.00    -0.274 OA
ATOM      6  H   UNL     1       0.149  -4.660   0.810  0.00  0.00    +0.155 HD
BRANCH   3  11
ATOM      7  C   UNL     1      -0.063   1.502   0.016  0.00  0.00    +0.044 C 
ATOM      8  C   UNL     1      -0.031  -0.005   0.006  0.00  0.00    -0.049 A 
ATOM      9  C   UNL     1      -0.622  -0.701  -1.033  0.00  0.00    +0.005 A 
ATOM     10  C   UNL     1      -0.594  -2.081  -1.045  0.00  0.00    +0.024 A 
ATOM     11  C   UNL     1       0.028  -2.771  -0.013  0.00  0.00    +0.047 A 
ATOM     12  C   UNL     1       0.621  -2.070   1.029  0.00  0.00    +0.039 A 
ATOM     13  C   UNL     1       0.595  -0.688   1.032  0.00  0.00    +0.020 A 
ATOM     14 BR   UNL     1       1.470  -3.004   2.437  0.00  0.00    -0.048 Br
ENDBRANCH   3  11
ENDBRANCH   1   4
BRANCH   1  15
ATOM     15  S   UNL     1       0.471  -6.986  -2.774  0.00  0.00    -0.074 S 
BRANCH  15  16
ATOM     16  C   UNL     1       0.437  -8.735  -2.565  0.00  0.00    +0.191 A 
ATOM     17  N   UNL     1       0.835  -9.513  -3.562  0.00  0.00    -0.227 NA
ATOM     18  C   UNL     1       0.824 -10.832  -3.443  0.00  0.00    +0.044 A 
ATOM     19  C   UNL     1       0.391 -11.400  -2.260  0.00  0.00    +0.066 A 
ATOM     20  C   UNL     1      -0.021 -10.556  -1.227  0.00  0.00    +0.121 A 
ATOM     21  N   UNL     1       0.020  -9.240  -1.413  0.00  0.00    -0.207 NA
ATOM     22  C   UNL     1       1.278 -11.704  -4.585  0.00  0.00    +0.066 C 
BRANCH  20  23
ATOM     23  N   UNL     1      -0.463 -11.081  -0.024  0.00  0.00    -0.343 N 
ATOM     24  H   UNL     1      -0.488 -12.042   0.106  0.00  0.00    +0.144 HD
ATOM     25  H   UNL     1      -0.748 -10.488   0.689  0.00  0.00    +0.144 HD
ENDBRANCH  20  23
ENDBRANCH  15  16
ENDBRANCH   1  15
TORSDOF 5
