REMARK  Name = ZINC41548577
REMARK  3 active torsions:
REMARK  status: ('A' for Active; 'I' for Inactive)
REMARK    1  A    between atoms: C_1  and  C_2
REMARK    2  A    between atoms: C_2  and  C_14
REMARK    3  A    between atoms: C_20  and  C_23
REMARK                            x       y       z     vdW  Elec       q    Type
REMARK                         _______ _______ _______ _____ _____    ______ ____
ROOT
ATOM      1  C   UNL     1       0.709  -0.489  -1.237  0.00  0.00    +0.272 C 
ATOM      2  O   UNL     1       0.070  -0.781  -2.225  0.00  0.00    -0.270 OA
ATOM      3  N   UNL     1       2.053  -0.599  -1.247  0.00  0.00    -0.251 N 
ATOM      4  C   UNL     1       2.704  -1.046  -2.389  0.00  0.00    +0.222 A 
ATOM      5  N   UNL     1       1.988  -1.355  -3.459  0.00  0.00    -0.222 NA
ATOM      6  C   UNL     1       2.571  -1.783  -4.565  0.00  0.00    +0.124 A 
ATOM      7  C   UNL     1       3.962  -1.909  -4.593  0.00  0.00    +0.018 A 
ATOM      8  C   UNL     1       4.681  -1.574  -3.443  0.00  0.00    +0.124 A 
ATOM      9  N   UNL     1       4.025  -1.148  -2.378  0.00  0.00    -0.222 NA
ATOM     10  H   UNL     1       2.564  -0.366  -0.456  0.00  0.00    +0.158 HD
ENDROOT
BRANCH   1  12
ATOM     11  C   UNL     1      -0.019   1.526   0.010  0.00  0.00    +0.076 C 
ATOM     12  C   UNL     1       0.002  -0.004   0.002  0.00  0.00    +0.258 C 
ATOM     13  C   UNL     1      -1.413  -0.525   0.008  0.00  0.00    +0.270 C 
ATOM     14  O   UNL     1      -2.310   0.144  -0.460  0.00  0.00    -0.271 OA
ATOM     15  N   UNL     1      -1.677  -1.739   0.535  0.00  0.00    -0.279 N 
ATOM     16  C   UNL     1      -0.651  -2.442   1.182  0.00  0.00    +0.077 A 
ATOM     17  C   UNL     1      -0.820  -3.772   1.531  0.00  0.00    +0.047 A 
ATOM     18  C   UNL     1       0.207  -4.455   2.158  0.00  0.00    +0.043 A 
ATOM     19  C   UNL     1       1.401  -3.813   2.436  0.00  0.00    +0.024 A 
ATOM     20  C   UNL     1       1.573  -2.484   2.094  0.00  0.00    +0.049 A 
ATOM     21  C   UNL     1       0.547  -1.793   1.472  0.00  0.00    +0.144 A 
ATOM     22  O   UNL     1       0.694  -0.477   1.160  0.00  0.00    -0.465 OA
ATOM     23 CL   UNL     1      -0.003  -6.121   2.597  0.00  0.00    -0.083 Cl
ATOM     24  H   UNL     1      -2.566  -2.121   0.467  0.00  0.00    +0.155 HD
ENDBRANCH   1  12
BRANCH   7  25
ATOM     25  C   UNL     1       4.658  -2.388  -5.813  0.00  0.00    -0.015 A 
ATOM     26  C   UNL     1       3.927  -2.713  -6.953  0.00  0.00    +0.008 A 
ATOM     27  C   UNL     1       4.580  -3.157  -8.085  0.00  0.00    +0.001 A 
ATOM     28  C   UNL     1       5.957  -3.280  -8.089  0.00  0.00    +0.000 A 
ATOM     29  C   UNL     1       6.689  -2.959  -6.959  0.00  0.00    +0.001 A 
ATOM     30  C   UNL     1       6.047  -2.508  -5.824  0.00  0.00    +0.008 A 
ENDBRANCH   7  25
TORSDOF 2
