REMARK  Name = ZINC36316176
REMARK  17 active torsions:
REMARK  status: ('A' for Active; 'I' for Inactive)
REMARK    1  A    between atoms: C_1  and  C_2
REMARK    2  A    between atoms: C_2  and  C_3
REMARK    3  A    between atoms: C_3  and  C_4
REMARK    4  A    between atoms: C_4  and  C_5
REMARK    5  A    between atoms: C_5  and  C_7
REMARK    6  A    between atoms: C_5  and  O_35
REMARK    7  A    between atoms: C_7  and  N_8
REMARK    8  A    between atoms: N_8  and  C_9
REMARK    9  A    between atoms: N_8  and  C_31
REMARK   10  A    between atoms: C_9  and  C_10
REMARK   11  A    between atoms: C_11  and  C_25
REMARK   12  A    between atoms: N_13  and  C_24
REMARK   13  A    between atoms: C_14  and  O_15
REMARK   14  A    between atoms: O_15  and  C_16
REMARK   15  A    between atoms: C_31  and  C_32
REMARK   16  A    between atoms: C_32  and  C_33
REMARK   17  A    between atoms: C_32  and  C_34
REMARK                            x       y       z     vdW  Elec       q    Type
REMARK                         _______ _______ _______ _____ _____    ______ ____
ROOT
ATOM      1  C   UNL     1      -6.010  -6.285  -0.231  0.00  0.00    +0.025 A 
ATOM      2  C   UNL     1      -6.735  -6.457   0.963  0.00  0.00    +0.098 A 
ATOM      3  N   UNL     1      -8.008  -6.580   0.654  0.00  0.00    -0.168 NA
ATOM      4  N   UNL     1      -8.133  -6.492  -0.739  0.00  0.00    -0.235 N 
ATOM      5  C   UNL     1      -6.894  -6.305  -1.261  0.00  0.00    +0.221 A 
ATOM      6  C   UNL     1      -9.383  -6.580  -1.498  0.00  0.00    +0.176 C 
ENDROOT
BRANCH   2   7
ATOM      7  C   UNL     1      -6.164  -6.492   2.332  0.00  0.00    +0.002 A 
ATOM      8  C   UNL     1      -4.995  -7.208   2.583  0.00  0.00    +0.010 A 
ATOM      9  C   UNL     1      -4.468  -7.238   3.859  0.00  0.00    +0.001 A 
ATOM     10  C   UNL     1      -5.098  -6.559   4.886  0.00  0.00    +0.000 A 
ATOM     11  C   UNL     1      -6.258  -5.847   4.642  0.00  0.00    +0.001 A 
ATOM     12  C   UNL     1      -6.790  -5.805   3.369  0.00  0.00    +0.010 A 
ENDBRANCH   2   7
BRANCH   1  13
ATOM     13  C   UNL     1      -4.518  -6.104  -0.346  0.00  0.00    -0.035 C 
BRANCH  13  14
ATOM     14  N   UNL     1      -4.204  -4.672  -0.440  0.00  0.00    +0.384 N 
ATOM     15  H   UNL     1      -4.732  -4.261  -1.195  0.00  0.00    -0.081 HD
BRANCH  14  16
ATOM     16  C   UNL     1      -4.558  -4.009   0.822  0.00  0.00    -0.047 C 
BRANCH  16  17
ATOM     17  C   UNL     1      -4.348  -2.500   0.682  0.00  0.00    +0.098 C 
BRANCH  17  18
ATOM     18  O   UNL     1      -5.261  -1.980  -0.287  0.00  0.00    -0.394 OA
ATOM     19  H   UNL     1      -6.191  -2.120  -0.065  0.00  0.00    +0.210 HD
ENDBRANCH  17  18
BRANCH  17  20
ATOM     20  C   UNL     1      -4.596  -1.823   2.031  0.00  0.00    +0.029 C 
BRANCH  20  21
ATOM     21  C   UNL     1      -4.266  -0.333   1.922  0.00  0.00    +0.002 C 
BRANCH  21  23
ATOM     22  C   UNL     1      -4.184   1.834   3.163  0.00  0.00    +0.004 C 
ATOM     23  C   UNL     1      -4.514   0.344   3.272  0.00  0.00    -0.003 C 
ENDBRANCH  21  23
ENDBRANCH  20  21
ENDBRANCH  17  20
ENDBRANCH  16  17
ENDBRANCH  14  16
BRANCH  14  24
ATOM     24  C   UNL     1      -2.768  -4.502  -0.697  0.00  0.00    -0.075 C 
BRANCH  24  25
ATOM     25  C   UNL     1      -2.425  -5.070  -2.076  0.00  0.00    -0.034 C 
ATOM     26  C   UNL     1      -3.179  -4.285  -3.152  0.00  0.00    +0.005 C 
ATOM     27  C   UNL     1      -0.919  -4.949  -2.318  0.00  0.00    +0.005 C 
ENDBRANCH  24  25
ENDBRANCH  14  24
ENDBRANCH  13  14
ENDBRANCH   1  13
BRANCH   5  28
ATOM     28  O   UNL     1      -6.593  -6.166  -2.577  0.00  0.00    -0.435 OA
BRANCH  28  29
ATOM     29  C   UNL     1      -6.371  -7.294  -3.304  0.00  0.00    +0.166 A 
ATOM     30  C   UNL     1      -6.556  -8.540  -2.725  0.00  0.00    +0.052 A 
ATOM     31  C   UNL     1      -6.329  -9.685  -3.464  0.00  0.00    +0.042 A 
ATOM     32  C   UNL     1      -5.917  -9.590  -4.783  0.00  0.00    +0.126 A 
ATOM     33  C   UNL     1      -5.731  -8.347  -5.364  0.00  0.00    +0.080 A 
ATOM     34  C   UNL     1      -5.963  -7.198  -4.628  0.00  0.00    +0.168 A 
ATOM     35  F   UNL     1      -5.787  -5.985  -5.196  0.00  0.00    -0.202 F 
ATOM     36  F   UNL     1      -5.696 -10.711  -5.503  0.00  0.00    -0.205 F 
ENDBRANCH  28  29
ENDBRANCH   5  28
TORSDOF 13
