REMARK  Name = ZINC02316266
REMARK  8 active torsions:
REMARK  status: ('A' for Active; 'I' for Inactive)
REMARK    1  A    between atoms: C_1  and  C_2
REMARK    2  A    between atoms: C_2  and  C_3
REMARK    3  A    between atoms: C_2  and  C_4
REMARK    4  A    between atoms: C_2  and  C_5
REMARK    5  A    between atoms: N_7  and  N_8
REMARK    6  A    between atoms: C_9  and  C_11
REMARK    7  A    between atoms: C_11  and  N_71
REMARK    8  A    between atoms: C_18  and  C_28
REMARK                            x       y       z     vdW  Elec       q    Type
REMARK                         _______ _______ _______ _____ _____    ______ ____
ROOT
ATOM      1  C   UNL     1      -4.015   3.838   6.556  0.00  0.00    -0.055 C 
ATOM      2  C   UNL     1      -2.663   3.397   5.981  0.00  0.00    +0.103 C 
ATOM      3  N   UNL     1      -2.763   3.419   4.513  0.00  0.00    -0.347 N 
ATOM      4  C   UNL     1      -1.955   2.860   3.569  0.00  0.00    +0.049 A 
ATOM      5  C   UNL     1      -0.810   2.073   3.671  0.00  0.00    +0.027 A 
ATOM      6  C   UNL     1      -0.219   1.659   2.491  0.00  0.00    +0.006 A 
ATOM      7  C   UNL     1      -0.724   2.012   1.250  0.00  0.00    -0.044 A 
ATOM      8  C   UNL     1      -1.849   2.785   1.115  0.00  0.00    +0.014 A 
ATOM      9  C   UNL     1      -2.476   3.215   2.289  0.00  0.00    +0.003 A 
ATOM     10  C   UNL     1      -3.643   4.016   2.542  0.00  0.00    -0.020 A 
ATOM     11  C   UNL     1      -3.780   4.079   3.882  0.00  0.00    +0.009 A 
ATOM     12  C   UNL     1      -4.916   4.833   4.536  0.00  0.00    -0.020 C 
ATOM     13  C   UNL     1      -5.103   6.146   3.792  0.00  0.00    -0.009 C 
ATOM     14  C   UNL     1      -4.950   6.092   2.292  0.00  0.00    +0.003 C 
ATOM     15  C   UNL     1      -4.637   4.737   1.675  0.00  0.00    +0.037 C 
ATOM     16  N   UNL     1      -4.461   5.098   5.925  0.00  0.00    +0.392 N 
ATOM     17  H   UNL     1      -3.674   5.756   5.900  0.00  0.00    -0.080 HD
ENDROOT
BRANCH   7  18
ATOM     18  C   UNL     1      -0.019   1.526   0.010  0.00  0.00    +0.019 C 
ATOM     19  C   UNL     1       1.417   2.055  -0.000  0.00  0.00    +0.008 C 
ATOM     20  C   UNL     1       2.133   1.562  -1.259  0.00  0.00    +0.001 C 
ATOM     21  C   UNL     1       2.154   0.032  -1.268  0.00  0.00    +0.000 C 
ATOM     22  C   UNL     1       0.718  -0.497  -1.257  0.00  0.00    +0.001 C 
ATOM     23  C   UNL     1       0.002  -0.004   0.002  0.00  0.00    +0.008 C 
ENDBRANCH   7  18
BRANCH  16  24
ATOM     24  C   UNL     1      -5.561   5.695   6.712  0.00  0.00    +0.021 C 
BRANCH  24  26
ATOM     25  N   UNL     1      -5.831   6.753   8.931  0.00  0.00    -0.236 N 
ATOM     26  C   UNL     1      -5.016   6.156   8.039  0.00  0.00    +0.213 C 
ATOM     27  O   UNL     1      -3.845   5.988   8.305  0.00  0.00    -0.276 OA
ATOM     28  H   UNL     1      -6.768   6.887   8.719  0.00  0.00    +0.173 HD
BRANCH  25  31
ATOM     29  C   UNL     1      -6.139   7.779  11.057  0.00  0.00    +0.234 C 
ATOM     30  O   UNL     1      -7.310   7.947  10.792  0.00  0.00    -0.274 OA
ATOM     31  N   UNL     1      -5.324   7.182  10.165  0.00  0.00    -0.234 N 
ATOM     32  H   UNL     1      -4.387   7.048  10.378  0.00  0.00    +0.173 HD
BRANCH  29  34
ATOM     33  C   UNL     1      -6.717   8.880  13.203  0.00  0.00    +0.020 C 
ATOM     34  C   UNL     1      -5.594   8.240  12.385  0.00  0.00    +0.040 C 
ATOM     35  C   UNL     1      -5.027   7.041  13.147  0.00  0.00    +0.020 C 
ATOM     36  C   UNL     1      -4.484   9.267  12.152  0.00  0.00    +0.020 C 
ENDBRANCH  29  34
ENDBRANCH  25  31
ENDBRANCH  24  26
ENDBRANCH  16  24
TORSDOF 5
