REMARK  Name = ZINC00622905
REMARK  11 active torsions:
REMARK  status: ('A' for Active; 'I' for Inactive)
REMARK    1  A    between atoms: C_1  and  C_2
REMARK    2  A    between atoms: C_2  and  C_3
REMARK    3  A    between atoms: C_3  and  C_4
REMARK    4  A    between atoms: C_11  and  N_34
REMARK    5  A    between atoms: C_12  and  C_32
REMARK    6  A    between atoms: C_13  and  C_15
REMARK    7  A    between atoms: C_18  and  O_30
REMARK    8  A    between atoms: C_19  and  C_21
REMARK    9  A    between atoms: C_21  and  O_22
REMARK   10  A    between atoms: O_22  and  C_23
REMARK   11  A    between atoms: O_30  and  C_31
REMARK                            x       y       z     vdW  Elec       q    Type
REMARK                         _______ _______ _______ _____ _____    ______ ____
ROOT
ATOM      1  C   UNL     1       1.204   7.681   2.921  0.00  0.00    +0.071 A 
ATOM      2  C   UNL     1       0.254   7.737   1.910  0.00  0.00    +0.049 A 
ATOM      3  C   UNL     1       0.768   8.483   0.887  0.00  0.00    +0.222 A 
ATOM      4  N   UNL     1       2.000   8.876   1.250  0.00  0.00    -0.246 N 
ATOM      5  H   UNL     1       2.624   9.436   0.705  0.00  0.00    +0.192 HD
ATOM      6  N   UNL     1       2.255   8.363   2.531  0.00  0.00    -0.176 NA
ATOM      7  O   UNL     1       0.081   8.732  -0.256  0.00  0.00    -0.423 OA
ATOM      8  C   UNL     1      -1.239   8.456  -0.263  0.00  0.00    +0.200 C 
ATOM      9  C   UNL     1      -1.859   7.719   0.685  0.00  0.00    +0.098 C 
ATOM     10  C   UNL     1      -1.120   7.122   1.857  0.00  0.00    +0.101 C 
ENDROOT
BRANCH  10  11
ATOM     11  C   UNL     1      -1.003   5.630   1.677  0.00  0.00    -0.034 A 
ATOM     12  C   UNL     1      -0.368   5.117   0.561  0.00  0.00    +0.008 A 
ATOM     13  C   UNL     1      -0.253   3.751   0.396  0.00  0.00    +0.046 A 
ATOM     14  C   UNL     1      -0.787   2.892   1.346  0.00  0.00    +0.126 A 
ATOM     15  C   UNL     1      -1.425   3.409   2.465  0.00  0.00    +0.032 A 
ATOM     16  C   UNL     1      -1.531   4.776   2.627  0.00  0.00    +0.015 A 
BRANCH  14  17
ATOM     17  O   UNL     1      -0.682   1.547   1.184  0.00  0.00    -0.495 OA
ATOM     18  C   UNL     1      -0.013   1.086   0.008  0.00  0.00    +0.277 C 
ENDBRANCH  14  17
BRANCH  15  19
ATOM     19  C   UNL     1      -2.001   2.479   3.501  0.00  0.00    +0.268 C 
BRANCH  19  20
ATOM     20  O   UNL     1      -2.600   3.245   4.548  0.00  0.00    -0.486 OA
BRANCH  20  21
ATOM     21  C   UNL     1      -3.170   2.554   5.570  0.00  0.00    +0.139 A 
ATOM     22  C   UNL     1      -3.159   1.167   5.562  0.00  0.00    +0.047 A 
ATOM     23  C   UNL     1      -3.734   0.466   6.605  0.00  0.00    +0.004 A 
ATOM     24  C   UNL     1      -4.332   1.146   7.650  0.00  0.00    +0.002 A 
ATOM     25  C   UNL     1      -4.350   2.528   7.658  0.00  0.00    +0.023 A 
ATOM     26  C   UNL     1      -3.771   3.234   6.620  0.00  0.00    +0.083 A 
ATOM     27 CL   UNL     1      -3.793   4.970   6.631  0.00  0.00    -0.080 Cl
ENDBRANCH  20  21
ENDBRANCH  19  20
ENDBRANCH  15  19
ENDBRANCH  10  11
BRANCH   8  28
ATOM     28  N   UNL     1      -1.998   8.954  -1.293  0.00  0.00    -0.328 N 
ATOM     29  H   UNL     1      -1.581   9.486  -1.989  0.00  0.00    +0.145 HD
ATOM     30  H   UNL     1      -2.950   8.773  -1.325  0.00  0.00    +0.145 HD
ENDBRANCH   8  28
BRANCH   9  31
ATOM     31  C   UNL     1      -3.269   7.497   0.573  0.00  0.00    +0.101 C 
ATOM     32  N   UNL     1      -4.388   7.320   0.484  0.00  0.00    -0.191 NA
ENDBRANCH   9  31
BRANCH   1  33
ATOM     33  C   UNL     1       1.054   6.962   4.237  0.00  0.00    +0.057 C 
BRANCH  33  35
ATOM     34  C   UNL     1       1.407   4.795   5.429  0.00  0.00    +0.004 C 
ATOM     35  C   UNL     1       1.559   5.524   4.093  0.00  0.00    +0.003 C 
ENDBRANCH  33  35
ENDBRANCH   1  33
TORSDOF 9
