REMARK  Name = ZINC02092692
REMARK  6 active torsions:
REMARK  status: ('A' for Active; 'I' for Inactive)
REMARK    1  A    between atoms: C_11  and  C_31
REMARK    2  A    between atoms: N_19  and  C_23
REMARK    3  A    between atoms: C_23  and  C_24
REMARK    4  A    between atoms: C_24  and  C_25
REMARK    5  A    between atoms: C_25  and  N_66
REMARK    6  A    between atoms: C_35  and  N_37
REMARK                            x       y       z     vdW  Elec       q    Type
REMARK                         _______ _______ _______ _____ _____    ______ ____
ROOT
ATOM      1  C   UNL     1       3.378  -5.767  -5.238  0.00  0.00    +0.001 A 
ATOM      2  C   UNL     1       3.629  -4.497  -5.731  0.00  0.00    +0.002 A 
ATOM      3  C   UNL     1       3.574  -3.369  -4.930  0.00  0.00    +0.026 A 
ATOM      4  C   UNL     1       3.253  -3.563  -3.588  0.00  0.00    +0.047 A 
ATOM      5  C   UNL     1       2.998  -4.866  -3.088  0.00  0.00    +0.003 A 
ATOM      6  C   UNL     1       3.060  -5.988  -3.921  0.00  0.00    +0.010 A 
ATOM      7  C   UNL     1       2.704  -4.704  -1.679  0.00  0.00    -0.015 A 
ATOM      8  C   UNL     1       2.787  -3.382  -1.409  0.00  0.00    +0.046 A 
ATOM      9  N   UNL     1       3.115  -2.694  -2.545  0.00  0.00    -0.356 N 
ATOM     10  H   UNL     1       3.232  -1.733  -2.600  0.00  0.00    +0.166 HD
ATOM     11  C   UNL     1       2.542  -2.797  -0.036  0.00  0.00    +0.154 C 
ATOM     12  N   UNL     1       2.502  -3.920   0.925  0.00  0.00    -0.276 N 
ATOM     13  C   UNL     1       1.725  -5.103   0.559  0.00  0.00    +0.167 C 
ATOM     14  C   UNL     1       2.368  -5.769  -0.666  0.00  0.00    +0.069 C 
ATOM     15  C   UNL     1       1.643  -6.089   1.680  0.00  0.00    +0.237 C 
ATOM     16  O   UNL     1       0.945  -7.069   1.524  0.00  0.00    -0.274 OA
ATOM     17  N   UNL     1       2.287  -5.960   2.838  0.00  0.00    -0.291 N 
ATOM     18  C   UNL     1       3.150  -4.836   3.162  0.00  0.00    +0.203 C 
ATOM     19  C   UNL     1       3.171  -3.812   2.075  0.00  0.00    +0.234 C 
ATOM     20  O   UNL     1       3.840  -2.816   2.249  0.00  0.00    -0.274 OA
ENDROOT
BRANCH  11  21
ATOM     21  C   UNL     1       1.227  -2.061  -0.020  0.00  0.00    -0.019 A 
ATOM     22  C   UNL     1       0.076  -2.694  -0.450  0.00  0.00    +0.006 A 
ATOM     23  C   UNL     1      -1.130  -2.020  -0.435  0.00  0.00    +0.003 A 
ATOM     24  C   UNL     1      -1.186  -0.713   0.015  0.00  0.00    +0.033 A 
ATOM     25  C   UNL     1      -0.034  -0.079   0.439  0.00  0.00    +0.127 A 
ATOM     26  C   UNL     1       1.172  -0.753   0.424  0.00  0.00    +0.038 A 
BRANCH  25  27
ATOM     27  N   UNL     1      -0.093   1.322   0.915  0.00  0.00    +0.056 N 
ATOM     28  O   UNL     1       0.921   1.880   1.293  0.00  0.00    -0.126 OA
ATOM     29  O   UNL     1      -1.155   1.918   0.924  0.00  0.00    -0.126 OA
ENDBRANCH  25  27
ENDBRANCH  11  21
BRANCH  17  30
ATOM     30  C   UNL     1       2.115  -7.011   3.844  0.00  0.00    +0.106 C 
BRANCH  30  31
ATOM     31  C   UNL     1       0.926  -6.667   4.743  0.00  0.00    +0.000 C 
BRANCH  31  32
ATOM     32  C   UNL     1       0.747  -7.765   5.793  0.00  0.00    -0.077 C 
BRANCH  32  38
ATOM     33  C   UNL     1      -0.120  -6.234   7.459  0.00  0.00    -0.050 C 
ATOM     34  C   UNL     1      -1.355  -5.893   8.297  0.00  0.00    +0.141 C 
ATOM     35  O   UNL     1      -1.700  -7.018   9.109  0.00  0.00    -0.383 OA
ATOM     36  C   UNL     1      -1.975  -8.205   8.360  0.00  0.00    +0.141 C 
ATOM     37  C   UNL     1      -0.747  -8.570   7.522  0.00  0.00    -0.050 C 
ATOM     38  N   UNL     1      -0.418  -7.430   6.642  0.00  0.00    +0.383 N 
ATOM     39  H   UNL     1      -1.224  -7.230   6.038  0.00  0.00    -0.082 HD
ENDBRANCH  32  38
ENDBRANCH  31  32
ENDBRANCH  30  31
ENDBRANCH  17  30
TORSDOF 6
