REMARK  Name = ZINC05518189
REMARK  18 active torsions:
REMARK  status: ('A' for Active; 'I' for Inactive)
REMARK    1  A    between atoms: C_1  and  C_2
REMARK    2  A    between atoms: C_2  and  N_3
REMARK    3  A    between atoms: C_4  and  C_33
REMARK    4  A    between atoms: N_6  and  P_7
REMARK    5  A    between atoms: P_7  and  O_9
REMARK    6  A    between atoms: P_7  and  O_21
REMARK    7  A    between atoms: O_9  and  C_10
REMARK    8  A    between atoms: C_12  and  C_19
REMARK    9  A    between atoms: C_12  and  C_20
REMARK   10  A    between atoms: N_13  and  O_18
REMARK   11  A    between atoms: C_14  and  C_16
REMARK   12  A    between atoms: C_14  and  C_17
REMARK   13  A    between atoms: O_21  and  C_22
REMARK   14  A    between atoms: C_24  and  C_31
REMARK   15  A    between atoms: C_24  and  C_32
REMARK   16  A    between atoms: N_25  and  O_30
REMARK   17  A    between atoms: C_26  and  C_28
REMARK   18  A    between atoms: C_26  and  C_29
REMARK                            x       y       z     vdW  Elec       q    Type
REMARK                         _______ _______ _______ _____ _____    ______ ____
ROOT
ATOM      1  P   UNL     1      -6.564  -0.047  -0.542  0.00  0.00    +0.261 P 
ATOM      2  S   UNL     1      -5.732   0.019  -2.208  0.00  0.00    +0.010 S 
ENDROOT
BRANCH   1   5
ATOM      3  N   UNL     1      -5.995   2.478  -0.506  0.00  0.00    -0.213 NA
ATOM      4  C   UNL     1      -4.795   1.786  -0.016  0.00  0.00    +0.163 C 
ATOM      5  N   UNL     1      -6.137   1.313   0.352  0.00  0.00    -0.149 NA
ATOM      6  C   UNL     1      -3.967   2.481   1.066  0.00  0.00    +0.044 C 
BRANCH   3   8
ATOM      7  C   UNL     1      -6.870   3.344  -2.623  0.00  0.00    +0.022 C 
ATOM      8  C   UNL     1      -6.265   2.134  -1.909  0.00  0.00    +0.101 C 
ENDBRANCH   3   8
ENDBRANCH   1   5
BRANCH   1   9
ATOM      9  O   UNL     1      -6.093  -1.373   0.241  0.00  0.00    -0.315 OA
BRANCH   9  10
ATOM     10  C   UNL     1      -4.808  -1.498   0.861  0.00  0.00    +0.130 C 
ATOM     11  C   UNL     1      -4.119  -2.760   0.342  0.00  0.00    +0.056 C 
ATOM     12  C   UNL     1      -2.754  -2.930   1.004  0.00  0.00    +0.044 C 
ATOM     13  N   UNL     1      -2.805  -2.803   2.445  0.00  0.00    -0.180 NA
ATOM     14  C   UNL     1      -3.636  -1.789   3.060  0.00  0.00    +0.044 C 
ATOM     15  C   UNL     1      -4.990  -1.630   2.373  0.00  0.00    +0.056 C 
ATOM     16  C   UNL     1      -2.919  -0.434   3.099  0.00  0.00    +0.030 C 
ATOM     17  C   UNL     1      -3.903  -2.206   4.523  0.00  0.00    +0.030 C 
ATOM     18  C   UNL     1      -2.244  -4.348   0.662  0.00  0.00    +0.030 C 
ATOM     19  C   UNL     1      -1.762  -1.932   0.395  0.00  0.00    +0.030 C 
BRANCH  13  20
ATOM     20  O   UNL     1      -1.476  -2.872   3.053  0.00  0.00    -0.311 OA
ATOM     21  H   UNL     1      -0.899  -3.542   2.662  0.00  0.00    +0.237 HD
ENDBRANCH  13  20
ENDBRANCH   9  10
ENDBRANCH   1   9
BRANCH   1  22
ATOM     22  O   UNL     1      -8.161  -0.080  -0.740  0.00  0.00    -0.315 OA
BRANCH  22  23
ATOM     23  C   UNL     1      -8.930   1.084  -1.066  0.00  0.00    +0.130 C 
ATOM     24  C   UNL     1      -9.777   1.482   0.142  0.00  0.00    +0.056 C 
ATOM     25  C   UNL     1     -10.625   2.709  -0.185  0.00  0.00    +0.044 C 
ATOM     26  N   UNL     1     -11.351   2.578  -1.431  0.00  0.00    -0.180 NA
ATOM     27  C   UNL     1     -10.718   1.974  -2.584  0.00  0.00    +0.044 C 
ATOM     28  C   UNL     1      -9.867   0.758  -2.229  0.00  0.00    +0.056 C 
ATOM     29  C   UNL     1      -9.861   2.995  -3.343  0.00  0.00    +0.030 C 
ATOM     30  C   UNL     1     -11.826   1.501  -3.550  0.00  0.00    +0.030 C 
ATOM     31  C   UNL     1      -9.738   3.959  -0.189  0.00  0.00    +0.030 C 
ATOM     32  C   UNL     1     -11.652   2.882   0.956  0.00  0.00    +0.030 C 
BRANCH  26  33
ATOM     33  O   UNL     1     -12.080   3.798  -1.776  0.00  0.00    -0.311 OA
ATOM     34  H   UNL     1     -12.514   4.224  -1.024  0.00  0.00    +0.237 HD
ENDBRANCH  26  33
ENDBRANCH  22  23
ENDBRANCH   1  22
TORSDOF 8
