REMARK  Name = ZINC46555841
REMARK  5 active torsions:
REMARK  status: ('A' for Active; 'I' for Inactive)
REMARK    1  A    between atoms: C_11  and  C_13
REMARK    2  A    between atoms: C_13  and  C_14
REMARK    3  A    between atoms: C_14  and  C_15
REMARK    4  A    between atoms: N_17  and  C_18
REMARK    5  A    between atoms: C_21  and  C_24
REMARK                            x       y       z     vdW  Elec       q    Type
REMARK                         _______ _______ _______ _____ _____    ______ ____
ROOT
ATOM      1  C   UNL     1       8.412  -0.243  -0.671  0.00  0.00    +0.218 C 
ATOM      2  O   UNL     1       9.353   0.300  -1.210  0.00  0.00    -0.275 OA
ATOM      3  N   UNL     1       8.571  -1.451  -0.094  0.00  0.00    -0.285 N 
ATOM      4  H   UNL     1       7.838  -1.855   0.395  0.00  0.00    +0.155 HD
ENDROOT
BRANCH   3   5
ATOM      5  C   UNL     1       9.794  -2.122  -0.201  0.00  0.00    +0.033 A 
ATOM      6  C   UNL     1       9.822  -3.506  -0.311  0.00  0.00    +0.023 A 
ATOM      7  C   UNL     1      11.031  -4.165  -0.416  0.00  0.00    +0.006 A 
ATOM      8  C   UNL     1      12.213  -3.449  -0.413  0.00  0.00    -0.041 A 
ATOM      9  C   UNL     1      12.190  -2.070  -0.303  0.00  0.00    +0.006 A 
ATOM     10  C   UNL     1      10.984  -1.405  -0.204  0.00  0.00    +0.023 A 
BRANCH   8  11
ATOM     11  C   UNL     1      13.531  -4.171  -0.528  0.00  0.00    -0.003 C 
ATOM     12  C   UNL     1      13.573  -4.949  -1.845  0.00  0.00    +0.015 C 
ATOM     13  C   UNL     1      14.910  -5.682  -1.962  0.00  0.00    -0.010 C 
ATOM     14  C   UNL     1      16.053  -4.666  -1.933  0.00  0.00    +0.007 C 
ATOM     15  C   UNL     1      16.012  -3.888  -0.616  0.00  0.00    -0.010 C 
ATOM     16  C   UNL     1      14.674  -3.155  -0.499  0.00  0.00    +0.015 C 
ATOM     17  C   UNL     1      16.164  -4.861   0.555  0.00  0.00    +0.007 C 
ATOM     18  C   UNL     1      15.021  -5.877   0.526  0.00  0.00    -0.010 C 
ATOM     19  C   UNL     1      15.063  -6.655  -0.790  0.00  0.00    +0.007 C 
ATOM     20  C   UNL     1      13.683  -5.143   0.643  0.00  0.00    +0.015 C 
ENDBRANCH   8  11
ENDBRANCH   3   5
BRANCH   1  21
ATOM     21  C   UNL     1       7.066   0.433  -0.646  0.00  0.00    +0.104 C 
BRANCH  21  22
ATOM     22  C   UNL     1       7.158   1.781  -1.364  0.00  0.00    +0.083 C 
BRANCH  22  33
ATOM     23  C   UNL     1       1.072   3.574  -0.598  0.00  0.00    +0.001 A 
ATOM     24  C   UNL     1       1.286   2.329  -0.019  0.00  0.00    +0.002 A 
ATOM     25  C   UNL     1       2.528   1.737  -0.059  0.00  0.00    +0.028 A 
ATOM     26  C   UNL     1       3.587   2.393  -0.690  0.00  0.00    +0.078 A 
ATOM     27  C   UNL     1       3.366   3.658  -1.278  0.00  0.00    +0.065 A 
ATOM     28  C   UNL     1       2.101   4.240  -1.226  0.00  0.00    +0.015 A 
ATOM     29  C   UNL     1       4.502   4.322  -1.934  0.00  0.00    +0.259 A 
ATOM     30  O   UNL     1       4.379   5.413  -2.459  0.00  0.00    -0.267 OA
ATOM     31  N   UNL     1       5.690   3.674  -1.930  0.00  0.00    -0.310 N 
ATOM     32  H   UNL     1       6.461   4.081  -2.353  0.00  0.00    +0.170 HD
ATOM     33  C   UNL     1       5.811   2.457  -1.338  0.00  0.00    +0.111 A 
ATOM     34  N   UNL     1       4.827   1.846  -0.752  0.00  0.00    -0.234 NA
ENDBRANCH  22  33
ENDBRANCH  21  22
ENDBRANCH   1  21
TORSDOF 5
