REMARK  Name = ZINC14510619
REMARK  10 active torsions:
REMARK  status: ('A' for Active; 'I' for Inactive)
REMARK    1  A    between atoms: C_1  and  C_2
REMARK    2  A    between atoms: C_2  and  C_3
REMARK    3  A    between atoms: C_3  and  C_4
REMARK    4  A    between atoms: C_4  and  N_5
REMARK    5  A    between atoms: N_5  and  C_6
REMARK    6  A    between atoms: C_7  and  N_22
REMARK    7  A    between atoms: N_8  and  C_15
REMARK    8  A    between atoms: C_15  and  C_16
REMARK    9  A    between atoms: C_23  and  C_25
REMARK   10  A    between atoms: C_27  and  O_35
REMARK                            x       y       z     vdW  Elec       q    Type
REMARK                         _______ _______ _______ _____ _____    ______ ____
ROOT
ATOM      1  N   UNL     1      -3.661  -0.791  -0.175  0.00  0.00    -0.260 N 
ATOM      2  C   UNL     1      -2.560  -0.035  -0.353  0.00  0.00    +0.252 C 
ATOM      3  O   UNL     1      -2.662   1.173  -0.452  0.00  0.00    -0.270 OA
ENDROOT
BRANCH   2   4
ATOM      4  C   UNL     1      -1.228  -0.674  -0.428  0.00  0.00    +0.051 A 
ATOM      5  C   UNL     1      -0.967  -1.696  -1.330  0.00  0.00    +0.080 A 
ATOM      6  C   UNL     1       0.307  -2.272  -1.366  0.00  0.00    +0.214 A 
ATOM      7  N   UNL     1       1.278  -1.882  -0.573  0.00  0.00    -0.213 NA
ATOM      8  C   UNL     1       1.119  -0.907   0.326  0.00  0.00    +0.076 A 
ATOM      9  C   UNL     1      -0.133  -0.255   0.447  0.00  0.00    +0.013 A 
ATOM     10  C   UNL     1      -0.298   0.766   1.390  0.00  0.00    +0.011 A 
ATOM     11  C   UNL     1       0.750   1.124   2.185  0.00  0.00    +0.001 A 
ATOM     12  C   UNL     1       1.983   0.486   2.069  0.00  0.00    +0.002 A 
ATOM     13  C   UNL     1       2.177  -0.510   1.163  0.00  0.00    +0.028 A 
BRANCH   6  14
ATOM     14  O   UNL     1       0.548  -3.270  -2.252  0.00  0.00    -0.492 OA
ATOM     15  H   UNL     1       0.366  -4.154  -1.908  0.00  0.00    +0.294 HD
ENDBRANCH   6  14
ENDBRANCH   2   4
BRANCH   1  16
ATOM     16  C   UNL     1      -4.939  -0.198  -0.221  0.00  0.00    +0.140 A 
ATOM     17  C   UNL     1      -5.319   0.725   0.733  0.00  0.00    +0.128 A 
ATOM     18  N   UNL     1      -6.571   1.290   0.660  0.00  0.00    -0.276 N 
ATOM     19  C   UNL     1      -7.418   0.941  -0.325  0.00  0.00    +0.331 A 
ATOM     20  O   UNL     1      -8.523   1.448  -0.370  0.00  0.00    -0.246 OA
ATOM     21  N   UNL     1      -7.068   0.040  -1.260  0.00  0.00    -0.273 N 
ATOM     22  H   UNL     1      -7.717  -0.201  -1.982  0.00  0.00    +0.173 HD
ATOM     23  C   UNL     1      -5.852  -0.539  -1.237  0.00  0.00    +0.277 A 
ATOM     24  O   UNL     1      -5.544  -1.355  -2.090  0.00  0.00    -0.266 OA
BRANCH  17  25
ATOM     25  N   UNL     1      -4.455   1.078   1.742  0.00  0.00    -0.343 N 
ATOM     26  H   UNL     1      -3.562   0.700   1.770  0.00  0.00    +0.144 HD
ATOM     27  H   UNL     1      -4.738   1.705   2.425  0.00  0.00    +0.144 HD
ENDBRANCH  17  25
BRANCH  18  28
ATOM     28  C   UNL     1      -6.986   2.273   1.663  0.00  0.00    +0.163 C 
BRANCH  28  29
ATOM     29  C   UNL     1      -7.642   1.565   2.820  0.00  0.00    -0.028 A 
ATOM     30  C   UNL     1      -9.007   1.347   2.813  0.00  0.00    +0.005 A 
ATOM     31  C   UNL     1      -9.608   0.693   3.872  0.00  0.00    +0.000 A 
ATOM     32  C   UNL     1      -8.846   0.266   4.943  0.00  0.00    +0.000 A 
ATOM     33  C   UNL     1      -7.482   0.488   4.952  0.00  0.00    +0.000 A 
ATOM     34  C   UNL     1      -6.880   1.137   3.891  0.00  0.00    +0.005 A 
ENDBRANCH  28  29
ENDBRANCH  18  28
ENDBRANCH   1  16
BRANCH   1  35
ATOM     35  C   UNL     1      -3.531  -2.230   0.065  0.00  0.00    +0.114 C 
BRANCH  35  36
ATOM     36  C   UNL     1      -3.289  -2.478   1.556  0.00  0.00    +0.019 C 
BRANCH  36  38
ATOM     37  C   UNL     1      -2.910  -4.229   3.297  0.00  0.00    +0.004 C 
ATOM     38  C   UNL     1      -3.152  -3.981   1.807  0.00  0.00    -0.002 C 
ENDBRANCH  36  38
ENDBRANCH  35  36
ENDBRANCH   1  35
TORSDOF 9
