REMARK  Name = ZINC67029676
REMARK  6 active torsions:
REMARK  status: ('A' for Active; 'I' for Inactive)
REMARK    1  A    between atoms: C_1  and  C_2
REMARK    2  A    between atoms: C_3  and  C_23
REMARK    3  A    between atoms: C_4  and  C_17
REMARK    4  A    between atoms: N_9  and  C_10
REMARK    5  A    between atoms: C_23  and  O_25
REMARK    6  A    between atoms: O_25  and  C_26
REMARK                            x       y       z     vdW  Elec       q    Type
REMARK                         _______ _______ _______ _____ _____    ______ ____
ROOT
ATOM      1  C   UNL     1       0.001   1.328  -1.005  0.00  0.00    +0.062 C 
ATOM      2  C   UNL     1       0.011  -0.089  -0.492  0.00  0.00    +0.029 C 
ATOM      3  C   UNL     1      -1.149  -0.777  -0.415  0.00  0.00    +0.080 C 
ATOM      4  C   UNL     1      -1.093  -2.198   0.107  0.00  0.00    +0.164 C 
ATOM      5  N   UNL     1       0.231  -2.717   0.490  0.00  0.00    -0.286 N 
ATOM      6  C   UNL     1       1.301  -1.908   0.356  0.00  0.00    +0.311 C 
ATOM      7  O   UNL     1       2.398  -2.328   0.669  0.00  0.00    -0.252 OA
ATOM      8  N   UNL     1       1.196  -0.660  -0.117  0.00  0.00    -0.228 N 
ATOM      9  H   UNL     1       0.331  -3.620   0.831  0.00  0.00    +0.151 HD
ENDROOT
BRANCH   8  10
ATOM     10  C   UNL     1       2.363   0.106  -0.227  0.00  0.00    +0.044 A 
ATOM     11  C   UNL     1       2.775   0.903   0.834  0.00  0.00    +0.024 A 
ATOM     12  C   UNL     1       3.927   1.657   0.723  0.00  0.00    +0.003 A 
ATOM     13  C   UNL     1       4.670   1.620  -0.443  0.00  0.00    +0.015 A 
ATOM     14  C   UNL     1       4.263   0.828  -1.501  0.00  0.00    +0.020 A 
ATOM     15  C   UNL     1       3.114   0.066  -1.394  0.00  0.00    +0.039 A 
ATOM     16 BR   UNL     1       5.282   0.780  -3.093  0.00  0.00    -0.050 Br
ENDBRANCH   8  10
BRANCH   4  17
ATOM     17  C   UNL     1      -1.992  -2.286   1.313  0.00  0.00    +0.088 A 
ATOM     18  C   UNL     1      -3.039  -3.196   1.490  0.00  0.00    +0.046 A 
ATOM     19  C   UNL     1      -3.601  -2.954   2.697  0.00  0.00    +0.105 A 
ATOM     20  N   UNL     1      -2.933  -1.927   3.264  0.00  0.00    -0.284 N 
ATOM     21  H   UNL     1      -3.116  -1.537   4.133  0.00  0.00    +0.188 HD
ATOM     22  N   UNL     1      -1.923  -1.529   2.378  0.00  0.00    -0.177 NA
ENDBRANCH   4  17
BRANCH   3  23
ATOM     23  C   UNL     1      -2.374  -0.190  -0.807  0.00  0.00    +0.339 C 
ATOM     24  O   UNL     1      -2.396   0.954  -1.223  0.00  0.00    -0.245 OA
BRANCH  23  25
ATOM     25  O   UNL     1      -3.520  -0.897  -0.721  0.00  0.00    -0.465 OA
ATOM     26  C   UNL     1      -4.720  -0.242  -1.134  0.00  0.00    +0.280 C 
ENDBRANCH  23  25
ENDBRANCH   3  23
TORSDOF 4
