REMARK  Name = ZINC28232943
REMARK  3 active torsions:
REMARK  status: ('A' for Active; 'I' for Inactive)
REMARK    1  A    between atoms: C_8  and  C_11
REMARK    2  A    between atoms: N_13  and  C_14
REMARK    3  A    between atoms: C_15  and  C_23
REMARK                            x       y       z     vdW  Elec       q    Type
REMARK                         _______ _______ _______ _____ _____    ______ ____
ROOT
ATOM      1  C   UNL     1      -2.277   7.221  -2.923  0.00  0.00    +0.255 C 
ATOM      2  O   UNL     1      -2.155   6.363  -3.777  0.00  0.00    -0.270 OA
ATOM      3  N   UNL     1      -1.981   6.940  -1.639  0.00  0.00    -0.275 N 
ATOM      4  H   UNL     1      -2.008   7.737  -0.881  0.00  0.00    +0.156 HD
ENDROOT
BRANCH   1  12
ATOM      5  C   UNL     1      -3.285  11.946  -1.874  0.00  0.00    +0.104 A 
ATOM      6  C   UNL     1      -3.737  13.100  -2.364  0.00  0.00    +0.067 A 
ATOM      7  S   UNL     1      -4.085  12.668  -4.060  0.00  0.00    -0.058 S 
ATOM      8  C   UNL     1      -3.608  11.007  -3.988  0.00  0.00    +0.180 A 
ATOM      9  N   UNL     1      -3.207  10.843  -2.692  0.00  0.00    -0.261 N 
ATOM     10  C   UNL     1      -2.767   9.599  -2.334  0.00  0.00    +0.271 A 
ATOM     11  O   UNL     1      -2.395   9.387  -1.193  0.00  0.00    -0.266 OA
ATOM     12  C   UNL     1      -2.746   8.562  -3.291  0.00  0.00    +0.120 A 
ATOM     13  C   UNL     1      -3.172   8.829  -4.597  0.00  0.00    +0.132 A 
ATOM     14  N   UNL     1      -3.593  10.048  -4.890  0.00  0.00    -0.230 NA
ENDBRANCH   1  12
BRANCH   3  15
ATOM     15  C   UNL     1      -1.641   5.646  -1.272  0.00  0.00    +0.090 A 
ATOM     16  C   UNL     1      -1.308   5.166  -0.014  0.00  0.00    +0.084 A 
ATOM     17  C   UNL     1      -0.990   3.753   0.103  0.00  0.00    -0.018 A 
ATOM     18  C   UNL     1      -1.055   3.052  -1.050  0.00  0.00    -0.004 A 
ATOM     19  S   UNL     1      -1.530   4.238  -2.275  0.00  0.00    -0.077 S 
ATOM     20  C   UNL     1      -0.781   1.591  -1.235  0.00  0.00    +0.043 C 
ATOM     21  C   UNL     1      -0.049   1.075   0.013  0.00  0.00    +0.005 C 
ATOM     22  C   UNL     1      -0.789   1.566   1.260  0.00  0.00    +0.005 C 
ATOM     23  C   UNL     1      -0.607   3.076   1.413  0.00  0.00    +0.037 C 
BRANCH  16  24
ATOM     24  C   UNL     1      -1.279   6.031   1.127  0.00  0.00    +0.102 C 
ATOM     25  N   UNL     1      -1.255   6.717   2.032  0.00  0.00    -0.191 NA
ENDBRANCH  16  24
ENDBRANCH   3  15
TORSDOF 3
