REMARK  Name = ZINC25285085
REMARK  7 active torsions:
REMARK  status: ('A' for Active; 'I' for Inactive)
REMARK    1  A    between atoms: C_4  and  C_7
REMARK    2  A    between atoms: C_7  and  C_8
REMARK    3  A    between atoms: C_8  and  C_10
REMARK    4  A    between atoms: C_8  and  N_16
REMARK    5  A    between atoms: C_17  and  C_19
REMARK    6  A    between atoms: C_19  and  N_20
REMARK    7  A    between atoms: C_21  and  C_23
REMARK                            x       y       z     vdW  Elec       q    Type
REMARK                         _______ _______ _______ _____ _____    ______ ____
ROOT
ATOM      1  N   UNL     1      -8.506   0.978   2.543  0.00  0.00    -0.307 N 
ATOM      2  C   UNL     1      -7.222   1.323   2.320  0.00  0.00    +0.231 C 
ATOM      3  O   UNL     1      -6.635   2.023   3.116  0.00  0.00    -0.274 OA
ATOM      4  H   UNL     1      -9.039   0.343   1.821  0.00  0.00    +0.149 HD
ENDROOT
BRANCH   1   5
ATOM      5  C   UNL     1      -9.192   1.451   3.749  0.00  0.00    +0.107 C 
BRANCH   5   6
ATOM      6  C   UNL     1      -9.755   2.826   3.499  0.00  0.00    -0.027 A 
ATOM      7  C   UNL     1     -10.331   3.127   2.279  0.00  0.00    +0.005 A 
ATOM      8  C   UNL     1     -10.851   4.387   2.052  0.00  0.00    +0.000 A 
ATOM      9  C   UNL     1     -10.788   5.350   3.042  0.00  0.00    +0.000 A 
ATOM     10  C   UNL     1     -10.208   5.051   4.261  0.00  0.00    +0.000 A 
ATOM     11  C   UNL     1      -9.691   3.789   4.489  0.00  0.00    +0.005 A 
ENDBRANCH   5   6
BRANCH   5  12
ATOM     12  C   UNL     1     -10.329   0.489   4.098  0.00  0.00    +0.062 C 
BRANCH  12  16
ATOM     13  C   UNL     1      -8.704  -3.321   5.143  0.00  0.00    +0.000 A 
ATOM     14  C   UNL     1      -8.903  -2.363   6.120  0.00  0.00    +0.000 A 
ATOM     15  C   UNL     1      -9.429  -1.130   5.781  0.00  0.00    +0.004 A 
ATOM     16  C   UNL     1      -9.756  -0.855   4.467  0.00  0.00    -0.045 A 
ATOM     17  C   UNL     1      -9.562  -1.814   3.491  0.00  0.00    +0.004 A 
ATOM     18  C   UNL     1      -9.031  -3.046   3.828  0.00  0.00    +0.000 A 
ENDBRANCH  12  16
ENDBRANCH   5  12
ENDBRANCH   1   5
BRANCH   2  19
ATOM     19  C   UNL     1      -6.517   0.837   1.080  0.00  0.00    +0.200 C 
BRANCH  19  20
ATOM     20  N   UNL     1      -5.143   1.344   1.069  0.00  0.00    -0.306 N 
ATOM     21  C   UNL     1      -4.318   1.035   0.049  0.00  0.00    +0.220 C 
ATOM     22  O   UNL     1      -4.714   0.337  -0.861  0.00  0.00    -0.275 OA
ATOM     23  H   UNL     1      -4.784   1.976   1.894  0.00  0.00    +0.149 HD
BRANCH  21  24
ATOM     24  C   UNL     1      -2.904   1.556   0.038  0.00  0.00    +0.048 C 
ATOM     25  C   UNL     1      -2.188   1.063  -1.221  0.00  0.00    +0.019 C 
ATOM     26  C   UNL     1      -0.753   1.593  -1.232  0.00  0.00    -0.009 C 
ATOM     27  C   UNL     1      -0.013   1.086   0.008  0.00  0.00    +0.007 C 
ATOM     28  C   UNL     1      -0.729   1.579   1.267  0.00  0.00    -0.009 C 
ATOM     29  C   UNL     1      -2.164   1.050   1.278  0.00  0.00    +0.019 C 
ATOM     30  C   UNL     1      -0.750   3.109   1.275  0.00  0.00    +0.007 C 
ATOM     31  C   UNL     1      -1.490   3.616   0.036  0.00  0.00    -0.009 C 
ATOM     32  C   UNL     1      -0.773   3.123  -1.223  0.00  0.00    +0.007 C 
ATOM     33  C   UNL     1      -2.925   3.086   0.047  0.00  0.00    +0.019 C 
ENDBRANCH  21  24
ENDBRANCH  19  20
ENDBRANCH   2  19
TORSDOF 7
