REMARK  Name = ZINC08614111
REMARK  9 active torsions:
REMARK  status: ('A' for Active; 'I' for Inactive)
REMARK    1  A    between atoms: C_1  and  C_2
REMARK    2  A    between atoms: C_2  and  O_3
REMARK    3  A    between atoms: O_3  and  C_4
REMARK    4  A    between atoms: C_6  and  C_11
REMARK    5  A    between atoms: C_9  and  O_10
REMARK    6  A    between atoms: C_22  and  S_25
REMARK    7  A    between atoms: N_23  and  C_24
REMARK    8  A    between atoms: S_25  and  C_26
REMARK    9  A    between atoms: C_26  and  C_27
REMARK                            x       y       z     vdW  Elec       q    Type
REMARK                         _______ _______ _______ _____ _____    ______ ____
ROOT
ATOM      1  C   UNL     1      -0.229  -4.969   0.477  0.00  0.00    +0.066 C 
ATOM      2  C   UNL     1       0.884  -5.841   1.061  0.00  0.00    +0.109 C 
ATOM      3  C   UNL     1       1.313  -6.862   0.040  0.00  0.00    +0.219 C 
ATOM      4  O   UNL     1       2.474  -7.207  -0.013  0.00  0.00    -0.275 OA
ATOM      5  N   UNL     1       0.419  -7.394  -0.813  0.00  0.00    -0.271 N 
ATOM      6  C   UNL     1      -0.905  -7.007  -0.777  0.00  0.00    +0.116 A 
ATOM      7  C   UNL     1      -1.268  -5.846  -0.167  0.00  0.00    +0.065 A 
ATOM      8  C   UNL     1      -2.629  -5.478  -0.145  0.00  0.00    +0.279 A 
ATOM      9  O   UNL     1      -2.978  -4.440   0.398  0.00  0.00    -0.265 OA
ATOM     10  N   UNL     1      -3.538  -6.277  -0.726  0.00  0.00    -0.185 NA
ATOM     11  C   UNL     1      -3.177  -7.398  -1.315  0.00  0.00    +0.174 A 
ATOM     12  N   UNL     1      -1.871  -7.787  -1.355  0.00  0.00    -0.311 N 
ATOM     13  C   UNL     1      -1.501  -9.039  -2.019  0.00  0.00    +0.152 C 
ATOM     14  H   UNL     1       0.708  -8.056  -1.460  0.00  0.00    +0.156 HD
ENDROOT
BRANCH   1  17
ATOM     15  C   UNL     1       0.777  -1.811  -1.336  0.00  0.00    +0.162 A 
ATOM     16  C   UNL     1       0.243  -2.669  -0.388  0.00  0.00    +0.053 A 
ATOM     17  C   UNL     1       0.352  -4.037  -0.555  0.00  0.00    -0.036 A 
ATOM     18  C   UNL     1       0.992  -4.552  -1.667  0.00  0.00    +0.008 A 
ATOM     19  C   UNL     1       1.526  -3.702  -2.616  0.00  0.00    +0.049 A 
ATOM     20  C   UNL     1       1.416  -2.330  -2.458  0.00  0.00    +0.158 A 
BRANCH  20  21
ATOM     21  O   UNL     1       1.936  -1.492  -3.394  0.00  0.00    -0.503 OA
ATOM     22  H   UNL     1       2.856  -1.241  -3.231  0.00  0.00    +0.292 HD
ENDBRANCH  20  21
BRANCH  15  23
ATOM     23  O   UNL     1       0.671  -0.465  -1.174  0.00  0.00    -0.489 OA
BRANCH  23  25
ATOM     24  C   UNL     1      -0.019   1.526   0.010  0.00  0.00    +0.048 C 
ATOM     25  C   UNL     1       0.002  -0.004   0.002  0.00  0.00    +0.226 C 
ENDBRANCH  23  25
ENDBRANCH  15  23
ENDBRANCH   1  17
BRANCH  11  26
ATOM     26  S   UNL     1      -4.404  -8.415  -2.065  0.00  0.00    -0.083 S 
BRANCH  26  27
ATOM     27  C   UNL     1      -5.955  -7.521  -1.770  0.00  0.00    +0.112 C 
BRANCH  27  28
ATOM     28  C   UNL     1      -7.102  -8.293  -2.369  0.00  0.00    -0.036 A 
ATOM     29  C   UNL     1      -7.481  -8.062  -3.679  0.00  0.00    +0.004 A 
ATOM     30  C   UNL     1      -8.533  -8.770  -4.229  0.00  0.00    +0.002 A 
ATOM     31  C   UNL     1      -9.207  -9.709  -3.470  0.00  0.00    +0.020 A 
ATOM     32  C   UNL     1      -8.828  -9.940  -2.160  0.00  0.00    +0.041 A 
ATOM     33  C   UNL     1      -7.771  -9.236  -1.611  0.00  0.00    +0.024 A 
ATOM     34 CL   UNL     1      -9.673 -11.119  -1.206  0.00  0.00    -0.084 Cl
ENDBRANCH  27  28
ENDBRANCH  26  27
ENDBRANCH  11  26
TORSDOF 7
