REMARK  Name = ZINC11463520
REMARK  12 active torsions:
REMARK  status: ('A' for Active; 'I' for Inactive)
REMARK    1  A    between atoms: C_1  and  C_2
REMARK    2  A    between atoms: C_2  and  C_3
REMARK    3  A    between atoms: C_3  and  N_50
REMARK    4  A    between atoms: C_4  and  C_5
REMARK    5  A    between atoms: C_4  and  N_50
REMARK    6  A    between atoms: N_7  and  C_8
REMARK    7  A    between atoms: C_17  and  C_18
REMARK    8  A    between atoms: C_17  and  N_50
REMARK    9  A    between atoms: N_20  and  C_21
REMARK   10  A    between atoms: C_25  and  C_26
REMARK   11  A    between atoms: C_26  and  O_28
REMARK   12  A    between atoms: O_28  and  C_29
REMARK                            x       y       z     vdW  Elec       q    Type
REMARK                         _______ _______ _______ _____ _____    ______ ____
ROOT
ATOM      1  N   UNL     1       3.886   6.040   0.179  0.00  0.00    +0.391 N 
ATOM      2  H   UNL     1       4.447   5.554  -0.531  0.00  0.00    -0.080 HD
ENDROOT
BRANCH   1   3
ATOM      3  C   UNL     1       4.489   5.809   1.508  0.00  0.00    -0.078 C 
BRANCH   3   5
ATOM      4  C   UNL     1       5.474   4.064   3.002  0.00  0.00    +0.002 C 
ATOM      5  C   UNL     1       4.921   4.344   1.603  0.00  0.00    -0.022 C 
ENDBRANCH   3   5
ENDBRANCH   1   3
BRANCH   1   6
ATOM      6  C   UNL     1       2.508   5.504   0.150  0.00  0.00    +0.020 C 
BRANCH   6   7
ATOM      7  C   UNL     1       2.093   5.316  -1.286  0.00  0.00    +0.201 C 
ATOM      8  O   UNL     1       2.895   5.500  -2.178  0.00  0.00    -0.278 OA
ATOM      9  N   UNL     1       0.832   4.944  -1.580  0.00  0.00    -0.285 N 
ATOM     10  H   UNL     1       0.172   4.867  -0.874  0.00  0.00    +0.155 HD
BRANCH   9  11
ATOM     11  C   UNL     1       0.474   4.669  -2.907  0.00  0.00    +0.072 A 
ATOM     12  C   UNL     1       1.140   5.296  -3.951  0.00  0.00    +0.029 A 
ATOM     13  C   UNL     1       0.786   5.024  -5.259  0.00  0.00    +0.043 A 
ATOM     14  C   UNL     1      -0.233   4.127  -5.530  0.00  0.00    +0.161 A 
ATOM     15  C   UNL     1      -0.901   3.498  -4.491  0.00  0.00    +0.195 A 
ATOM     16  C   UNL     1      -0.549   3.768  -3.179  0.00  0.00    +0.182 A 
ATOM     17  F   UNL     1      -1.204   3.161  -2.164  0.00  0.00    -0.200 F 
ATOM     18  F   UNL     1      -1.895   2.624  -4.757  0.00  0.00    -0.199 F 
ATOM     19  F   UNL     1      -0.577   3.863  -6.810  0.00  0.00    -0.202 F 
ENDBRANCH   9  11
ENDBRANCH   6   7
ENDBRANCH   1   6
BRANCH   1  20
ATOM     20  C   UNL     1       3.872   7.486  -0.125  0.00  0.00    +0.020 C 
BRANCH  20  21
ATOM     21  C   UNL     1       5.292   7.958  -0.307  0.00  0.00    +0.201 C 
ATOM     22  O   UNL     1       6.211   7.177  -0.178  0.00  0.00    -0.278 OA
ATOM     23  N   UNL     1       5.540   9.247  -0.611  0.00  0.00    -0.286 N 
ATOM     24  H   UNL     1       4.811   9.886  -0.647  0.00  0.00    +0.155 HD
BRANCH  23  25
ATOM     25  C   UNL     1       6.845   9.663  -0.875  0.00  0.00    +0.055 A 
ATOM     26  C   UNL     1       7.936   8.925  -0.466  0.00  0.00    +0.032 A 
ATOM     27  C   UNL     1       9.184   9.374  -0.749  0.00  0.00    +0.048 A 
ATOM     28  S   UNL     1       8.894  10.855  -1.603  0.00  0.00    -0.088 S 
ATOM     29  C   UNL     1       7.111  10.842  -1.571  0.00  0.00    +0.117 A 
BRANCH  29  30
ATOM     30  C   UNL     1       6.202  11.784  -2.108  0.00  0.00    +0.347 C 
ATOM     31  O   UNL     1       5.004  11.611  -1.988  0.00  0.00    -0.244 OA
BRANCH  30  32
ATOM     32  O   UNL     1       6.665  12.875  -2.755  0.00  0.00    -0.464 OA
ATOM     33  C   UNL     1       5.692  13.784  -3.272  0.00  0.00    +0.280 C 
ENDBRANCH  30  32
ENDBRANCH  29  30
ENDBRANCH  23  25
ENDBRANCH  20  21
ENDBRANCH   1  20
TORSDOF 10
