REMARK  Name = ZINC29465537
REMARK  12 active torsions:
REMARK  status: ('A' for Active; 'I' for Inactive)
REMARK    1  A    between atoms: C_1  and  C_2
REMARK    2  A    between atoms: C_2  and  C_3
REMARK    3  A    between atoms: C_2  and  C_4
REMARK    4  A    between atoms: C_4  and  C_5
REMARK    5  A    between atoms: C_5  and  N_6
REMARK    6  A    between atoms: N_6  and  C_7
REMARK    7  A    between atoms: N_6  and  C_19
REMARK    8  A    between atoms: C_7  and  C_8
REMARK    9  A    between atoms: C_11  and  C_13
REMARK   10  A    between atoms: C_20  and  N_35
REMARK   11  A    between atoms: N_21  and  C_28
REMARK   12  A    between atoms: C_28  and  C_29
REMARK                            x       y       z     vdW  Elec       q    Type
REMARK                         _______ _______ _______ _____ _____    ______ ____
ROOT
ATOM      1  C   UNL     1       0.449  -0.498  -1.246  0.00  0.00    +0.134 A 
ATOM      2  C   UNL     1      -0.384  -1.242  -2.036  0.00  0.00    +0.127 A 
ATOM      3  N   UNL     1       0.073  -1.707  -3.248  0.00  0.00    -0.276 N 
ATOM      4  C   UNL     1       1.330  -1.442  -3.649  0.00  0.00    +0.331 A 
ATOM      5  O   UNL     1       1.719  -1.865  -4.721  0.00  0.00    -0.246 OA
ATOM      6  N   UNL     1       2.164  -0.716  -2.882  0.00  0.00    -0.273 N 
ATOM      7  H   UNL     1       3.188  -0.510  -3.226  0.00  0.00    +0.173 HD
ATOM      8  C   UNL     1       1.757  -0.237  -1.690  0.00  0.00    +0.277 A 
ATOM      9  O   UNL     1       2.519   0.420  -1.000  0.00  0.00    -0.266 OA
ENDROOT
BRANCH   2  10
ATOM     10  N   UNL     1      -1.668  -1.519  -1.626  0.00  0.00    -0.343 N 
ATOM     11  H   UNL     1      -2.333  -2.117  -2.266  0.00  0.00    +0.144 HD
ATOM     12  H   UNL     1      -2.030  -1.141  -0.658  0.00  0.00    +0.144 HD
ENDBRANCH   2  10
BRANCH   1  13
ATOM     13  N   UNL     1       0.002  -0.004   0.002  0.00  0.00    -0.314 N 
BRANCH  13  14
ATOM     14  C   UNL     1       0.827  -0.525   1.100  0.00  0.00    +0.106 C 
BRANCH  14  15
ATOM     15  C   UNL     1       0.626  -2.038   1.215  0.00  0.00    +0.022 C 
BRANCH  15  17
ATOM     16  C   UNL     1       0.989  -2.005   3.687  0.00  0.00    +0.007 C 
ATOM     17  C   UNL     1       1.485  -2.581   2.359  0.00  0.00    -0.016 C 
ATOM     18  C   UNL     1       1.382  -4.107   2.394  0.00  0.00    +0.007 C 
ENDBRANCH  15  17
ENDBRANCH  14  15
ENDBRANCH  13  14
BRANCH  13  19
ATOM     19  C   UNL     1      -0.018   1.465   0.010  0.00  0.00    +0.201 C 
BRANCH  19  20
ATOM     20  C   UNL     1      -0.723   1.951   1.250  0.00  0.00    +0.214 A 
ATOM     21  N   UNL     1      -0.154   2.199   2.396  0.00  0.00    -0.220 NA
ATOM     22  C   UNL     1      -1.088   2.616   3.264  0.00  0.00    +0.161 A 
ATOM     23  C   UNL     1      -2.280   2.610   2.615  0.00  0.00    +0.155 A 
ATOM     24  O   UNL     1      -2.037   2.192   1.353  0.00  0.00    -0.438 OA
BRANCH  23  25
ATOM     25  C   UNL     1      -3.593   2.990   3.180  0.00  0.00    +0.019 A 
ATOM     26  C   UNL     1      -4.739   2.939   2.385  0.00  0.00    +0.011 A 
ATOM     27  C   UNL     1      -5.962   3.288   2.920  0.00  0.00    +0.001 A 
ATOM     28  C   UNL     1      -6.051   3.700   4.237  0.00  0.00    +0.000 A 
ATOM     29  C   UNL     1      -4.918   3.758   5.029  0.00  0.00    +0.001 A 
ATOM     30  C   UNL     1      -3.690   3.405   4.508  0.00  0.00    +0.011 A 
ENDBRANCH  23  25
ENDBRANCH  19  20
ENDBRANCH  13  19
ENDBRANCH   1  13
BRANCH   3  31
ATOM     31  C   UNL     1      -0.812  -2.500  -4.105  0.00  0.00    +0.163 C 
BRANCH  31  32
ATOM     32  C   UNL     1      -0.663  -3.961  -3.766  0.00  0.00    -0.028 A 
ATOM     33  C   UNL     1       0.276  -4.731  -4.426  0.00  0.00    +0.005 A 
ATOM     34  C   UNL     1       0.416  -6.070  -4.111  0.00  0.00    +0.000 A 
ATOM     35  C   UNL     1      -0.390  -6.641  -3.144  0.00  0.00    +0.000 A 
ATOM     36  C   UNL     1      -1.332  -5.872  -2.488  0.00  0.00    +0.000 A 
ATOM     37  C   UNL     1      -1.469  -4.532  -2.799  0.00  0.00    +0.005 A 
ENDBRANCH  31  32
ENDBRANCH   3  31
TORSDOF 10
