REMARK  Name = ZINC43743319
REMARK  13 active torsions:
REMARK  status: ('A' for Active; 'I' for Inactive)
REMARK    1  A    between atoms: C_1  and  C_2
REMARK    2  A    between atoms: C_10  and  C_23
REMARK    3  A    between atoms: C_15  and  C_16
REMARK    4  A    between atoms: C_15  and  O_19
REMARK    5  A    between atoms: C_16  and  C_18
REMARK    6  A    between atoms: O_19  and  C_20
REMARK    7  A    between atoms: C_20  and  C_22
REMARK    8  A    between atoms: C_24  and  C_42
REMARK    9  A    between atoms: C_27  and  O_31
REMARK   10  A    between atoms: O_31  and  C_32
REMARK   11  A    between atoms: C_32  and  C_34
REMARK   12  A    between atoms: C_34  and  C_35
REMARK   13  A    between atoms: C_35  and  N_36
REMARK                            x       y       z     vdW  Elec       q    Type
REMARK                         _______ _______ _______ _____ _____    ______ ____
ROOT
ATOM      1  C   UNL     1      -0.272   1.671  -0.281  0.00  0.00    +0.044 C 
ATOM      2  C   UNL     1      -0.286   0.168  -0.175  0.00  0.00    -0.051 C 
ATOM      3  C   UNL     1      -0.183  -0.572  -1.269  0.00  0.00    -0.019 C 
ATOM      4  C   UNL     1      -0.168  -2.066  -1.249  0.00  0.00    +0.020 C 
ATOM      5  C   UNL     1      -0.793  -2.623   0.027  0.00  0.00    +0.006 C 
ATOM      6  C   UNL     1      -0.553  -4.135   0.052  0.00  0.00    +0.005 C 
ATOM      7  C   UNL     1      -1.292  -4.755  -1.132  0.00  0.00    +0.011 C 
ATOM      8  C   UNL     1      -0.766  -4.214  -2.462  0.00  0.00    +0.018 C 
ATOM      9  C   UNL     1      -0.800  -2.673  -2.473  0.00  0.00    +0.006 C 
ATOM     10  C   UNL     1      -2.298  -2.338  -2.600  0.00  0.00    +0.009 C 
ATOM     11  C   UNL     1      -2.823  -3.402  -3.591  0.00  0.00    +0.057 C 
ATOM     12  C   UNL     1      -1.817  -4.587  -3.542  0.00  0.00    +0.176 C 
ATOM     13  C   UNL     1       0.614  -4.784  -2.794  0.00  0.00    +0.016 C 
ATOM     14  C   UNL     1      -0.145  -1.944   1.232  0.00  0.00    -0.003 C 
ATOM     15  C   UNL     1      -0.407  -0.478   1.151  0.00  0.00    -0.039 C 
ATOM     16  C   UNL     1      -0.747   0.249   2.196  0.00  0.00    +0.021 C 
ATOM     17  C   UNL     1      -0.950  -0.319   3.570  0.00  0.00    +0.200 C 
ATOM     18  C   UNL     1      -0.207  -1.649   3.704  0.00  0.00    +0.050 C 
ATOM     19  C   UNL     1      -0.626  -2.547   2.538  0.00  0.00    +0.015 C 
ATOM     20  C   UNL     1       1.370  -2.136   1.138  0.00  0.00    +0.016 C 
ENDROOT
BRANCH  12  21
ATOM     21  C   UNL     1      -1.142  -4.789  -4.874  0.00  0.00    +0.174 C 
ATOM     22  O   UNL     1      -1.000  -3.854  -5.626  0.00  0.00    -0.293 OA
ATOM     23  C   UNL     1      -0.644  -6.155  -5.268  0.00  0.00    +0.090 C 
ENDBRANCH  12  21
BRANCH  12  24
ATOM     24  O   UNL     1      -2.513  -5.776  -3.159  0.00  0.00    -0.450 OA
BRANCH  24  25
ATOM     25  C   UNL     1      -3.536  -6.160  -3.938  0.00  0.00    +0.305 C 
ATOM     26  O   UNL     1      -3.788  -5.549  -4.950  0.00  0.00    -0.251 OA
ATOM     27  C   UNL     1      -4.370  -7.354  -3.552  0.00  0.00    +0.136 C 
ENDBRANCH  24  25
ENDBRANCH  12  24
BRANCH  17  28
ATOM     28  O   UNL     1      -0.448   0.602   4.542  0.00  0.00    -0.457 OA
BRANCH  28  29
ATOM     29  C   UNL     1      -1.308   1.518   5.014  0.00  0.00    +0.306 C 
ATOM     30  O   UNL     1      -2.448   1.538   4.616  0.00  0.00    -0.251 OA
BRANCH  29  31
ATOM     31  C   UNL     1      -0.850   2.521   6.042  0.00  0.00    +0.102 C 
BRANCH  31  32
ATOM     32  C   UNL     1      -2.015   3.443   6.408  0.00  0.00    -0.068 C 
BRANCH  32  33
ATOM     33  N   UNL     1      -1.569   4.421   7.409  0.00  0.00    +0.380 N 
ATOM     34  C   UNL     1      -1.212   3.722   8.649  0.00  0.00    -0.079 C 
ATOM     35  C   UNL     1      -0.670   4.727   9.668  0.00  0.00    -0.019 C 
ATOM     36  C   UNL     1      -1.746   5.776   9.964  0.00  0.00    -0.004 C 
ATOM     37  C   UNL     1      -2.164   6.447   8.652  0.00  0.00    -0.019 C 
ATOM     38  C   UNL     1      -2.650   5.379   7.671  0.00  0.00    -0.079 C 
ATOM     39  H   UNL     1      -0.762   4.915   7.059  0.00  0.00    -0.082 HD
ENDBRANCH  32  33
ENDBRANCH  31  32
ENDBRANCH  29  31
ENDBRANCH  28  29
ENDBRANCH  17  28
TORSDOF 8
