REMARK  Name = ZINC42806935
REMARK  6 active torsions:
REMARK  status: ('A' for Active; 'I' for Inactive)
REMARK    1  A    between atoms: C_1  and  C_2
REMARK    2  A    between atoms: C_2  and  C_4
REMARK    3  A    between atoms: C_2  and  N_12
REMARK    4  A    between atoms: N_15  and  N_16
REMARK    5  A    between atoms: C_17  and  C_19
REMARK    6  A    between atoms: C_19  and  C_20
REMARK                            x       y       z     vdW  Elec       q    Type
REMARK                         _______ _______ _______ _____ _____    ______ ____
ROOT
ATOM      1  N   UNL     1       0.765  -0.484  -1.153  0.00  0.00    -0.292 N 
ATOM      2  C   UNL     1       2.098  -0.661  -1.054  0.00  0.00    +0.316 C 
ATOM      3  O   UNL     1       2.666  -0.422  -0.005  0.00  0.00    -0.251 OA
ATOM      4  N   UNL     1       2.800  -1.102  -2.116  0.00  0.00    -0.218 N 
ATOM      5  H   UNL     1       0.312  -0.674  -1.989  0.00  0.00    +0.151 HD
ATOM      6  H   UNL     1       3.759  -1.229  -2.044  0.00  0.00    +0.174 HD
ENDROOT
BRANCH   4   7
ATOM      7  N   UNL     1       2.145  -1.377  -3.324  0.00  0.00    -0.233 N 
ATOM      8  C   UNL     1       2.847  -1.818  -4.386  0.00  0.00    +0.234 C 
ATOM      9  O   UNL     1       4.046  -1.977  -4.297  0.00  0.00    -0.274 OA
ATOM     10  H   UNL     1       1.186  -1.249  -3.395  0.00  0.00    +0.173 HD
BRANCH   8  11
ATOM     11  C   UNL     1       2.143  -2.113  -5.685  0.00  0.00    +0.134 C 
BRANCH  11  12
ATOM     12  C   UNL     1       3.146  -2.588  -6.704  0.00  0.00    -0.014 A 
ATOM     13  C   UNL     1       3.772  -1.832  -7.620  0.00  0.00    +0.087 A 
ATOM     14  N   UNL     1       4.611  -2.610  -8.371  0.00  0.00    -0.360 N 
ATOM     15  H   UNL     1       5.170  -2.287  -9.096  0.00  0.00    +0.165 HD
ATOM     16  C   UNL     1       4.544  -3.917  -7.946  0.00  0.00    +0.047 A 
ATOM     17  C   UNL     1       3.628  -3.960  -6.878  0.00  0.00    +0.003 A 
ATOM     18  C   UNL     1       3.361  -5.171  -6.238  0.00  0.00    +0.010 A 
ATOM     19  C   UNL     1       3.994  -6.310  -6.650  0.00  0.00    +0.001 A 
ATOM     20  C   UNL     1       4.901  -6.273  -7.699  0.00  0.00    +0.002 A 
ATOM     21  C   UNL     1       5.173  -5.090  -8.351  0.00  0.00    +0.026 A 
ENDBRANCH  11  12
ENDBRANCH   8  11
ENDBRANCH   4   7
BRANCH   1  23
ATOM     22  C   UNL     1       0.008   1.526   0.018  0.00  0.00    +0.033 C 
ATOM     23  C   UNL     1       0.002  -0.004   0.002  0.00  0.00    +0.104 C 
BRANCH  23  24
ATOM     24  C   UNL     1      -1.418  -0.500  -0.093  0.00  0.00    +0.008 A 
ATOM     25  C   UNL     1      -1.974  -0.770  -1.330  0.00  0.00    +0.011 A 
ATOM     26  C   UNL     1      -3.275  -1.226  -1.419  0.00  0.00    +0.039 A 
ATOM     27  C   UNL     1      -4.025  -1.411  -0.269  0.00  0.00    +0.126 A 
ATOM     28  C   UNL     1      -3.470  -1.140   0.970  0.00  0.00    +0.077 A 
ATOM     29  C   UNL     1      -2.163  -0.690   1.058  0.00  0.00    +0.131 A 
ATOM     30  F   UNL     1      -1.618  -0.430   2.266  0.00  0.00    -0.205 F 
ATOM     31  F   UNL     1      -5.298  -1.855  -0.356  0.00  0.00    -0.205 F 
ENDBRANCH  23  24
ENDBRANCH   1  23
TORSDOF 5
