REMARK  Name = ZINC39664587
REMARK  9 active torsions:
REMARK  status: ('A' for Active; 'I' for Inactive)
REMARK    1  A    between atoms: C_1  and  N_2
REMARK    2  A    between atoms: N_2  and  C_3
REMARK    3  A    between atoms: N_2  and  C_4
REMARK    4  A    between atoms: C_4  and  C_5
REMARK    5  A    between atoms: C_5  and  C_7
REMARK    6  A    between atoms: C_5  and  N_13
REMARK    7  A    between atoms: C_14  and  C_16
REMARK    8  A    between atoms: C_27  and  C_29
REMARK    9  A    between atoms: C_34  and  C_35
REMARK                            x       y       z     vdW  Elec       q    Type
REMARK                         _______ _______ _______ _____ _____    ______ ____
ROOT
ATOM      1  C   UNL     1       1.548  -2.612  -3.095  0.00  0.00    +0.100 C 
ATOM      2  C   UNL     1       0.636  -3.841  -3.308  0.00  0.00    +0.121 C 
ATOM      3  N   UNL     1       1.561  -4.928  -3.710  0.00  0.00    -0.296 N 
ATOM      4  C   UNL     1       2.756  -4.729  -2.856  0.00  0.00    +0.115 C 
ATOM      5  C   UNL     1       2.938  -3.199  -2.797  0.00  0.00    -0.004 C 
ATOM      6  C   UNL     1       3.404  -2.777  -1.407  0.00  0.00    -0.010 C 
ATOM      7  C   UNL     1       4.812  -3.324  -1.157  0.00  0.00    -0.082 C 
ATOM      8  N   UNL     1       5.729  -2.805  -2.180  0.00  0.00    +0.379 N 
ATOM      9  C   UNL     1       5.327  -3.293  -3.505  0.00  0.00    -0.082 C 
ATOM     10  C   UNL     1       3.941  -2.745  -3.854  0.00  0.00    -0.010 C 
ATOM     11  C   UNL     1       1.360  -5.882  -4.641  0.00  0.00    +0.247 C 
ATOM     12  O   UNL     1       2.184  -6.761  -4.798  0.00  0.00    -0.270 OA
ATOM     13  H   UNL     1       5.704  -1.797  -2.172  0.00  0.00    -0.086 HD
ATOM     14  H   UNL     1       6.667  -3.117  -1.978  0.00  0.00    -0.086 HD
ENDROOT
BRANCH  11  15
ATOM     15  C   UNL     1       0.137  -5.859  -5.471  0.00  0.00    +0.049 A 
ATOM     16  C   UNL     1      -1.095  -5.539  -4.896  0.00  0.00    +0.013 A 
ATOM     17  C   UNL     1      -2.232  -5.518  -5.676  0.00  0.00    +0.001 A 
ATOM     18  C   UNL     1      -2.155  -5.815  -7.025  0.00  0.00    +0.001 A 
ATOM     19  C   UNL     1      -0.938  -6.133  -7.601  0.00  0.00    +0.013 A 
ATOM     20  C   UNL     1       0.208  -6.151  -6.833  0.00  0.00    +0.067 A 
BRANCH  20  21
ATOM     21  C   UNL     1       1.534  -6.492  -7.463  0.00  0.00    +0.418 C 
ATOM     22  F   UNL     1       1.351  -6.744  -8.827  0.00  0.00    -0.166 F 
ATOM     23  F   UNL     1       2.417  -5.419  -7.302  0.00  0.00    -0.166 F 
ATOM     24  F   UNL     1       2.065  -7.630  -6.846  0.00  0.00    -0.166 F 
ENDBRANCH  20  21
ENDBRANCH  11  15
BRANCH   1  26
ATOM     25  N   UNL     1       0.810  -2.394  -0.744  0.00  0.00    -0.310 N 
ATOM     26  C   UNL     1       1.062  -1.796  -1.925  0.00  0.00    +0.219 C 
ATOM     27  O   UNL     1       0.898  -0.600  -2.047  0.00  0.00    -0.275 OA
ATOM     28  H   UNL     1       1.013  -3.335  -0.624  0.00  0.00    +0.149 HD
BRANCH  25  29
ATOM     29  C   UNL     1       0.228  -1.623   0.358  0.00  0.00    +0.087 C 
BRANCH  29  30
ATOM     30  C   UNL     1       0.780  -2.124   1.667  0.00  0.00    -0.029 A 
ATOM     31  C   UNL     1       0.966  -3.480   1.866  0.00  0.00    +0.005 A 
ATOM     32  C   UNL     1       1.472  -3.939   3.067  0.00  0.00    +0.000 A 
ATOM     33  C   UNL     1       1.793  -3.044   4.070  0.00  0.00    +0.000 A 
ATOM     34  C   UNL     1       1.609  -1.688   3.871  0.00  0.00    +0.000 A 
ATOM     35  C   UNL     1       1.106  -1.228   2.668  0.00  0.00    +0.005 A 
ENDBRANCH  29  30
BRANCH  29  36
ATOM     36  C   UNL     1      -1.293  -1.788   0.349  0.00  0.00    -0.052 C 
BRANCH  36  38
ATOM     37  C   UNL     1      -3.255  -1.662  -1.025  0.00  0.00    -0.097 C 
ATOM     38  N   UNL     1      -1.828  -1.322  -0.937  0.00  0.00    +0.377 N 
ATOM     39  C   UNL     1      -1.664   0.134  -1.038  0.00  0.00    -0.097 C 
ATOM     40  H   UNL     1      -1.329  -1.770  -1.691  0.00  0.00    -0.083 HD
ENDBRANCH  36  38
ENDBRANCH  29  36
ENDBRANCH  25  29
ENDBRANCH   1  26
TORSDOF 7
