REMARK  Name = ZINC13575215
REMARK  8 active torsions:
REMARK  status: ('A' for Active; 'I' for Inactive)
REMARK    1  A    between atoms: C_1  and  C_2
REMARK    2  A    between atoms: C_2  and  C_35
REMARK    3  A    between atoms: C_5  and  C_27
REMARK    4  A    between atoms: C_9  and  C_20
REMARK    5  A    between atoms: N_12  and  C_19
REMARK    6  A    between atoms: N_15  and  C_18
REMARK    7  A    between atoms: C_30  and  O_34
REMARK    8  A    between atoms: C_32  and  O_33
REMARK                            x       y       z     vdW  Elec       q    Type
REMARK                         _______ _______ _______ _____ _____    ______ ____
ROOT
ATOM      1  C   UNL     1      -0.225   2.718  -1.398  0.00  0.00    +0.036 C 
ATOM      2  C   UNL     1      -0.753   1.285  -1.308  0.00  0.00    +0.064 C 
ATOM      3  C   UNL     1       0.005   0.522  -0.216  0.00  0.00    +0.189 C 
ATOM      4  O   UNL     1      -0.376   1.018   1.070  0.00  0.00    -0.363 OA
ATOM      5  C   UNL     1      -1.708   0.662   1.461  0.00  0.00    +0.200 C 
ATOM      6  C   UNL     1      -2.637   1.018   0.321  0.00  0.00    +0.078 A 
ATOM      7  N   UNL     1      -2.178   1.304  -0.952  0.00  0.00    -0.331 N 
ATOM      8  C   UNL     1      -3.223   1.593  -1.777  0.00  0.00    +0.064 A 
ATOM      9  C   UNL     1      -4.374   1.493  -1.038  0.00  0.00    +0.089 A 
ATOM     10  C   UNL     1      -3.961   1.114   0.336  0.00  0.00    +0.083 A 
ATOM     11  N   UNL     1      -4.949   0.939   1.316  0.00  0.00    -0.294 N 
ATOM     12  C   UNL     1      -6.233   1.131   0.941  0.00  0.00    +0.332 A 
ATOM     13  O   UNL     1      -7.090   0.980   1.790  0.00  0.00    -0.246 OA
ATOM     14  N   UNL     1      -6.641   1.474  -0.285  0.00  0.00    -0.263 N 
ATOM     15  C   UNL     1      -5.800   1.675  -1.333  0.00  0.00    +0.266 A 
ATOM     16  O   UNL     1      -6.201   1.986  -2.438  0.00  0.00    -0.267 OA
ATOM     17  C   UNL     1      -8.078   1.640  -0.513  0.00  0.00    +0.157 C 
ATOM     18  C   UNL     1      -4.603   0.565   2.690  0.00  0.00    +0.154 C 
ATOM     19  C   UNL     1      -0.567   0.581  -2.654  0.00  0.00    +0.036 C 
ENDROOT
BRANCH   8  20
ATOM     20  C   UNL     1      -3.132   1.949  -3.206  0.00  0.00    -0.001 A 
ATOM     21  C   UNL     1      -3.645   1.087  -4.178  0.00  0.00    +0.011 A 
ATOM     22  C   UNL     1      -3.563   1.428  -5.511  0.00  0.00    +0.020 A 
ATOM     23  C   UNL     1      -2.963   2.618  -5.889  0.00  0.00    +0.041 A 
ATOM     24  C   UNL     1      -2.447   3.475  -4.931  0.00  0.00    +0.020 A 
ATOM     25  C   UNL     1      -2.528   3.148  -3.594  0.00  0.00    +0.011 A 
ATOM     26 CL   UNL     1      -2.857   3.038  -7.570  0.00  0.00    -0.084 Cl
ENDBRANCH   8  20
BRANCH   5  27
ATOM     27  C   UNL     1      -2.100   1.430   2.697  0.00  0.00    +0.029 A 
ATOM     28  C   UNL     1      -2.595   2.715   2.583  0.00  0.00    +0.014 A 
ATOM     29  C   UNL     1      -2.955   3.421   3.714  0.00  0.00    +0.046 A 
ATOM     30  C   UNL     1      -2.821   2.842   4.968  0.00  0.00    +0.120 A 
ATOM     31  C   UNL     1      -2.324   1.553   5.085  0.00  0.00    +0.091 A 
ATOM     32  C   UNL     1      -1.968   0.844   3.948  0.00  0.00    +0.126 A 
BRANCH  32  33
ATOM     33  O   UNL     1      -1.486  -0.422   4.058  0.00  0.00    -0.506 OA
ATOM     34  H   UNL     1      -0.535  -0.467   4.229  0.00  0.00    +0.292 HD
ENDBRANCH  32  33
BRANCH  30  35
ATOM     35  O   UNL     1      -3.176   3.537   6.081  0.00  0.00    -0.507 OA
ATOM     36  H   UNL     1      -4.099   3.416   6.342  0.00  0.00    +0.292 HD
ENDBRANCH  30  35
ENDBRANCH   5  27
TORSDOF 4
