REMARK  Name = ZINC64363658
REMARK  6 active torsions:
REMARK  status: ('A' for Active; 'I' for Inactive)
REMARK    1  A    between atoms: C_1  and  C_2
REMARK    2  A    between atoms: C_2  and  C_3
REMARK    3  A    between atoms: C_2  and  C_4
REMARK    4  A    between atoms: C_7  and  C_31
REMARK    5  A    between atoms: C_10  and  C_12
REMARK    6  A    between atoms: C_14  and  C_25
REMARK                            x       y       z     vdW  Elec       q    Type
REMARK                         _______ _______ _______ _____ _____    ______ ____
ROOT
ATOM      1  C   UNL     1      -1.034  -0.154   0.189  0.00  0.00    +0.238 C 
ATOM      2  O   UNL     1      -1.331  -0.786   1.181  0.00  0.00    -0.274 OA
ATOM      3  N   UNL     1      -1.958   0.077  -0.765  0.00  0.00    -0.185 N 
ATOM      4  C   UNL     1      -3.360  -0.373  -0.729  0.00  0.00    +0.137 C 
ATOM      5  C   UNL     1      -3.937   0.165  -2.054  0.00  0.00    +0.083 C 
ATOM      6  C   UNL     1      -2.766   0.872  -2.698  0.00  0.00    +0.055 C 
ATOM      7  N   UNL     1      -1.747   0.786  -1.946  0.00  0.00    -0.185 NA
ENDROOT
BRANCH   6   8
ATOM      8  C   UNL     1      -2.804   1.578  -4.029  0.00  0.00    +0.152 C 
ATOM      9  C   UNL     1      -1.382   1.954  -4.397  0.00  0.00    -0.014 C 
ATOM     10  C   UNL     1      -1.121   3.309  -4.618  0.00  0.00    +0.002 A 
ATOM     11  C   UNL     1       0.175   3.746  -4.965  0.00  0.00    +0.030 A 
ATOM     12  C   UNL     1       0.402   5.072  -5.175  0.00  0.00    +0.042 A 
ATOM     13  C   UNL     1      -0.622   6.010  -5.052  0.00  0.00    +0.022 A 
ATOM     14  C   UNL     1      -1.892   5.648  -4.720  0.00  0.00    +0.025 A 
ATOM     15  C   UNL     1      -2.199   4.295  -4.489  0.00  0.00    +0.041 A 
ATOM     16  N   UNL     1      -3.447   3.942  -4.163  0.00  0.00    -0.284 N 
ATOM     17  C   UNL     1      -3.815   2.698  -3.931  0.00  0.00    +0.230 C 
ATOM     18  O   UNL     1      -4.970   2.451  -3.639  0.00  0.00    -0.274 OA
ATOM     19 CL   UNL     1       1.998   5.604  -5.602  0.00  0.00    -0.084 Cl
ATOM     20  H   UNL     1      -4.118   4.640  -4.093  0.00  0.00    +0.155 HD
BRANCH   9  21
ATOM     21  C   UNL     1      -0.363   0.975  -4.513  0.00  0.00    -0.020 A 
ATOM     22  C   UNL     1       0.758   1.019  -3.669  0.00  0.00    +0.008 A 
ATOM     23  C   UNL     1       1.742   0.063  -3.789  0.00  0.00    +0.001 A 
ATOM     24  C   UNL     1       1.629  -0.940  -4.739  0.00  0.00    +0.000 A 
ATOM     25  C   UNL     1       0.526  -0.992  -5.576  0.00  0.00    +0.001 A 
ATOM     26  C   UNL     1      -0.471  -0.049  -5.468  0.00  0.00    +0.008 A 
ENDBRANCH   9  21
ENDBRANCH   6   8
BRANCH   4  27
ATOM     27  C   UNL     1      -3.434  -1.877  -0.684  0.00  0.00    -0.021 A 
ATOM     28  C   UNL     1      -2.541  -2.634  -1.419  0.00  0.00    +0.009 A 
ATOM     29  C   UNL     1      -2.605  -4.015  -1.380  0.00  0.00    +0.050 A 
ATOM     30  C   UNL     1      -3.566  -4.643  -0.605  0.00  0.00    +0.166 A 
ATOM     31  C   UNL     1      -4.466  -3.880   0.136  0.00  0.00    +0.167 A 
ATOM     32  C   UNL     1      -4.392  -2.497   0.097  0.00  0.00    +0.055 A 
ATOM     33  O   UNL     1      -5.303  -4.723   0.808  0.00  0.00    -0.453 OA
ATOM     34  C   UNL     1      -5.169  -5.999   0.154  0.00  0.00    +0.466 C 
ATOM     35  O   UNL     1      -3.839  -5.964  -0.396  0.00  0.00    -0.453 OA
ENDBRANCH   4  27
BRANCH   1  37
ATOM     36  C   UNL     1       0.328   1.899  -0.091  0.00  0.00    +0.017 C 
ATOM     37  C   UNL     1       0.368   0.374   0.024  0.00  0.00    +0.071 C 
ATOM     38  C   UNL     1       1.209  -0.025   1.238  0.00  0.00    +0.017 C 
ENDBRANCH   1  37
TORSDOF 4
