REMARK  Name = ZINC01412071
REMARK  4 active torsions:
REMARK  status: ('A' for Active; 'I' for Inactive)
REMARK    1  A    between atoms: C_6  and  C_7
REMARK    2  A    between atoms: N_12  and  C_13
REMARK    3  A    between atoms: C_13  and  C_19
REMARK    4  A    between atoms: N_21  and  C_22
REMARK                            x       y       z     vdW  Elec       q    Type
REMARK                         _______ _______ _______ _____ _____    ______ ____
ROOT
ATOM      1  C   UNL     1      -1.592   5.995  -1.957  0.00  0.00    +0.114 C 
ATOM      2  C   UNL     1      -0.421   6.454  -2.829  0.00  0.00    +0.035 C 
ATOM      3  C   UNL     1      -0.095   7.916  -2.518  0.00  0.00    +0.003 C 
ATOM      4  C   UNL     1      -1.320   8.785  -2.809  0.00  0.00    +0.000 C 
ATOM      5  C   UNL     1      -2.490   8.327  -1.937  0.00  0.00    +0.003 C 
ATOM      6  C   UNL     1      -2.817   6.865  -2.249  0.00  0.00    +0.035 C 
ENDROOT
BRANCH   1  11
ATOM      7  C   UNL     1      -1.107   5.138   0.545  0.00  0.00    +0.116 C 
ATOM      8  C   UNL     1      -0.711   6.319   1.445  0.00  0.00    +0.123 C 
ATOM      9  C   UNL     1      -0.881   7.193   0.219  0.00  0.00    +0.219 C 
ATOM     10  O   UNL     1      -0.757   8.380   0.003  0.00  0.00    -0.275 OA
ATOM     11  N   UNL     1      -1.227   6.124  -0.544  0.00  0.00    -0.280 N 
BRANCH   7  17
ATOM     12  C   UNL     1      -2.423   3.272   1.570  0.00  0.00    +0.008 A 
ATOM     13  C   UNL     1      -3.623   2.683   1.922  0.00  0.00    +0.038 A 
ATOM     14  C   UNL     1      -4.817   3.320   1.632  0.00  0.00    +0.123 A 
ATOM     15  C   UNL     1      -4.809   4.543   0.985  0.00  0.00    +0.038 A 
ATOM     16  C   UNL     1      -3.608   5.133   0.638  0.00  0.00    +0.008 A 
ATOM     17  C   UNL     1      -2.416   4.496   0.928  0.00  0.00    -0.026 A 
ATOM     18  F   UNL     1      -5.991   2.744   1.976  0.00  0.00    -0.205 F 
ENDBRANCH   7  17
ENDBRANCH   1  11
BRANCH   1  19
ATOM     19  C   UNL     1      -1.913   4.556  -2.264  0.00  0.00    +0.241 C 
ATOM     20  O   UNL     1      -2.946   4.273  -2.833  0.00  0.00    -0.273 OA
ATOM     21  N   UNL     1      -1.053   3.582  -1.906  0.00  0.00    -0.284 N 
ATOM     22  H   UNL     1      -0.218   3.809  -1.468  0.00  0.00    +0.155 HD
BRANCH  21  23
ATOM     23  C   UNL     1      -1.365   2.241  -2.166  0.00  0.00    +0.037 A 
ATOM     24  C   UNL     1      -2.189   1.915  -3.235  0.00  0.00    +0.027 A 
ATOM     25  C   UNL     1      -2.492   0.592  -3.496  0.00  0.00    +0.051 A 
ATOM     26  C   UNL     1      -1.985  -0.411  -2.686  0.00  0.00    +0.166 A 
ATOM     27  C   UNL     1      -1.163  -0.086  -1.609  0.00  0.00    +0.168 A 
ATOM     28  C   UNL     1      -0.854   1.239  -1.352  0.00  0.00    +0.072 A 
ATOM     29  O   UNL     1      -0.799  -1.239  -0.975  0.00  0.00    -0.453 OA
ATOM     30  C   UNL     1      -1.072  -2.297  -1.913  0.00  0.00    +0.466 C 
ATOM     31  O   UNL     1      -2.136  -1.768  -2.725  0.00  0.00    -0.453 OA
ENDBRANCH  21  23
ENDBRANCH   1  19
TORSDOF 4
