REMARK  Name = ZINC35283823
REMARK  4 active torsions:
REMARK  status: ('A' for Active; 'I' for Inactive)
REMARK    1  A    between atoms: C_4  and  N_8
REMARK    2  A    between atoms: N_8  and  S_9
REMARK    3  A    between atoms: S_9  and  C_12
REMARK    4  A    between atoms: C_13  and  N_20
REMARK                            x       y       z     vdW  Elec       q    Type
REMARK                         _______ _______ _______ _____ _____    ______ ____
ROOT
ATOM      1  S   UNL     1       3.558  -2.698  -0.029  0.00  0.00    +0.095 S 
ATOM      2  O   UNL     1       3.117  -3.025   1.281  0.00  0.00    -0.148 OA
ATOM      3  O   UNL     1       3.026  -3.323  -1.190  0.00  0.00    -0.148 OA
ENDROOT
BRANCH   1   4
ATOM      4  C   UNL     1       5.297  -2.977  -0.059  0.00  0.00    +0.149 A 
ATOM      5  C   UNL     1       5.963  -3.090  -1.273  0.00  0.00    +0.054 A 
ATOM      6  C   UNL     1       7.334  -3.309  -1.293  0.00  0.00    +0.044 A 
ATOM      7  C   UNL     1       8.033  -3.414  -0.105  0.00  0.00    +0.044 A 
ATOM      8  C   UNL     1       7.368  -3.301   1.103  0.00  0.00    +0.042 A 
ATOM      9  C   UNL     1       6.002  -3.077   1.125  0.00  0.00    +0.071 A 
ATOM     10 CL   UNL     1       5.173  -2.929   2.643  0.00  0.00    -0.081 Cl
ATOM     11 CL   UNL     1       9.747  -3.688  -0.129  0.00  0.00    -0.083 Cl
BRANCH   5  12
ATOM     12  N   UNL     1       5.254  -2.983  -2.472  0.00  0.00    -0.356 N 
ATOM     13  H   UNL     1       4.346  -2.642  -2.470  0.00  0.00    +0.142 HD
ATOM     14  H   UNL     1       5.669  -3.252  -3.307  0.00  0.00    +0.142 HD
ENDBRANCH   5  12
ENDBRANCH   1   4
BRANCH   1  15
ATOM     15  N   UNL     1       3.319  -1.070  -0.217  0.00  0.00    -0.095 NA
BRANCH  15  19
ATOM     16  C   UNL     1      -0.549   0.478  -0.264  0.00  0.00    +0.023 A 
ATOM     17  C   UNL     1       0.534   1.326  -0.405  0.00  0.00    +0.042 A 
ATOM     18  C   UNL     1       1.819   0.817  -0.390  0.00  0.00    +0.148 A 
ATOM     19  C   UNL     1       2.021  -0.551  -0.232  0.00  0.00    +0.111 A 
ATOM     20  C   UNL     1       0.931  -1.398  -0.091  0.00  0.00    +0.049 A 
ATOM     21  C   UNL     1      -0.351  -0.882  -0.107  0.00  0.00    +0.043 A 
ATOM     22 CL   UNL     1      -1.715  -1.942   0.070  0.00  0.00    -0.083 Cl
ATOM     23  F   UNL     1       2.877   1.645  -0.528  0.00  0.00    -0.203 F 
ENDBRANCH  15  19
ENDBRANCH   1  15
TORSDOF 4
