REMARK  Name = ZINC36032822
REMARK  10 active torsions:
REMARK  status: ('A' for Active; 'I' for Inactive)
REMARK    1  A    between atoms: C_1  and  C_2
REMARK    2  A    between atoms: C_5  and  S_8
REMARK    3  A    between atoms: S_8  and  N_11
REMARK    4  A    between atoms: C_18  and  C_34
REMARK    5  A    between atoms: N_22  and  C_23
REMARK    6  A    between atoms: C_23  and  C_24
REMARK    7  A    between atoms: C_28  and  C_30
REMARK    8  A    between atoms: C_34  and  C_35
REMARK    9  A    between atoms: C_35  and  C_36
REMARK   10  A    between atoms: C_35  and  C_37
REMARK                            x       y       z     vdW  Elec       q    Type
REMARK                         _______ _______ _______ _____ _____    ______ ____
ROOT
ATOM      1  N   UNL     1       3.198  -3.981  -0.205  0.00  0.00    -0.177 NA
ATOM      2  C   UNL     1       2.928  -4.746  -1.430  0.00  0.00    +0.109 C 
ATOM      3  C   UNL     1       4.250  -4.971  -2.172  0.00  0.00    +0.023 C 
ATOM      4  C   UNL     1       5.258  -5.620  -1.225  0.00  0.00    +0.006 C 
ATOM      5  C   UNL     1       5.519  -4.713  -0.024  0.00  0.00    +0.023 C 
ATOM      6  C   UNL     1       4.211  -4.483   0.733  0.00  0.00    +0.109 C 
ATOM      7  N   UNL     1       6.525  -5.875  -1.943  0.00  0.00    +0.401 N 
ATOM      8  C   UNL     1       6.358  -7.263  -2.437  0.00  0.00    +0.019 C 
ATOM      9  C   UNL     1       5.386  -7.903  -1.469  0.00  0.00    +0.201 C 
ATOM     10  O   UNL     1       5.198  -9.094  -1.339  0.00  0.00    -0.277 OA
ATOM     11  N   UNL     1       4.765  -6.926  -0.777  0.00  0.00    -0.309 N 
ATOM     12  H   UNL     1       6.633  -5.232  -2.713  0.00  0.00    -0.082 HD
ATOM     13  H   UNL     1       7.310  -5.812  -1.312  0.00  0.00    -0.082 HD
ENDROOT
BRANCH   1  14
ATOM     14  S   UNL     1       2.380  -2.576   0.109  0.00  0.00    +0.061 S 
ATOM     15  O   UNL     1       2.425  -2.386   1.517  0.00  0.00    -0.153 OA
ATOM     16  O   UNL     1       1.157  -2.648  -0.611  0.00  0.00    -0.153 OA
BRANCH  14  21
ATOM     17  C   UNL     1       5.558   1.929  -2.342  0.00  0.00    +0.044 C 
ATOM     18  C   UNL     1       4.765   0.804  -1.730  0.00  0.00    -0.050 A 
ATOM     19  C   UNL     1       3.792   0.161  -2.472  0.00  0.00    +0.005 A 
ATOM     20  C   UNL     1       3.063  -0.872  -1.910  0.00  0.00    +0.029 A 
ATOM     21  C   UNL     1       3.309  -1.261  -0.607  0.00  0.00    +0.105 A 
ATOM     22  C   UNL     1       4.282  -0.619   0.135  0.00  0.00    +0.029 A 
ATOM     23  C   UNL     1       5.013   0.410  -0.428  0.00  0.00    +0.005 A 
ENDBRANCH  14  21
ENDBRANCH   1  14
BRANCH  11  24
ATOM     24  C   UNL     1       3.754  -7.137   0.262  0.00  0.00    +0.141 C 
BRANCH  24  25
ATOM     25  C   UNL     1       4.430  -7.556   1.542  0.00  0.00    -0.030 A 
ATOM     26  C   UNL     1       5.485  -8.449   1.507  0.00  0.00    +0.005 A 
ATOM     27  C   UNL     1       6.104  -8.834   2.681  0.00  0.00    +0.001 A 
ATOM     28  C   UNL     1       5.669  -8.325   3.891  0.00  0.00    +0.012 A 
ATOM     29  C   UNL     1       4.615  -7.432   3.926  0.00  0.00    +0.055 A 
ATOM     30  C   UNL     1       3.998  -7.044   2.751  0.00  0.00    +0.017 A 
BRANCH  29  31
ATOM     31  C   UNL     1       4.141  -6.878   5.245  0.00  0.00    +0.417 C 
ATOM     32  F   UNL     1       4.915  -7.411   6.280  0.00  0.00    -0.166 F 
ATOM     33  F   UNL     1       4.266  -5.485   5.238  0.00  0.00    -0.166 F 
ATOM     34  F   UNL     1       2.799  -7.224   5.440  0.00  0.00    -0.166 F 
ENDBRANCH  29  31
ENDBRANCH  24  25
ENDBRANCH  11  24
BRANCH   8  35
ATOM     35  C   UNL     1       7.699  -8.000  -2.416  0.00  0.00    -0.004 C 
BRANCH  35  36
ATOM     36  C   UNL     1       8.671  -7.319  -3.381  0.00  0.00    -0.018 C 
ATOM     37  C   UNL     1      10.040  -7.995  -3.288  0.00  0.00    +0.007 C 
ATOM     38  C   UNL     1       8.139  -7.438  -4.810  0.00  0.00    +0.007 C 
ENDBRANCH  35  36
ENDBRANCH   8  35
TORSDOF 7
