REMARK  Name = ZINC09274343
REMARK  8 active torsions:
REMARK  status: ('A' for Active; 'I' for Inactive)
REMARK    1  A    between atoms: C_1  and  O_2
REMARK    2  A    between atoms: O_2  and  C_3
REMARK    3  A    between atoms: C_12  and  C_13
REMARK    4  A    between atoms: C_21  and  C_29
REMARK    5  A    between atoms: C_23  and  C_24
REMARK    6  A    between atoms: C_23  and  C_26
REMARK    7  A    between atoms: C_31  and  C_32
REMARK    8  A    between atoms: C_31  and  N_61
REMARK                            x       y       z     vdW  Elec       q    Type
REMARK                         _______ _______ _______ _____ _____    ______ ____
ROOT
ATOM      1  C   UNL     1       2.691   1.061  -0.386  0.00  0.00    +0.068 C 
ATOM      2  C   UNL     1       2.609   0.166   0.852  0.00  0.00    +0.010 C 
ATOM      3  C   UNL     1       3.951  -0.426   1.216  0.00  0.00    -0.069 C 
ATOM      4  C   UNL     1       3.024  -2.645   1.384  0.00  0.00    -0.051 C 
ATOM      5  C   UNL     1       1.696  -2.140   0.878  0.00  0.00    -0.044 C 
ATOM      6  C   UNL     1       1.534  -0.857   0.618  0.00  0.00    -0.051 C 
ATOM      7  C   UNL     1       0.247  -0.367   0.064  0.00  0.00    +0.163 C 
ATOM      8  C   UNL     1       0.192   0.873  -0.486  0.00  0.00    +0.065 C 
ATOM      9  C   UNL     1       1.363   1.807  -0.541  0.00  0.00    +0.188 C 
ATOM     10  N   UNL     1      -0.995   1.292  -1.017  0.00  0.00    -0.304 NA
ATOM     11  H   UNL     1      -1.768   0.707  -0.998  0.00  0.00    +0.186 HD
ATOM     12  N   UNL     1       4.072  -1.816   0.748  0.00  0.00    +0.385 N 
ATOM     13  H   UNL     1       3.947  -1.839  -0.271  0.00  0.00    -0.081 HD
ENDROOT
BRANCH   1  23
ATOM     14  C   UNL     1       3.981   2.701   0.976  0.00  0.00    +0.124 A 
ATOM     15  C   UNL     1       5.015   3.626   1.149  0.00  0.00    +0.046 A 
ATOM     16  C   UNL     1       5.877   3.909   0.136  0.00  0.00    +0.012 A 
ATOM     17  C   UNL     1       5.731   3.264  -1.105  0.00  0.00    -0.017 A 
ATOM     18  C   UNL     1       6.604   3.532  -2.172  0.00  0.00    +0.008 A 
ATOM     19  C   UNL     1       6.443   2.877  -3.355  0.00  0.00    +0.001 A 
ATOM     20  C   UNL     1       5.414   1.954  -3.530  0.00  0.00    +0.001 A 
ATOM     21  C   UNL     1       4.546   1.673  -2.520  0.00  0.00    +0.009 A 
ATOM     22  C   UNL     1       4.687   2.321  -1.281  0.00  0.00    -0.011 A 
ATOM     23  C   UNL     1       3.810   2.056  -0.216  0.00  0.00    +0.008 A 
BRANCH  14  25
ATOM     24  C   UNL     1       3.433   3.054   3.262  0.00  0.00    +0.277 C 
ATOM     25  O   UNL     1       3.135   2.440   2.007  0.00  0.00    -0.495 OA
ENDBRANCH  14  25
ENDBRANCH   1  23
BRANCH   9  26
ATOM     26  C   UNL     1       1.357   2.506  -1.837  0.00  0.00    +0.091 C 
ATOM     27  N   UNL     1       1.353   3.045  -2.837  0.00  0.00    -0.195 NA
ENDBRANCH   9  26
BRANCH   9  28
ATOM     28  C   UNL     1       1.235   2.801   0.537  0.00  0.00    +0.091 C 
ATOM     29  N   UNL     1       1.137   3.567   1.370  0.00  0.00    -0.195 NA
ENDBRANCH   9  28
BRANCH   7  30
ATOM     30  C   UNL     1      -0.922  -1.193   0.109  0.00  0.00    +0.076 C 
ATOM     31  N   UNL     1      -1.850  -1.848   0.145  0.00  0.00    -0.196 NA
ENDBRANCH   7  30
BRANCH  12  32
ATOM     32  C   UNL     1       5.412  -2.348   1.080  0.00  0.00    -0.043 C 
BRANCH  32  33
ATOM     33  C   UNL     1       5.429  -3.835   0.837  0.00  0.00    -0.064 A 
ATOM     34  C   UNL     1       5.105  -4.707   1.860  0.00  0.00    +0.002 A 
ATOM     35  C   UNL     1       5.115  -6.071   1.636  0.00  0.00    +0.000 A 
ATOM     36  C   UNL     1       5.460  -6.564   0.392  0.00  0.00    +0.000 A 
ATOM     37  C   UNL     1       5.790  -5.693  -0.630  0.00  0.00    +0.000 A 
ATOM     38  C   UNL     1       5.774  -4.329  -0.407  0.00  0.00    +0.002 A 
ENDBRANCH  32  33
ENDBRANCH  12  32
TORSDOF 7
