REMARK  Name = ZINC04005969
REMARK  14 active torsions:
REMARK  status: ('A' for Active; 'I' for Inactive)
REMARK    1  A    between atoms: C_4  and  N_24
REMARK    2  A    between atoms: C_5  and  N_7
REMARK    3  A    between atoms: N_7  and  C_8
REMARK    4  A    between atoms: C_10  and  O_23
REMARK    5  A    between atoms: C_12  and  O_22
REMARK    6  A    between atoms: C_14  and  O_21
REMARK    7  A    between atoms: C_16  and  C_19
REMARK    8  A    between atoms: C_19  and  O_20
REMARK    9  A    between atoms: N_24  and  C_25
REMARK   10  A    between atoms: C_27  and  O_40
REMARK   11  A    between atoms: C_29  and  O_39
REMARK   12  A    between atoms: C_31  and  O_38
REMARK   13  A    between atoms: C_33  and  C_36
REMARK   14  A    between atoms: C_36  and  O_37
REMARK                            x       y       z     vdW  Elec       q    Type
REMARK                         _______ _______ _______ _____ _____    ______ ____
ROOT
ATOM      1  C   UNL     1      -0.056   1.097  -0.690  0.00  0.00    +0.002 A 
ATOM      2  C   UNL     1       1.065   1.906  -0.670  0.00  0.00    +0.002 A 
ATOM      3  C   UNL     1       2.313   1.359  -0.440  0.00  0.00    +0.025 A 
ATOM      4  C   UNL     1       2.444  -0.005  -0.228  0.00  0.00    +0.050 A 
ATOM      5  C   UNL     1       1.313  -0.821  -0.248  0.00  0.00    +0.050 A 
ATOM      6  C   UNL     1       0.065  -0.264  -0.480  0.00  0.00    +0.025 A 
ENDROOT
BRANCH   5   7
ATOM      7  N   UNL     1       1.439  -2.199  -0.035  0.00  0.00    -0.316 N 
ATOM      8  H   UNL     1       2.303  -2.579   0.190  0.00  0.00    +0.149 HD
BRANCH   7   9
ATOM      9  C   UNL     1       0.265  -3.068  -0.152  0.00  0.00    +0.235 C 
ATOM     10  C   UNL     1       0.385  -4.226   0.843  0.00  0.00    +0.192 C 
ATOM     11  C   UNL     1      -0.815  -5.162   0.673  0.00  0.00    +0.178 C 
ATOM     12  C   UNL     1      -0.869  -5.646  -0.779  0.00  0.00    +0.177 C 
ATOM     13  C   UNL     1      -0.941  -4.434  -1.712  0.00  0.00    +0.177 C 
ATOM     14  O   UNL     1       0.188  -3.589  -1.480  0.00  0.00    -0.348 OA
BRANCH  12  15
ATOM     15  O   UNL     1       0.305  -6.407  -1.073  0.00  0.00    -0.386 OA
ATOM     16  H   UNL     1       0.416  -7.189  -0.515  0.00  0.00    +0.210 HD
ENDBRANCH  12  15
BRANCH  11  17
ATOM     17  O   UNL     1      -0.675  -6.283   1.548  0.00  0.00    -0.386 OA
ATOM     18  H   UNL     1      -0.628  -6.047   2.484  0.00  0.00    +0.210 HD
ENDBRANCH  11  17
BRANCH  10  19
ATOM     19  O   UNL     1       1.594  -4.946   0.593  0.00  0.00    -0.385 OA
ATOM     20  H   UNL     1       2.395  -4.412   0.679  0.00  0.00    +0.210 HD
ENDBRANCH  10  19
BRANCH  13  21
ATOM     21  C   UNL     1      -0.934  -4.908  -3.166  0.00  0.00    +0.190 C 
BRANCH  21  22
ATOM     22  O   UNL     1      -1.119  -3.787  -4.033  0.00  0.00    -0.392 OA
ATOM     23  H   UNL     1      -1.125  -4.013  -4.973  0.00  0.00    +0.210 HD
ENDBRANCH  21  22
ENDBRANCH  13  21
ENDBRANCH   7   9
ENDBRANCH   5   7
BRANCH   4  24
ATOM     24  N   UNL     1       3.708  -0.561   0.005  0.00  0.00    -0.316 N 
ATOM     25  H   UNL     1       3.789  -1.500   0.237  0.00  0.00    +0.149 HD
BRANCH  24  26
ATOM     26  C   UNL     1       4.907   0.274  -0.101  0.00  0.00    +0.235 C 
ATOM     27  C   UNL     1       6.070  -0.568  -0.633  0.00  0.00    +0.192 C 
ATOM     28  C   UNL     1       7.333   0.296  -0.684  0.00  0.00    +0.178 C 
ATOM     29  C   UNL     1       7.613   0.857   0.714  0.00  0.00    +0.177 C 
ATOM     30  C   UNL     1       6.390   1.643   1.193  0.00  0.00    +0.177 C 
ATOM     31  O   UNL     1       5.244   0.790   1.188  0.00  0.00    -0.348 OA
BRANCH  29  32
ATOM     32  O   UNL     1       7.874  -0.220   1.616  0.00  0.00    -0.386 OA
ATOM     33  H   UNL     1       8.634  -0.764   1.370  0.00  0.00    +0.210 HD
ENDBRANCH  29  32
BRANCH  28  34
ATOM     34  O   UNL     1       8.440  -0.500  -1.112  0.00  0.00    -0.386 OA
ATOM     35  H   UNL     1       8.327  -0.892  -1.989  0.00  0.00    +0.210 HD
ENDBRANCH  28  34
BRANCH  27  36
ATOM     36  O   UNL     1       5.758  -1.038  -1.946  0.00  0.00    -0.385 OA
ATOM     37  H   UNL     1       4.964  -1.590  -1.988  0.00  0.00    +0.210 HD
ENDBRANCH  27  36
BRANCH  30  38
ATOM     38  C   UNL     1       6.638   2.156   2.613  0.00  0.00    +0.190 C 
BRANCH  38  39
ATOM     39  O   UNL     1       5.548   2.987   3.017  0.00  0.00    -0.392 OA
ATOM     40  H   UNL     1       5.638   3.348   3.909  0.00  0.00    +0.210 HD
ENDBRANCH  38  39
ENDBRANCH  30  38
ENDBRANCH  24  26
ENDBRANCH   4  24
TORSDOF 14
