REMARK  Name = ZINC66498043
REMARK  4 active torsions:
REMARK  status: ('A' for Active; 'I' for Inactive)
REMARK    1  A    between atoms: C_6  and  C_7
REMARK    2  A    between atoms: C_7  and  N_12
REMARK    3  A    between atoms: N_12  and  C_13
REMARK    4  A    between atoms: C_13  and  C_14
REMARK                            x       y       z     vdW  Elec       q    Type
REMARK                         _______ _______ _______ _____ _____    ______ ____
ROOT
ATOM      1  N   UNL     1      -2.305  -0.049   0.789  0.00  0.00    -0.301 NA
ATOM      2  H   UNL     1      -3.129  -0.615   0.926  0.00  0.00    +0.123 HD
ENDROOT
BRANCH   1   3
ATOM      3  C   UNL     1      -1.291  -0.774   0.012  0.00  0.00    +0.045 C 
ATOM      4  C   UNL     1      -1.779  -0.978  -1.437  0.00  0.00    +0.027 C 
ATOM      5  C   UNL     1      -1.259  -2.386  -1.818  0.00  0.00    +0.002 C 
ATOM      6  C   UNL     1      -1.442  -3.185  -0.504  0.00  0.00    +0.002 C 
ATOM      7  C   UNL     1      -1.077  -2.177   0.606  0.00  0.00    +0.027 C 
BRANCH   3  13
ATOM      8  C   UNL     1       0.303   0.843   1.065  0.00  0.00    +0.007 A 
ATOM      9  C   UNL     1       1.494   1.546   1.070  0.00  0.00    +0.020 A 
ATOM     10  C   UNL     1       2.389   1.397   0.026  0.00  0.00    +0.041 A 
ATOM     11  C   UNL     1       2.092   0.545  -1.023  0.00  0.00    +0.020 A 
ATOM     12  C   UNL     1       0.901  -0.157  -1.027  0.00  0.00    +0.007 A 
ATOM     13  C   UNL     1       0.007  -0.008   0.017  0.00  0.00    -0.027 A 
ATOM     14 CL   UNL     1       3.884   2.280   0.031  0.00  0.00    -0.084 Cl
ENDBRANCH   3  13
ENDBRANCH   1   3
BRANCH   1  15
ATOM     15  C   UNL     1      -2.646   1.228   0.147  0.00  0.00    +0.135 C 
BRANCH  15  16
ATOM     16  C   UNL     1      -3.591   1.999   1.032  0.00  0.00    +0.037 A 
ATOM     17  C   UNL     1      -3.204   3.176   1.574  0.00  0.00    +0.094 A 
ATOM     18  C   UNL     1      -4.091   3.894   2.401  0.00  0.00    +0.275 A 
ATOM     19  O   UNL     1      -3.747   4.955   2.891  0.00  0.00    -0.266 OA
ATOM     20  N   UNL     1      -5.322   3.404   2.648  0.00  0.00    -0.180 N 
ATOM     21  C   UNL     1      -5.707   2.215   2.098  0.00  0.00    +0.138 A 
ATOM     22  N   UNL     1      -4.839   1.512   1.283  0.00  0.00    -0.342 N 
ATOM     23  H   UNL     1      -5.118   0.670   0.891  0.00  0.00    +0.167 HD
ATOM     24  C   UNL     1      -6.981   1.968   2.512  0.00  0.00    +0.068 A 
ATOM     25  C   UNL     1      -7.379   3.027   3.329  0.00  0.00    +0.137 A 
ATOM     26  N   UNL     1      -6.392   3.885   3.412  0.00  0.00    -0.170 NA
ENDBRANCH  15  16
ENDBRANCH   1  15
TORSDOF 4
