REMARK  Name = ZINC26599766
REMARK  5 active torsions:
REMARK  status: ('A' for Active; 'I' for Inactive)
REMARK    1  A    between atoms: C_1  and  C_2
REMARK    2  A    between atoms: C_2  and  C_3
REMARK    3  A    between atoms: C_3  and  C_4
REMARK    4  A    between atoms: C_4  and  N_5
REMARK    5  A    between atoms: C_11  and  C_21
REMARK                            x       y       z     vdW  Elec       q    Type
REMARK                         _______ _______ _______ _____ _____    ______ ____
ROOT
ATOM      1  N   UNL     1       1.513  -2.268   2.537  0.00  0.00    -0.222 N 
ATOM      2  C   UNL     1       2.849  -2.448   2.482  0.00  0.00    +0.261 C 
ATOM      3  O   UNL     1       3.503  -1.992   1.563  0.00  0.00    -0.269 OA
ATOM      4  C   UNL     1       3.494  -3.210   3.565  0.00  0.00    +0.116 C 
ATOM      5  C   UNL     1       4.859  -3.434   3.575  0.00  0.00    +0.027 C 
ATOM      6  C   UNL     1       5.428  -3.819   4.895  0.00  0.00    +0.071 C 
ATOM      7  C   UNL     1       6.775  -3.201   5.139  0.00  0.00    +0.094 C 
ATOM      8  S   UNL     1       8.088  -3.924   4.168  0.00  0.00    -0.114 S 
ATOM      9  C   UNL     1       7.912  -3.384   2.516  0.00  0.00    +0.030 A 
ATOM     10  C   UNL     1       9.097  -3.194   1.791  0.00  0.00    +0.016 A 
ATOM     11  C   UNL     1       9.084  -2.769   0.484  0.00  0.00    +0.001 A 
ATOM     12  C   UNL     1       7.872  -2.522  -0.137  0.00  0.00    +0.002 A 
ATOM     13  C   UNL     1       6.702  -2.704   0.559  0.00  0.00    +0.024 A 
ATOM     14  C   UNL     1       6.696  -3.140   1.895  0.00  0.00    +0.045 A 
ATOM     15  N   UNL     1       5.449  -3.282   2.442  0.00  0.00    -0.316 N 
ATOM     16  C   UNL     1       2.622  -3.724   4.636  0.00  0.00    +0.258 C 
ATOM     17  O   UNL     1       3.083  -4.362   5.564  0.00  0.00    -0.270 OA
ATOM     18  N   UNL     1       1.300  -3.467   4.560  0.00  0.00    -0.235 N 
ATOM     19  C   UNL     1       0.781  -2.760   3.546  0.00  0.00    +0.315 C 
ATOM     20  O   UNL     1      -0.418  -2.560   3.539  0.00  0.00    -0.252 OA
ATOM     21  H   UNL     1       4.784  -3.256   1.736  0.00  0.00    +0.152 HD
ATOM     22  H   UNL     1       0.713  -3.798   5.257  0.00  0.00    +0.159 HD
ENDROOT
BRANCH   7  23
ATOM     23  C   UNL     1       7.118  -3.357   6.598  0.00  0.00    +0.003 A 
ATOM     24  C   UNL     1       7.365  -2.399   7.524  0.00  0.00    +0.012 A 
ATOM     25  C   UNL     1       7.663  -2.779   8.820  0.00  0.00    +0.008 A 
ATOM     26  C   UNL     1       7.698  -4.099   9.126  0.00  0.00    +0.045 A 
ATOM     27  S   UNL     1       7.297  -4.852   7.558  0.00  0.00    -0.100 S 
ENDBRANCH   7  23
BRANCH   1  28
ATOM     28  C   UNL     1       0.847  -1.513   1.472  0.00  0.00    +0.118 C 
BRANCH  28  29
ATOM     29  C   UNL     1       0.816  -0.029   1.842  0.00  0.00    +0.019 C 
BRANCH  29  31
ATOM     30  C   UNL     1       0.090   2.244   1.101  0.00  0.00    +0.004 C 
ATOM     31  C   UNL     1       0.121   0.759   0.731  0.00  0.00    -0.002 C 
ENDBRANCH  29  31
ENDBRANCH  28  29
ENDBRANCH   1  28
TORSDOF 4
