REMARK  Name = ZINC09382102
REMARK  7 active torsions:
REMARK  status: ('A' for Active; 'I' for Inactive)
REMARK    1  A    between atoms: C_3  and  C_11
REMARK    2  A    between atoms: C_5  and  C_7
REMARK    3  A    between atoms: C_11  and  S_12
REMARK    4  A    between atoms: S_12  and  C_13
REMARK    5  A    between atoms: C_16  and  C_25
REMARK    6  A    between atoms: N_17  and  C_18
REMARK    7  A    between atoms: C_25  and  C_26
REMARK                            x       y       z     vdW  Elec       q    Type
REMARK                         _______ _______ _______ _____ _____    ______ ____
ROOT
ATOM      1  C   UNL     1      -0.116   7.695  -1.375  0.00  0.00    +0.196 A 
ATOM      2  N   UNL     1      -0.118   8.286  -0.203  0.00  0.00    -0.122 NA
ATOM      3  N   UNL     1      -0.132   9.562  -0.356  0.00  0.00    -0.133 NA
ATOM      4  C   UNL     1      -0.148   9.862  -1.624  0.00  0.00    +0.144 A 
ATOM      5  N   UNL     1      -0.138   8.683  -2.321  0.00  0.00    -0.274 N 
ENDROOT
BRANCH   5   6
ATOM      6  C   UNL     1      -0.149   8.522  -3.715  0.00  0.00    +0.050 A 
ATOM      7  C   UNL     1       0.925   8.967  -4.474  0.00  0.00    +0.028 A 
ATOM      8  C   UNL     1       0.915   8.802  -5.845  0.00  0.00    +0.022 A 
ATOM      9  C   UNL     1      -0.170   8.205  -6.464  0.00  0.00    +0.041 A 
ATOM     10  C   UNL     1      -1.244   7.766  -5.709  0.00  0.00    +0.022 A 
ATOM     11  C   UNL     1      -1.236   7.923  -4.337  0.00  0.00    +0.028 A 
ATOM     12 CL   UNL     1      -0.183   8.007  -8.188  0.00  0.00    -0.084 Cl
ENDBRANCH   5   6
BRANCH   1  13
ATOM     13  S   UNL     1      -0.095   5.958  -1.674  0.00  0.00    -0.081 S 
BRANCH  13  14
ATOM     14  C   UNL     1      -0.070   5.347   0.030  0.00  0.00    +0.112 C 
BRANCH  14  17
ATOM     15  C   UNL     1       1.175   1.783   0.000  0.00  0.00    +0.001 A 
ATOM     16  C   UNL     1       1.156   3.166   0.008  0.00  0.00    +0.004 A 
ATOM     17  C   UNL     1      -0.050   3.840   0.022  0.00  0.00    -0.037 A 
ATOM     18  C   UNL     1      -1.238   3.133   0.030  0.00  0.00    +0.016 A 
ATOM     19  C   UNL     1      -1.219   1.751   0.017  0.00  0.00    +0.055 A 
ATOM     20  C   UNL     1      -0.013   1.076   0.008  0.00  0.00    +0.012 A 
BRANCH  19  21
ATOM     21  C   UNL     1      -2.514   0.980   0.019  0.00  0.00    +0.417 C 
ATOM     22  F   UNL     1      -2.240  -0.392   0.010  0.00  0.00    -0.166 F 
ATOM     23  F   UNL     1      -3.247   1.301   1.167  0.00  0.00    -0.166 F 
ATOM     24  F   UNL     1      -3.257   1.314  -1.118  0.00  0.00    -0.166 F 
ENDBRANCH  19  21
ENDBRANCH  14  17
ENDBRANCH  13  14
ENDBRANCH   1  13
BRANCH   4  25
ATOM     25  C   UNL     1      -0.172  11.248  -2.214  0.00  0.00    +0.130 C 
BRANCH  25  26
ATOM     26  C   UNL     1      -1.601  11.691  -2.398  0.00  0.00    +0.033 A 
ATOM     27  C   UNL     1      -2.208  12.434  -1.449  0.00  0.00    +0.091 A 
ATOM     28  C   UNL     1      -3.551  12.838  -1.645  0.00  0.00    +0.254 A 
ATOM     29  O   UNL     1      -4.120  13.510  -0.802  0.00  0.00    -0.268 OA
ATOM     30  N   UNL     1      -4.194  12.474  -2.772  0.00  0.00    -0.275 N 
ATOM     31  H   UNL     1      -5.142  12.755  -2.918  0.00  0.00    +0.173 HD
ATOM     32  C   UNL     1      -3.564  11.732  -3.702  0.00  0.00    +0.327 A 
ATOM     33  O   UNL     1      -4.157  11.411  -4.714  0.00  0.00    -0.247 OA
ATOM     34  N   UNL     1      -2.287  11.347  -3.531  0.00  0.00    -0.311 N 
ATOM     35  H   UNL     1      -1.834  10.803  -4.238  0.00  0.00    +0.170 HD
ENDBRANCH  25  26
ENDBRANCH   4  25
TORSDOF 7
