REMARK  Name = ZINC64435422
REMARK  3 active torsions:
REMARK  status: ('A' for Active; 'I' for Inactive)
REMARK    1  A    between atoms: C_1  and  C_2
REMARK    2  A    between atoms: C_3  and  C_7
REMARK    3  A    between atoms: C_11  and  C_16
REMARK                            x       y       z     vdW  Elec       q    Type
REMARK                         _______ _______ _______ _____ _____    ______ ____
ROOT
ATOM      1  C   UNL     1      -2.530  -0.346   0.013  0.00  0.00    +0.182 C 
ATOM      2  N   UNL     1      -3.285  -0.939  -1.124  0.00  0.00    -0.263 N 
ATOM      3  N   UNL     1      -3.886  -2.133  -0.856  0.00  0.00    -0.220 N 
ATOM      4  C   UNL     1      -4.375  -3.216  -1.579  0.00  0.00    +0.183 A 
ATOM      5  N   UNL     1      -4.894  -4.064  -0.727  0.00  0.00    -0.127 NA
ATOM      6  N   UNL     1      -4.762  -3.617   0.473  0.00  0.00    -0.120 NA
ATOM      7  C   UNL     1      -4.147  -2.474   0.447  0.00  0.00    +0.211 A 
ATOM      8  S   UNL     1      -3.463  -1.130   1.399  0.00  0.00    -0.056 S 
ATOM      9  H   UNL     1      -3.947  -0.278  -1.502  0.00  0.00    +0.168 HD
ENDROOT
BRANCH   4  10
ATOM     10  C   UNL     1      -4.319  -3.381  -3.047  0.00  0.00    +0.040 A 
ATOM     11  C   UNL     1      -3.728  -2.397  -3.841  0.00  0.00    +0.033 A 
ATOM     12  C   UNL     1      -3.679  -2.557  -5.211  0.00  0.00    +0.042 A 
ATOM     13  C   UNL     1      -4.213  -3.691  -5.799  0.00  0.00    +0.021 A 
ATOM     14  C   UNL     1      -4.800  -4.671  -5.018  0.00  0.00    +0.022 A 
ATOM     15  C   UNL     1      -4.851  -4.526  -3.646  0.00  0.00    +0.052 A 
ATOM     16 CL   UNL     1      -5.581  -5.760  -2.667  0.00  0.00    -0.083 Cl
ATOM     17 CL   UNL     1      -2.945  -1.333  -6.200  0.00  0.00    -0.084 Cl
ENDBRANCH   4  10
BRANCH   1  20
ATOM     18  C   UNL     1      -0.018   1.503   0.010  0.00  0.00    +0.067 C 
ATOM     19  C   UNL     1       0.002  -0.004   0.002  0.00  0.00    +0.064 C 
ATOM     20  C   UNL     1      -1.086  -0.777   0.003  0.00  0.00    +0.008 C 
ATOM     21  C   UNL     1      -0.531  -2.190  -0.007  0.00  0.00    +0.201 C 
ATOM     22  N   UNL     1       0.926  -1.973  -0.013  0.00  0.00    -0.183 NA
ATOM     23  N   UNL     1       1.125  -0.756  -0.013  0.00  0.00    -0.159 NA
ENDBRANCH   1  20
TORSDOF 2
