REMARK  Name = ZINC41026280
REMARK  6 active torsions:
REMARK  status: ('A' for Active; 'I' for Inactive)
REMARK    1  A    between atoms: C_1  and  C_2
REMARK    2  A    between atoms: C_8  and  N_11
REMARK    3  A    between atoms: N_16  and  C_30
REMARK    4  A    between atoms: N_21  and  C_22
REMARK    5  A    between atoms: C_22  and  C_23
REMARK    6  A    between atoms: C_23  and  C_24
REMARK                            x       y       z     vdW  Elec       q    Type
REMARK                         _______ _______ _______ _____ _____    ______ ____
ROOT
ATOM      1  N   UNL     1       1.472  -2.627   3.397  0.00  0.00    -0.267 N 
ATOM      2  C   UNL     1       1.792  -3.652   4.269  0.00  0.00    +0.141 A 
ATOM      3  C   UNL     1       2.001  -3.395   5.638  0.00  0.00    +0.079 A 
ATOM      4  C   UNL     1       1.967  -2.236   6.445  0.00  0.00    +0.148 A 
ATOM      5  N   UNL     1       2.245  -2.578   7.671  0.00  0.00    -0.172 NA
ATOM      6  N   UNL     1       2.473  -3.958   7.737  0.00  0.00    -0.214 N 
ATOM      7  C   UNL     1       2.325  -4.476   6.481  0.00  0.00    +0.170 A 
ATOM      8  N   UNL     1       2.420  -5.696   5.956  0.00  0.00    -0.195 NA
ATOM      9  C   UNL     1       2.215  -5.891   4.665  0.00  0.00    +0.219 A 
ATOM     10  N   UNL     1       1.903  -4.902   3.835  0.00  0.00    -0.199 NA
ATOM     11  N   UNL     1       2.325  -7.175   4.160  0.00  0.00    -0.313 N 
ATOM     12  H   UNL     1       1.394  -1.718   3.725  0.00  0.00    +0.157 HD
ATOM     13  H   UNL     1       2.548  -7.911   4.750  0.00  0.00    +0.149 HD
ENDROOT
BRANCH   1  20
ATOM     14  C   UNL     1      -0.019   1.526   0.010  0.00  0.00    +0.008 C 
ATOM     15  C   UNL     1       0.002  -0.004   0.002  0.00  0.00    -0.009 C 
ATOM     16  C   UNL     1       0.716  -0.496  -1.259  0.00  0.00    +0.010 C 
ATOM     17  C   UNL     1       0.486  -2.003  -1.429  0.00  0.00    +0.059 C 
ATOM     18  C   UNL     1       0.829  -2.683  -0.126  0.00  0.00    +0.089 A 
ATOM     19  C   UNL     1       0.948  -1.998   1.099  0.00  0.00    +0.037 A 
ATOM     20  C   UNL     1       1.264  -2.899   2.055  0.00  0.00    +0.226 A 
ATOM     21  O   UNL     1       1.342  -4.108   1.468  0.00  0.00    -0.339 OA
ATOM     22  N   UNL     1       1.061  -3.942   0.088  0.00  0.00    -0.081 NA
ATOM     23  C   UNL     1       0.742  -0.511   1.246  0.00  0.00    +0.045 C 
ENDBRANCH   1  20
BRANCH   6  24
ATOM     24  C   UNL     1       2.797  -4.683   8.890  0.00  0.00    +0.068 A 
ATOM     25  C   UNL     1       2.326  -5.979   9.053  0.00  0.00    +0.028 A 
ATOM     26  C   UNL     1       2.648  -6.691  10.192  0.00  0.00    +0.002 A 
ATOM     27  C   UNL     1       3.439  -6.115  11.169  0.00  0.00    +0.000 A 
ATOM     28  C   UNL     1       3.909  -4.824  11.010  0.00  0.00    +0.002 A 
ATOM     29  C   UNL     1       3.596  -4.109   9.871  0.00  0.00    +0.028 A 
ENDBRANCH   6  24
BRANCH  11  30
ATOM     30  C   UNL     1       2.103  -7.422   2.733  0.00  0.00    +0.108 C 
BRANCH  30  31
ATOM     31  C   UNL     1       2.284  -8.912   2.439  0.00  0.00    +0.049 C 
BRANCH  31  32
ATOM     32  C   UNL     1       2.056  -9.166   0.971  0.00  0.00    -0.072 C 
ATOM     33  C   UNL     1       3.090  -9.197   0.193  0.00  0.00    -0.028 C 
ATOM     34  C   UNL     1       3.021  -9.428  -1.288  0.00  0.00    +0.027 C 
ATOM     35  C   UNL     1       1.666 -10.031  -1.665  0.00  0.00    +0.004 C 
ATOM     36  C   UNL     1       0.562  -9.187  -1.014  0.00  0.00    +0.005 C 
ATOM     37  C   UNL     1       0.645  -9.374   0.504  0.00  0.00    +0.030 C 
ENDBRANCH  31  32
ENDBRANCH  30  31
ENDBRANCH  11  30
TORSDOF 5
