REMARK  Name = ZINC34791674
REMARK  10 active torsions:
REMARK  status: ('A' for Active; 'I' for Inactive)
REMARK    1  A    between atoms: C_1  and  C_2
REMARK    2  A    between atoms: C_2  and  C_3
REMARK    3  A    between atoms: C_2  and  C_4
REMARK    4  A    between atoms: C_2  and  N_5
REMARK    5  A    between atoms: C_6  and  C_8
REMARK    6  A    between atoms: C_8  and  C_10
REMARK    7  A    between atoms: C_8  and  N_17
REMARK    8  A    between atoms: C_10  and  C_11
REMARK    9  A    between atoms: C_23  and  C_30
REMARK   10  A    between atoms: N_28  and  C_29
REMARK                            x       y       z     vdW  Elec       q    Type
REMARK                         _______ _______ _______ _____ _____    ______ ____
ROOT
ATOM      1  N   UNL     1       4.051  -0.111  -2.677  0.00  0.00    -0.280 N 
ATOM      2  C   UNL     1       5.279  -0.920  -2.699  0.00  0.00    +0.160 C 
ATOM      3  C   UNL     1       6.408   0.087  -2.703  0.00  0.00    +0.042 C 
ATOM      4  C   UNL     1       5.830   1.305  -2.684  0.00  0.00    +0.058 C 
ATOM      5  C   UNL     1       4.425   1.181  -2.674  0.00  0.00    +0.247 C 
ATOM      6  O   UNL     1       3.651   2.121  -2.662  0.00  0.00    -0.270 OA
ATOM      7  C   UNL     1       6.739   2.517  -2.683  0.00  0.00    +0.142 C 
ATOM      8  N   UNL     1       8.190   2.261  -2.702  0.00  0.00    -0.288 N 
ATOM      9  C   UNL     1       8.617   0.983  -2.719  0.00  0.00    +0.307 C 
ATOM     10  O   UNL     1       9.812   0.762  -2.734  0.00  0.00    -0.252 OA
ATOM     11  N   UNL     1       7.766  -0.052  -2.720  0.00  0.00    -0.260 N 
ATOM     12  C   UNL     1       8.324  -1.406  -2.739  0.00  0.00    +0.139 C 
ATOM     13  H   UNL     1       8.823   2.996  -2.702  0.00  0.00    +0.151 HD
ENDROOT
BRANCH   7  14
ATOM     14  C   UNL     1       6.400   3.354  -3.889  0.00  0.00    -0.022 A 
ATOM     15  C   UNL     1       6.887   3.002  -5.134  0.00  0.00    +0.007 A 
ATOM     16  C   UNL     1       6.576   3.770  -6.240  0.00  0.00    +0.020 A 
ATOM     17  C   UNL     1       5.777   4.891  -6.102  0.00  0.00    +0.041 A 
ATOM     18  C   UNL     1       5.290   5.242  -4.856  0.00  0.00    +0.020 A 
ATOM     19  C   UNL     1       5.597   4.471  -3.751  0.00  0.00    +0.007 A 
ATOM     20 CL   UNL     1       5.386   5.856  -7.491  0.00  0.00    -0.084 Cl
ENDBRANCH   7  14
BRANCH   1  21
ATOM     21  C   UNL     1       2.677  -0.618  -2.667  0.00  0.00    +0.167 C 
BRANCH  21  23
ATOM     22  N   UNL     1       0.688  -0.476  -1.203  0.00  0.00    -0.309 N 
ATOM     23  C   UNL     1       1.972  -0.132  -1.427  0.00  0.00    +0.234 C 
ATOM     24  O   UNL     1       2.559   0.569  -0.630  0.00  0.00    -0.274 OA
ATOM     25  H   UNL     1       0.218  -1.037  -1.840  0.00  0.00    +0.149 HD
BRANCH  22  27
ATOM     26  C   UNL     1      -0.019   1.526   0.010  0.00  0.00    +0.031 C 
ATOM     27  C   UNL     1       0.002  -0.004   0.002  0.00  0.00    +0.026 C 
ATOM     28  C   UNL     1       0.742  -0.511   1.242  0.00  0.00    +0.031 C 
ATOM     29  C   UNL     1      -1.433  -0.534   0.013  0.00  0.00    +0.031 C 
ENDBRANCH  22  27
ENDBRANCH  21  23
BRANCH  21  30
ATOM     30  C   UNL     1       1.937  -0.111  -3.906  0.00  0.00    +0.067 C 
BRANCH  30  31
ATOM     31  C   UNL     1       2.568  -0.697  -5.143  0.00  0.00    -0.045 A 
ATOM     32  C   UNL     1       3.607  -0.033  -5.769  0.00  0.00    +0.004 A 
ATOM     33  C   UNL     1       4.186  -0.570  -6.904  0.00  0.00    +0.000 A 
ATOM     34  C   UNL     1       3.728  -1.772  -7.411  0.00  0.00    +0.000 A 
ATOM     35  C   UNL     1       2.690  -2.436  -6.785  0.00  0.00    +0.000 A 
ATOM     36  C   UNL     1       2.113  -1.901  -5.648  0.00  0.00    +0.004 A 
ENDBRANCH  30  31
ENDBRANCH  21  30
ENDBRANCH   1  21
TORSDOF 6
