REMARK  Name = ZINC63254421
REMARK  8 active torsions:
REMARK  status: ('A' for Active; 'I' for Inactive)
REMARK    1  A    between atoms: C_4  and  C_7
REMARK    2  A    between atoms: N_9  and  C_10
REMARK    3  A    between atoms: C_10  and  C_21
REMARK    4  A    between atoms: C_11  and  C_12
REMARK    5  A    between atoms: C_16  and  N_18
REMARK    6  A    between atoms: N_23  and  C_24
REMARK    7  A    between atoms: C_24  and  C_25
REMARK    8  A    between atoms: C_25  and  C_26
REMARK                            x       y       z     vdW  Elec       q    Type
REMARK                         _______ _______ _______ _____ _____    ______ ____
ROOT
ATOM      1  C   UNL     1       4.860  -2.860   0.016  0.00  0.00    +0.097 C 
ATOM      2  C   UNL     1       6.052  -2.245  -0.157  0.00  0.00    +0.036 C 
ENDROOT
BRANCH   2   3
ATOM      3  C   UNL     1       6.126  -0.776  -0.178  0.00  0.00    -0.021 A 
ATOM      4  C   UNL     1       5.162  -0.014   0.489  0.00  0.00    +0.008 A 
ATOM      5  C   UNL     1       5.238   1.362   0.465  0.00  0.00    +0.003 A 
ATOM      6  C   UNL     1       6.264   1.990  -0.219  0.00  0.00    +0.033 A 
ATOM      7  C   UNL     1       7.222   1.243  -0.883  0.00  0.00    +0.127 A 
ATOM      8  C   UNL     1       7.164  -0.134  -0.862  0.00  0.00    +0.040 A 
BRANCH   7   9
ATOM      9  N   UNL     1       8.315   1.925  -1.611  0.00  0.00    +0.056 N 
ATOM     10  O   UNL     1       8.371   3.132  -1.627  0.00  0.00    -0.126 OA
ATOM     11  O   UNL     1       9.153   1.274  -2.192  0.00  0.00    -0.126 OA
ENDBRANCH   7   9
ENDBRANCH   2   3
BRANCH   1  14
ATOM     12  C   UNL     1       2.939  -2.305   1.303  0.00  0.00    +0.248 C 
ATOM     13  O   UNL     1       3.297  -3.092   2.157  0.00  0.00    -0.270 OA
ATOM     14  N   UNL     1       3.703  -2.100   0.212  0.00  0.00    -0.277 N 
ATOM     15  H   UNL     1       3.451  -1.425  -0.438  0.00  0.00    +0.155 HD
BRANCH  12  19
ATOM     16  C   UNL     1      -0.722  -0.199   1.756  0.00  0.00    +0.000 A 
ATOM     17  C   UNL     1      -0.370  -1.174   2.672  0.00  0.00    +0.001 A 
ATOM     18  C   UNL     1       0.817  -1.862   2.531  0.00  0.00    +0.013 A 
ATOM     19  C   UNL     1       1.665  -1.572   1.460  0.00  0.00    +0.037 A 
ATOM     20  C   UNL     1       1.304  -0.588   0.539  0.00  0.00    +0.013 A 
ATOM     21  C   UNL     1       0.113   0.093   0.693  0.00  0.00    +0.001 A 
ENDBRANCH  12  19
ENDBRANCH   1  14
BRANCH   1  22
ATOM     22  C   UNL     1       4.780  -4.329  -0.001  0.00  0.00    +0.258 C 
ATOM     23  O   UNL     1       3.708  -4.882   0.155  0.00  0.00    -0.269 OA
ATOM     24  N   UNL     1       5.896  -5.062  -0.190  0.00  0.00    -0.310 N 
ATOM     25  H   UNL     1       6.750  -4.621  -0.314  0.00  0.00    +0.149 HD
BRANCH  24  26
ATOM     26  C   UNL     1       5.816  -6.524  -0.207  0.00  0.00    +0.109 C 
BRANCH  26  27
ATOM     27  C   UNL     1       7.212  -7.108  -0.436  0.00  0.00    +0.052 C 
BRANCH  27  28
ATOM     28  C   UNL     1       7.130  -8.613  -0.454  0.00  0.00    -0.040 C 
ATOM     29  C   UNL     1       7.019  -9.408  -1.542  0.00  0.00    -0.001 A 
ATOM     30  C   UNL     1       6.942  -9.122  -2.979  0.00  0.00    +0.010 A 
ATOM     31  C   UNL     1       6.832 -10.152  -3.848  0.00  0.00    +0.001 A 
ATOM     32  C   UNL     1       6.789 -11.483  -3.412  0.00  0.00    +0.002 A 
ATOM     33  C   UNL     1       6.854 -11.826  -2.108  0.00  0.00    +0.026 A 
ATOM     34  C   UNL     1       6.972 -10.822  -1.106  0.00  0.00    +0.043 A 
ATOM     35  N   UNL     1       7.051 -10.898   0.200  0.00  0.00    -0.380 N 
ATOM     36  C   UNL     1       7.163  -9.539   0.741  0.00  0.00    +0.144 C 
ATOM     37  H   UNL     1       7.040 -11.716   0.721  0.00  0.00    +0.160 HD
ENDBRANCH  27  28
ENDBRANCH  26  27
ENDBRANCH  24  26
ENDBRANCH   1  22
TORSDOF 8
