REMARK  Name = ZINC45463852
REMARK  7 active torsions:
REMARK  status: ('A' for Active; 'I' for Inactive)
REMARK    1  A    between atoms: C_1  and  C_2
REMARK    2  A    between atoms: C_2  and  C_3
REMARK    3  A    between atoms: C_2  and  C_4
REMARK    4  A    between atoms: C_4  and  N_5
REMARK    5  A    between atoms: C_8  and  N_11
REMARK    6  A    between atoms: N_14  and  N_15
REMARK    7  A    between atoms: N_15  and  C_16
REMARK                            x       y       z     vdW  Elec       q    Type
REMARK                         _______ _______ _______ _____ _____    ______ ____
ROOT
ATOM      1  N   UNL     1      -4.475   0.067  -4.672  0.00  0.00    -0.296 N 
ATOM      2  C   UNL     1      -5.525  -0.596  -5.196  0.00  0.00    +0.316 C 
ATOM      3  O   UNL     1      -6.052  -1.493  -4.567  0.00  0.00    -0.251 OA
ATOM      4  N   UNL     1      -5.990  -0.265  -6.416  0.00  0.00    -0.220 N 
ATOM      5  H   UNL     1      -4.054   0.783  -5.174  0.00  0.00    +0.151 HD
ATOM      6  H   UNL     1      -6.746  -0.743  -6.793  0.00  0.00    +0.174 HD
ENDROOT
BRANCH   1  10
ATOM      7  N   UNL     1      -2.786   0.561  -0.842  0.00  0.00    +0.380 N 
ATOM      8  C   UNL     1      -1.996  -0.197  -1.819  0.00  0.00    -0.077 C 
ATOM      9  C   UNL     1      -2.495   0.108  -3.233  0.00  0.00    +0.004 C 
ATOM     10  C   UNL     1      -3.969  -0.292  -3.345  0.00  0.00    +0.071 C 
ATOM     11  C   UNL     1      -4.773   0.449  -2.272  0.00  0.00    +0.004 C 
ATOM     12  C   UNL     1      -4.189   0.130  -0.894  0.00  0.00    -0.077 C 
ATOM     13  H   UNL     1      -2.729   1.545  -1.058  0.00  0.00    -0.082 HD
BRANCH   7  14
ATOM     14  C   UNL     1      -2.253   0.325   0.506  0.00  0.00    -0.076 C 
BRANCH  14  16
ATOM     15  C   UNL     1      -0.875   2.407   0.441  0.00  0.00    +0.005 C 
ATOM     16  C   UNL     1      -0.833   0.886   0.599  0.00  0.00    -0.034 C 
ATOM     17  C   UNL     1      -0.231   0.531   1.960  0.00  0.00    +0.005 C 
ENDBRANCH  14  16
ENDBRANCH   7  14
ENDBRANCH   1  10
BRANCH   4  18
ATOM     18  N   UNL     1      -5.383   0.769  -7.141  0.00  0.00    -0.258 N 
ATOM     19  H   UNL     1      -4.581   1.194  -6.799  0.00  0.00    +0.170 HD
BRANCH  18  20
ATOM     20  C   UNL     1      -5.934   1.188  -8.360  0.00  0.00    +0.121 A 
ATOM     21  C   UNL     1      -7.312   1.201  -8.532  0.00  0.00    +0.186 A 
ATOM     22  C   UNL     1      -7.855   1.616  -9.736  0.00  0.00    +0.198 A 
ATOM     23  C   UNL     1      -7.024   2.019 -10.770  0.00  0.00    +0.199 A 
ATOM     24  C   UNL     1      -5.648   2.006 -10.600  0.00  0.00    +0.198 A 
ATOM     25  C   UNL     1      -5.102   1.597  -9.395  0.00  0.00    +0.186 A 
ATOM     26  F   UNL     1      -3.762   1.590  -9.228  0.00  0.00    -0.200 F 
ATOM     27  F   UNL     1      -4.840   2.399 -11.609  0.00  0.00    -0.199 F 
ATOM     28  F   UNL     1      -7.555   2.423 -11.944  0.00  0.00    -0.199 F 
ATOM     29  F   UNL     1      -9.196   1.629  -9.904  0.00  0.00    -0.199 F 
ATOM     30  F   UNL     1      -8.123   0.808  -7.525  0.00  0.00    -0.200 F 
ENDBRANCH  18  20
ENDBRANCH   4  18
TORSDOF 5
