REMARK  Name = ZINC19949357
REMARK  12 active torsions:
REMARK  status: ('A' for Active; 'I' for Inactive)
REMARK    1  A    between atoms: C_1  and  C_2
REMARK    2  A    between atoms: C_2  and  O_3
REMARK    3  A    between atoms: O_3  and  C_4
REMARK    4  A    between atoms: C_4  and  C_6
REMARK    5  A    between atoms: C_7  and  N_18
REMARK    6  A    between atoms: C_10  and  O_16
REMARK    7  A    between atoms: O_16  and  C_17
REMARK    8  A    between atoms: C_19  and  C_21
REMARK    9  A    between atoms: C_21  and  C_23
REMARK   10  A    between atoms: C_21  and  N_24
REMARK   11  A    between atoms: N_27  and  C_30
REMARK   12  A    between atoms: C_30  and  C_31
REMARK                            x       y       z     vdW  Elec       q    Type
REMARK                         _______ _______ _______ _____ _____    ______ ____
ROOT
ATOM      1  N   UNL     1      -2.298  -5.002   0.910  0.00  0.00    -0.282 N 
ATOM      2  C   UNL     1      -1.000  -4.641   0.948  0.00  0.00    +0.234 C 
ATOM      3  O   UNL     1      -0.698  -3.488   1.176  0.00  0.00    -0.274 OA
ATOM      4  H   UNL     1      -2.539  -5.934   0.796  0.00  0.00    +0.155 HD
ENDROOT
BRANCH   1   6
ATOM      5  C   UNL     1      -4.535  -4.203   1.611  0.00  0.00    +0.147 A 
ATOM      6  C   UNL     1      -3.292  -4.037   1.035  0.00  0.00    +0.073 A 
ATOM      7  C   UNL     1      -3.224  -2.646   0.580  0.00  0.00    +0.025 A 
ATOM      8  C   UNL     1      -2.238  -1.893  -0.066  0.00  0.00    +0.057 A 
ATOM      9  C   UNL     1      -2.479  -0.569  -0.369  0.00  0.00    +0.121 A 
ATOM     10  C   UNL     1      -3.697   0.017  -0.034  0.00  0.00    +0.047 A 
ATOM     11  C   UNL     1      -4.675  -0.712   0.602  0.00  0.00    +0.030 A 
ATOM     12  C   UNL     1      -4.453  -2.051   0.918  0.00  0.00    +0.049 A 
ATOM     13  N   UNL     1      -5.232  -3.006   1.533  0.00  0.00    -0.348 N 
ATOM     14  H   UNL     1      -6.132  -2.863   1.864  0.00  0.00    +0.166 HD
BRANCH   5  15
ATOM     15  C   UNL     1      -5.023  -5.405   2.185  0.00  0.00    +0.358 C 
ATOM     16  O   UNL     1      -4.290  -6.371   2.289  0.00  0.00    -0.243 OA
BRANCH  15  17
ATOM     17  O   UNL     1      -6.300  -5.478   2.614  0.00  0.00    -0.460 OA
BRANCH  17  19
ATOM     18  C   UNL     1      -8.190  -6.610   3.608  0.00  0.00    +0.048 C 
ATOM     19  C   UNL     1      -6.724  -6.719   3.181  0.00  0.00    +0.229 C 
ENDBRANCH  17  19
ENDBRANCH  15  17
ENDBRANCH   5  15
BRANCH   9  20
ATOM     20  O   UNL     1      -1.523   0.167  -0.997  0.00  0.00    -0.495 OA
ATOM     21  C   UNL     1      -1.838   1.531  -1.281  0.00  0.00    +0.277 C 
ENDBRANCH   9  20
ENDBRANCH   1   6
BRANCH   2  22
ATOM     22  C   UNL     1       0.075  -5.668   0.707  0.00  0.00    +0.140 C 
ATOM     23  C   UNL     1       0.145  -5.992  -0.787  0.00  0.00    +0.034 C 
BRANCH  22  24
ATOM     24  N   UNL     1       1.370  -5.137   1.154  0.00  0.00    -0.295 NA
ATOM     25  C   UNL     1       2.370  -6.208   1.261  0.00  0.00    +0.066 C 
ATOM     26  C   UNL     1       3.684  -5.625   1.786  0.00  0.00    -0.063 C 
ATOM     27  N   UNL     1       4.157  -4.580   0.867  0.00  0.00    +0.384 N 
ATOM     28  C   UNL     1       3.158  -3.506   0.789  0.00  0.00    -0.063 C 
ATOM     29  C   UNL     1       1.840  -4.072   0.257  0.00  0.00    +0.066 C 
ATOM     30  H   UNL     1       4.296  -4.977  -0.050  0.00  0.00    -0.081 HD
BRANCH  27  31
ATOM     31  C   UNL     1       5.427  -4.033   1.361  0.00  0.00    -0.043 C 
BRANCH  31  32
ATOM     32  C   UNL     1       5.974  -3.050   0.359  0.00  0.00    -0.060 A 
ATOM     33  C   UNL     1       6.814  -3.487  -0.649  0.00  0.00    +0.005 A 
ATOM     34  C   UNL     1       7.318  -2.589  -1.571  0.00  0.00    +0.050 A 
ATOM     35  C   UNL     1       6.982  -1.247  -1.488  0.00  0.00    +0.166 A 
ATOM     36  C   UNL     1       6.136  -0.807  -0.473  0.00  0.00    +0.166 A 
ATOM     37  C   UNL     1       5.631  -1.713   0.445  0.00  0.00    +0.051 A 
ATOM     38  O   UNL     1       5.961   0.540  -0.605  0.00  0.00    -0.453 OA
ATOM     39  C   UNL     1       7.030   0.985  -1.462  0.00  0.00    +0.466 C 
ATOM     40  O   UNL     1       7.337  -0.176  -2.256  0.00  0.00    -0.453 OA
ENDBRANCH  31  32
ENDBRANCH  27  31
ENDBRANCH  22  24
ENDBRANCH   2  22
TORSDOF 9
