REMARK  Name = ZINC20567533
REMARK  7 active torsions:
REMARK  status: ('A' for Active; 'I' for Inactive)
REMARK    1  A    between atoms: C_1  and  C_2
REMARK    2  A    between atoms: C_2  and  C_3
REMARK    3  A    between atoms: C_3  and  C_5
REMARK    4  A    between atoms: C_3  and  N_6
REMARK    5  A    between atoms: N_15  and  C_19
REMARK    6  A    between atoms: C_23  and  C_26
REMARK    7  A    between atoms: C_24  and  C_25
REMARK                            x       y       z     vdW  Elec       q    Type
REMARK                         _______ _______ _______ _____ _____    ______ ____
ROOT
ATOM      1  N   UNL     1       4.293   0.540   3.635  0.00  0.00    -0.280 NA
ATOM      2  C   UNL     1       4.790  -0.092   2.400  0.00  0.00    +0.130 C 
ATOM      3  C   UNL     1       4.024   0.447   1.220  0.00  0.00    +0.069 A 
ATOM      4  C   UNL     1       4.534   0.245  -0.074  0.00  0.00    +0.260 A 
ATOM      5  O   UNL     1       5.586  -0.351  -0.231  0.00  0.00    -0.267 OA
ATOM      6  N   UNL     1       3.857   0.712  -1.141  0.00  0.00    -0.274 N 
ATOM      7  H   UNL     1       4.254   0.559  -2.155  0.00  0.00    +0.173 HD
ATOM      8  C   UNL     1       2.694   1.367  -0.974  0.00  0.00    +0.335 A 
ATOM      9  O   UNL     1       2.093   1.778  -1.948  0.00  0.00    -0.246 OA
ATOM     10  N   UNL     1       2.186   1.574   0.253  0.00  0.00    -0.250 N 
ATOM     11  C   UNL     1       2.853   1.124   1.375  0.00  0.00    +0.118 A 
ATOM     12  N   UNL     1       2.307   1.379   2.604  0.00  0.00    -0.317 N 
ATOM     13  C   UNL     1       2.821   0.489   3.648  0.00  0.00    +0.191 C 
ATOM     14  H   UNL     1       1.562   2.149   2.855  0.00  0.00    +0.149 HD
ENDROOT
BRANCH  10  15
ATOM     15  C   UNL     1       0.972   2.259   0.395  0.00  0.00    +0.056 A 
ATOM     16  C   UNL     1      -0.227   1.557   0.395  0.00  0.00    +0.026 A 
ATOM     17  C   UNL     1      -1.422   2.235   0.529  0.00  0.00    +0.002 A 
ATOM     18  C   UNL     1      -1.426   3.611   0.675  0.00  0.00    +0.004 A 
ATOM     19  C   UNL     1      -0.235   4.312   0.675  0.00  0.00    -0.046 A 
ATOM     20  C   UNL     1       0.964   3.640   0.536  0.00  0.00    -0.024 A 
ATOM     21  C   UNL     1       2.262   4.405   0.537  0.00  0.00    +0.046 C 
ATOM     22  C   UNL     1      -0.244   5.811   0.828  0.00  0.00    +0.044 C 
ENDBRANCH  10  15
BRANCH   1  23
ATOM     23  C   UNL     1       4.853  -0.119   4.822  0.00  0.00    +0.055 C 
ATOM     24  C   UNL     1       4.540  -1.616   4.770  0.00  0.00    +0.024 C 
BRANCH  23  26
ATOM     25  C   UNL     1       6.681   1.574   5.016  0.00  0.00    +0.005 C 
ATOM     26  C   UNL     1       6.369   0.085   4.851  0.00  0.00    +0.015 C 
ENDBRANCH  23  26
ENDBRANCH   1  23
TORSDOF 3
