REMARK  Name = ZINC40091550
REMARK  16 active torsions:
REMARK  status: ('A' for Active; 'I' for Inactive)
REMARK    1  A    between atoms: C_1  and  C_2
REMARK    2  A    between atoms: C_2  and  C_3
REMARK    3  A    between atoms: C_3  and  O_4
REMARK    4  A    between atoms: O_4  and  C_5
REMARK    5  A    between atoms: C_8  and  C_12
REMARK    6  A    between atoms: C_10  and  C_11
REMARK    7  A    between atoms: C_12  and  C_14
REMARK    8  A    between atoms: N_18  and  C_29
REMARK    9  A    between atoms: C_19  and  C_21
REMARK   10  A    between atoms: C_24  and  S_27
REMARK   11  A    between atoms: S_27  and  C_28
REMARK   12  A    between atoms: C_29  and  C_30
REMARK   13  A    between atoms: C_30  and  O_31
REMARK   14  A    between atoms: O_31  and  C_32
REMARK   15  A    between atoms: C_32  and  C_33
REMARK   16  A    between atoms: C_33  and  O_34
REMARK                            x       y       z     vdW  Elec       q    Type
REMARK                         _______ _______ _______ _____ _____    ______ ____
ROOT
ATOM      1  C   UNL     1       4.017  -3.758   6.631  0.00  0.00    +0.076 C 
ATOM      2  C   UNL     1       4.730  -4.286   7.652  0.00  0.00    +0.249 C 
ATOM      3  C   UNL     1       5.256  -3.192   8.495  0.00  0.00    +0.288 C 
ATOM      4  O   UNL     1       5.935  -3.344   9.491  0.00  0.00    -0.266 OA
ATOM      5  N   UNL     1       4.870  -2.003   7.997  0.00  0.00    -0.281 N 
ATOM      6  C   UNL     1       4.073  -2.256   6.791  0.00  0.00    +0.145 C 
ATOM      7  O   UNL     1       4.929  -5.607   7.868  0.00  0.00    -0.282 OA
ENDROOT
BRANCH   6   8
ATOM      8  C   UNL     1       2.683  -1.702   6.968  0.00  0.00    -0.022 A 
ATOM      9  C   UNL     1       2.086  -1.720   8.215  0.00  0.00    +0.007 A 
ATOM     10  C   UNL     1       0.812  -1.213   8.380  0.00  0.00    +0.015 A 
ATOM     11  C   UNL     1       0.130  -0.684   7.291  0.00  0.00    +0.008 A 
ATOM     12  C   UNL     1       0.733  -0.668   6.039  0.00  0.00    +0.015 A 
ATOM     13  C   UNL     1       2.009  -1.171   5.883  0.00  0.00    +0.007 A 
BRANCH  11  14
ATOM     14  S   UNL     1      -1.496  -0.037   7.497  0.00  0.00    -0.129 S 
ATOM     15  C   UNL     1      -1.959   0.523   5.835  0.00  0.00    +0.090 C 
ENDBRANCH  11  14
ENDBRANCH   6   8
BRANCH   1  16
ATOM     16  C   UNL     1       3.329  -4.499   5.569  0.00  0.00    +0.195 C 
ATOM     17  O   UNL     1       2.366  -5.193   5.838  0.00  0.00    -0.287 OA
BRANCH  16  21
ATOM     18  C   UNL     1       4.694  -4.221   1.557  0.00  0.00    +0.123 A 
ATOM     19  C   UNL     1       5.297  -3.456   2.549  0.00  0.00    +0.046 A 
ATOM     20  C   UNL     1       4.857  -3.543   3.851  0.00  0.00    +0.015 A 
ATOM     21  C   UNL     1       3.803  -4.402   4.175  0.00  0.00    +0.023 A 
ATOM     22  C   UNL     1       3.200  -5.170   3.174  0.00  0.00    +0.018 A 
ATOM     23  C   UNL     1       3.642  -5.073   1.874  0.00  0.00    -0.008 A 
ATOM     24  C   UNL     1       2.989  -5.896   0.794  0.00  0.00    +0.047 C 
BRANCH  18  25
ATOM     25  O   UNL     1       5.130  -4.133   0.275  0.00  0.00    -0.492 OA
BRANCH  25  26
ATOM     26  C   UNL     1       6.215  -3.238   0.019  0.00  0.00    +0.229 C 
BRANCH  26  28
ATOM     27  C   UNL     1       7.726  -2.315  -1.744  0.00  0.00    +0.007 C 
ATOM     28  C   UNL     1       6.564  -3.273  -1.470  0.00  0.00    +0.038 C 
ENDBRANCH  26  28
ENDBRANCH  25  26
ENDBRANCH  18  25
ENDBRANCH  16  21
ENDBRANCH   1  16
BRANCH   5  29
ATOM     29  C   UNL     1       5.195  -0.688   8.555  0.00  0.00    +0.137 C 
BRANCH  29  30
ATOM     30  C   UNL     1       6.502  -0.182   7.941  0.00  0.00    +0.179 C 
BRANCH  30  31
ATOM     31  O   UNL     1       6.317   0.037   6.541  0.00  0.00    -0.376 OA
BRANCH  31  32
ATOM     32  C   UNL     1       7.484   0.514   5.868  0.00  0.00    +0.187 C 
BRANCH  32  33
ATOM     33  C   UNL     1       7.172   0.712   4.384  0.00  0.00    +0.184 C 
BRANCH  33  34
ATOM     34  O   UNL     1       6.200   1.749   4.236  0.00  0.00    -0.393 OA
ATOM     35  H   UNL     1       5.954   1.929   3.318  0.00  0.00    +0.209 HD
ENDBRANCH  33  34
ENDBRANCH  32  33
ENDBRANCH  31  32
ENDBRANCH  30  31
ENDBRANCH  29  30
ENDBRANCH   5  29
TORSDOF 13
