REMARK  Name = ZINC05563825
REMARK  8 active torsions:
REMARK  status: ('A' for Active; 'I' for Inactive)
REMARK    1  A    between atoms: C_1  and  C_2
REMARK    2  A    between atoms: C_2  and  C_33
REMARK    3  A    between atoms: C_8  and  C_32
REMARK    4  A    between atoms: C_12  and  C_30
REMARK    5  A    between atoms: C_12  and  O_31
REMARK    6  A    between atoms: C_13  and  C_24
REMARK    7  A    between atoms: P_15  and  C_17
REMARK    8  A    between atoms: C_17  and  C_18
REMARK                            x       y       z     vdW  Elec       q    Type
REMARK                         _______ _______ _______ _____ _____    ______ ____
ROOT
ATOM      1  C   UNL     1       5.546   0.266   4.145  0.00  0.00    +0.011 C 
ATOM      2  C   UNL     1       4.064   0.192   3.731  0.00  0.00    -0.029 C 
ATOM      3  C   UNL     1       3.276   1.501   3.776  0.00  0.00    -0.001 C 
ATOM      4  C   UNL     1       3.687   0.895   2.440  0.00  0.00    -0.000 C 
ATOM      5  C   UNL     1       2.659   0.385   1.470  0.00  0.00    +0.019 C 
ATOM      6  C   UNL     1       1.205   0.486   1.865  0.00  0.00    +0.028 C 
ATOM      7  C   UNL     1       0.926   1.560   2.913  0.00  0.00    +0.035 C 
ATOM      8  C   UNL     1       1.800   1.495   4.132  0.00  0.00    +0.011 C 
ATOM      9  C   UNL     1       0.611   2.930   2.372  0.00  0.00    +0.080 C 
ATOM     10  C   UNL     1       0.257   2.940   0.868  0.00  0.00    +0.113 C 
ATOM     11  P   UNL     1       0.221   1.145   0.436  0.00  0.00    +0.109 P 
ATOM     12  O   UNL     1      -1.169   0.622   0.463  0.00  0.00    -0.319 OA
ATOM     13  C   UNL     1       1.793   3.877   2.582  0.00  0.00    +0.043 C 
ATOM     14  C   UNL     1       0.645  -0.877   2.312  0.00  0.00    +0.019 C 
ATOM     15  C   UNL     1       3.382  -1.122   4.092  0.00  0.00    +0.011 C 
ENDROOT
BRANCH  10  16
ATOM     16  C   UNL     1       1.312   3.667   0.073  0.00  0.00    -0.034 A 
ATOM     17  C   UNL     1       2.630   3.257   0.139  0.00  0.00    +0.004 A 
ATOM     18  C   UNL     1       3.597   3.921  -0.594  0.00  0.00    +0.000 A 
ATOM     19  C   UNL     1       3.247   4.999  -1.384  0.00  0.00    +0.000 A 
ATOM     20  C   UNL     1       1.929   5.412  -1.446  0.00  0.00    +0.000 A 
ATOM     21  C   UNL     1       0.961   4.746  -0.717  0.00  0.00    +0.004 A 
ENDBRANCH  10  16
BRANCH   9  22
ATOM     22  O   UNL     1      -0.512   3.454   3.093  0.00  0.00    -0.387 OA
ATOM     23  H   UNL     1      -0.735   4.367   2.864  0.00  0.00    +0.210 HD
ENDBRANCH   9  22
BRANCH  11  24
ATOM     24  C   UNL     1       1.006   0.811  -1.171  0.00  0.00    +0.105 C 
BRANCH  24  25
ATOM     25  C   UNL     1       0.188   1.438  -2.270  0.00  0.00    -0.040 A 
ATOM     26  C   UNL     1      -0.820   0.715  -2.880  0.00  0.00    +0.004 A 
ATOM     27  C   UNL     1      -1.573   1.292  -3.885  0.00  0.00    +0.000 A 
ATOM     28  C   UNL     1      -1.312   2.588  -4.287  0.00  0.00    +0.000 A 
ATOM     29  C   UNL     1      -0.301   3.310  -3.681  0.00  0.00    +0.000 A 
ATOM     30  C   UNL     1       0.450   2.735  -2.672  0.00  0.00    +0.004 A 
ENDBRANCH  24  25
ENDBRANCH  11  24
TORSDOF 4
