REMARK  Name = ZINC12808804
REMARK  11 active torsions:
REMARK  status: ('A' for Active; 'I' for Inactive)
REMARK    1  A    between atoms: C_1  and  C_2
REMARK    2  A    between atoms: C_2  and  C_4
REMARK    3  A    between atoms: C_2  and  O_14
REMARK    4  A    between atoms: N_6  and  C_7
REMARK    5  A    between atoms: C_7  and  C_8
REMARK    6  A    between atoms: C_7  and  C_9
REMARK    7  A    between atoms: C_7  and  C_11
REMARK    8  A    between atoms: C_11  and  C_12
REMARK    9  A    between atoms: C_11  and  C_13
REMARK   10  A    between atoms: O_14  and  C_15
REMARK   11  A    between atoms: C_15  and  C_17
REMARK                            x       y       z     vdW  Elec       q    Type
REMARK                         _______ _______ _______ _____ _____    ______ ____
ROOT
ATOM      1  C   UNL     1       2.761  -1.127  -2.265  0.00  0.00    +0.061 A 
ATOM      2  C   UNL     1       2.089  -1.384  -3.466  0.00  0.00    +0.016 A 
ATOM      3  C   UNL     1       2.777  -1.818  -4.566  0.00  0.00    +0.016 A 
ATOM      4  C   UNL     1       4.154  -2.014  -4.487  0.00  0.00    +0.065 A 
ATOM      5  C   UNL     1       4.844  -1.773  -3.280  0.00  0.00    +0.079 A 
ATOM      6  C   UNL     1       4.134  -1.317  -2.168  0.00  0.00    +0.043 A 
ATOM      7  N   UNL     1       6.164  -2.035  -3.237  0.00  0.00    -0.233 NA
ATOM      8  C   UNL     1       6.867  -2.453  -4.273  0.00  0.00    +0.113 A 
ATOM      9  N   UNL     1       6.313  -2.560  -5.492  0.00  0.00    -0.296 N 
ATOM     10  C   UNL     1       4.950  -2.469  -5.632  0.00  0.00    +0.262 A 
ATOM     11  O   UNL     1       4.433  -2.761  -6.696  0.00  0.00    -0.267 OA
ATOM     12  C   UNL     1       7.019  -2.693  -6.756  0.00  0.00    +0.126 C 
ATOM     13  C   UNL     1       8.456  -3.259  -6.618  0.00  0.00    +0.022 C 
ATOM     14  C   UNL     1       9.354  -1.996  -6.807  0.00  0.00    +0.002 C 
ATOM     15  C   UNL     1       9.117  -1.098  -5.575  0.00  0.00    +0.000 C 
ATOM     16  C   UNL     1       9.300  -1.764  -4.232  0.00  0.00    +0.008 C 
ATOM     17  C   UNL     1       8.280  -2.835  -3.903  0.00  0.00    +0.074 C 
ENDROOT
BRANCH   1  18
ATOM     18  C   UNL     1       2.002  -0.651  -1.087  0.00  0.00    +0.340 C 
ATOM     19  O   UNL     1       2.579  -0.429  -0.042  0.00  0.00    -0.245 OA
BRANCH  18  20
ATOM     20  O   UNL     1       0.671  -0.465  -1.174  0.00  0.00    -0.449 OA
BRANCH  20  22
ATOM     21  C   UNL     1      -0.019   1.526   0.010  0.00  0.00    +0.062 C 
ATOM     22  C   UNL     1       0.002  -0.004   0.002  0.00  0.00    +0.259 C 
BRANCH  22  23
ATOM     23  C   UNL     1      -1.412  -0.526   0.013  0.00  0.00    +0.255 C 
ATOM     24  O   UNL     1      -1.836  -1.147  -0.939  0.00  0.00    -0.272 OA
ATOM     25  N   UNL     1      -2.204  -0.302   1.079  0.00  0.00    -0.294 N 
ATOM     26  H   UNL     1      -1.865   0.195   1.840  0.00  0.00    +0.150 HD
BRANCH  25  27
ATOM     27  C   UNL     1      -3.579  -0.809   1.090  0.00  0.00    +0.121 C 
ATOM     28  C   UNL     1      -3.561  -2.333   0.956  0.00  0.00    +0.048 C 
BRANCH  27  29
ATOM     29  C   UNL     1      -4.256  -0.420   2.406  0.00  0.00    +0.020 C 
ATOM     30  C   UNL     1      -5.727  -0.840   2.366  0.00  0.00    +0.010 C 
ATOM     31  C   UNL     1      -3.555  -1.127   3.568  0.00  0.00    +0.010 C 
ENDBRANCH  27  29
BRANCH  27  32
ATOM     32  C   UNL     1      -4.326  -0.226  -0.037  0.00  0.00    +0.088 C 
ATOM     33  N   UNL     1      -4.902   0.224  -0.906  0.00  0.00    -0.194 NA
ENDBRANCH  27  32
ENDBRANCH  25  27
ENDBRANCH  22  23
ENDBRANCH  20  22
ENDBRANCH  18  20
ENDBRANCH   1  18
TORSDOF 7
