REMARK  Name = ZINC64870862
REMARK  7 active torsions:
REMARK  status: ('A' for Active; 'I' for Inactive)
REMARK    1  A    between atoms: C_4  and  C_7
REMARK    2  A    between atoms: C_7  and  C_8
REMARK    3  A    between atoms: C_8  and  C_9
REMARK    4  A    between atoms: C_9  and  N_10
REMARK    5  A    between atoms: C_16  and  C_23
REMARK    6  A    between atoms: C_26  and  C_30
REMARK    7  A    between atoms: C_33  and  C_36
REMARK                            x       y       z     vdW  Elec       q    Type
REMARK                         _______ _______ _______ _____ _____    ______ ____
ROOT
ATOM      1  N   UNL     1       5.947  -1.955   2.757  0.00  0.00    -0.261 N 
ATOM      2  C   UNL     1       6.716  -1.036   3.380  0.00  0.00    +0.264 A 
ATOM      3  O   UNL     1       7.046  -0.012   2.814  0.00  0.00    -0.267 OA
ATOM      4  C   UNL     1       7.146  -1.307   4.763  0.00  0.00    +0.063 A 
ATOM      5  C   UNL     1       7.939  -0.409   5.473  0.00  0.00    +0.016 A 
ATOM      6  C   UNL     1       8.314  -0.709   6.766  0.00  0.00    +0.008 A 
ATOM      7  C   UNL     1       7.906  -1.895   7.358  0.00  0.00    -0.000 A 
ATOM      8  C   UNL     1       7.120  -2.793   6.665  0.00  0.00    +0.034 A 
ATOM      9  C   UNL     1       6.733  -2.509   5.365  0.00  0.00    +0.056 A 
ATOM     10  N   UNL     1       5.942  -3.384   4.634  0.00  0.00    -0.307 N 
ATOM     11  H   UNL     1       5.649  -4.217   5.036  0.00  0.00    +0.170 HD
ATOM     12  C   UNL     1       5.574  -3.087   3.376  0.00  0.00    +0.330 A 
ATOM     13  O   UNL     1       4.877  -3.878   2.771  0.00  0.00    -0.246 OA
ENDROOT
BRANCH   7  14
ATOM     14  C   UNL     1       8.326  -2.206   8.772  0.00  0.00    +0.242 C 
ATOM     15  N   UNL     1       8.502  -0.952   9.531  0.00  0.00    -0.265 NA
ATOM     16  C   UNL     1       9.914  -0.933   9.982  0.00  0.00    +0.180 C 
ATOM     17  N   UNL     1      10.307  -2.367   9.958  0.00  0.00    -0.177 NA
ATOM     18  O   UNL     1       9.595  -2.886   8.767  0.00  0.00    -0.274 OA
ATOM     19  H   UNL     1       8.295  -0.149   8.957  0.00  0.00    +0.127 HD
ATOM     20  H   UNL     1      11.306  -2.466   9.855  0.00  0.00    +0.156 HD
BRANCH  16  21
ATOM     21  C   UNL     1      10.017  -0.375  11.378  0.00  0.00    -0.014 A 
ATOM     22  C   UNL     1       9.097   0.558  11.819  0.00  0.00    +0.007 A 
ATOM     23  C   UNL     1       9.192   1.070  13.100  0.00  0.00    +0.013 A 
ATOM     24  C   UNL     1      10.206   0.649  13.939  0.00  0.00    +0.055 A 
ATOM     25  C   UNL     1      11.125  -0.284  13.499  0.00  0.00    +0.013 A 
ATOM     26  C   UNL     1      11.028  -0.800  12.220  0.00  0.00    +0.007 A 
BRANCH  24  27
ATOM     27  C   UNL     1      10.310   1.208  15.335  0.00  0.00    +0.417 C 
ATOM     28  F   UNL     1       9.569   0.410  16.213  0.00  0.00    -0.166 F 
ATOM     29  F   UNL     1      11.651   1.220  15.734  0.00  0.00    -0.166 F 
ATOM     30  F   UNL     1       9.806   2.513  15.353  0.00  0.00    -0.166 F 
ENDBRANCH  24  27
ENDBRANCH  16  21
ENDBRANCH   7  14
BRANCH   1  31
ATOM     31  C   UNL     1       5.507  -1.710   1.381  0.00  0.00    +0.130 C 
BRANCH  31  32
ATOM     32  C   UNL     1       4.171  -0.963   1.399  0.00  0.00    +0.026 C 
BRANCH  32  33
ATOM     33  C   UNL     1       3.711  -0.707  -0.038  0.00  0.00    +0.037 C 
BRANCH  33  37
ATOM     34  C   UNL     1      -0.017   1.378   0.010  0.00  0.00    +0.000 A 
ATOM     35  C   UNL     1       1.171   2.086   0.002  0.00  0.00    +0.000 A 
ATOM     36  C   UNL     1       2.377   1.411  -0.013  0.00  0.00    +0.003 A 
ATOM     37  C   UNL     1       2.396   0.029  -0.020  0.00  0.00    -0.047 A 
ATOM     38  C   UNL     1       1.208  -0.679  -0.012  0.00  0.00    +0.003 A 
ATOM     39  C   UNL     1       0.002  -0.004   0.002  0.00  0.00    +0.000 A 
ENDBRANCH  33  37
ENDBRANCH  32  33
ENDBRANCH  31  32
ENDBRANCH   1  31
TORSDOF 7
