REMARK  Name = ZINC39671711
REMARK  14 active torsions:
REMARK  status: ('A' for Active; 'I' for Inactive)
REMARK    1  A    between atoms: C_1  and  C_2
REMARK    2  A    between atoms: C_4  and  C_38
REMARK    3  A    between atoms: N_5  and  C_7
REMARK    4  A    between atoms: C_7  and  C_8
REMARK    5  A    between atoms: C_8  and  C_9
REMARK    6  A    between atoms: C_9  and  N_10
REMARK    7  A    between atoms: C_11  and  C_13
REMARK    8  A    between atoms: C_24  and  C_26
REMARK    9  A    between atoms: C_28  and  O_36
REMARK   10  A    between atoms: C_29  and  O_34
REMARK   11  A    between atoms: C_30  and  O_32
REMARK   12  A    between atoms: O_32  and  C_33
REMARK   13  A    between atoms: O_34  and  C_35
REMARK   14  A    between atoms: O_36  and  C_37
REMARK                            x       y       z     vdW  Elec       q    Type
REMARK                         _______ _______ _______ _____ _____    ______ ____
ROOT
ATOM      1  C   UNL     1       5.282  -6.734   3.985  0.00  0.00    +0.100 C 
ATOM      2  C   UNL     1       5.706  -5.449   4.730  0.00  0.00    +0.121 C 
ATOM      3  N   UNL     1       5.524  -5.770   6.165  0.00  0.00    -0.296 N 
ATOM      4  C   UNL     1       5.984  -7.174   6.289  0.00  0.00    +0.115 C 
ATOM      5  C   UNL     1       5.470  -7.865   5.011  0.00  0.00    -0.004 C 
ATOM      6  C   UNL     1       6.498  -8.872   4.505  0.00  0.00    -0.010 C 
ATOM      7  C   UNL     1       6.624 -10.017   5.514  0.00  0.00    -0.082 C 
ATOM      8  N   UNL     1       5.319 -10.665   5.688  0.00  0.00    +0.379 N 
ATOM      9  C   UNL     1       4.360  -9.713   6.263  0.00  0.00    -0.082 C 
ATOM     10  C   UNL     1       4.138  -8.556   5.285  0.00  0.00    -0.010 C 
ATOM     11  C   UNL     1       5.049  -4.967   7.137  0.00  0.00    +0.247 C 
ATOM     12  O   UNL     1       4.592  -3.876   6.856  0.00  0.00    -0.270 OA
ATOM     13  H   UNL     1       4.980 -10.982   4.792  0.00  0.00    -0.086 HD
ATOM     14  H   UNL     1       5.417 -11.456   6.307  0.00  0.00    -0.086 HD
ENDROOT
BRANCH  11  15
ATOM     15  C   UNL     1       5.083  -5.412   8.544  0.00  0.00    +0.044 A 
ATOM     16  C   UNL     1       5.970  -6.417   8.939  0.00  0.00    +0.062 A 
ATOM     17  C   UNL     1       6.000  -6.832  10.257  0.00  0.00    +0.166 A 
ATOM     18  C   UNL     1       5.147  -6.250  11.191  0.00  0.00    +0.204 A 
ATOM     19  C   UNL     1       4.263  -5.248  10.800  0.00  0.00    +0.166 A 
ATOM     20  C   UNL     1       4.233  -4.826   9.485  0.00  0.00    +0.062 A 
BRANCH  19  21
ATOM     21  O   UNL     1       3.431  -4.682  11.715  0.00  0.00    -0.491 OA
ATOM     22  C   UNL     1       2.549  -3.660  11.245  0.00  0.00    +0.277 C 
ENDBRANCH  19  21
BRANCH  18  23
ATOM     23  O   UNL     1       5.179  -6.660  12.486  0.00  0.00    -0.488 OA
ATOM     24  C   UNL     1       6.077  -5.975  13.362  0.00  0.00    +0.277 C 
ENDBRANCH  18  23
BRANCH  17  25
ATOM     25  O   UNL     1       6.863  -7.810  10.642  0.00  0.00    -0.491 OA
ATOM     26  C   UNL     1       7.708  -8.364   9.632  0.00  0.00    +0.277 C 
ENDBRANCH  17  25
ENDBRANCH  11  15
BRANCH   1  28
ATOM     27  N   UNL     1       3.393  -7.383   2.526  0.00  0.00    -0.315 N 
ATOM     28  C   UNL     1       3.839  -6.644   3.562  0.00  0.00    +0.218 C 
ATOM     29  O   UNL     1       3.079  -5.907   4.153  0.00  0.00    -0.275 OA
ATOM     30  H   UNL     1       4.001  -7.972   2.054  0.00  0.00    +0.149 HD
BRANCH  27  31
ATOM     31  C   UNL     1       1.990  -7.295   2.115  0.00  0.00    +0.106 C 
BRANCH  31  32
ATOM     32  C   UNL     1       1.748  -8.227   0.926  0.00  0.00    +0.042 C 
BRANCH  32  33
ATOM     33  C   UNL     1       0.282  -8.136   0.496  0.00  0.00    +0.145 C 
BRANCH  33  38
ATOM     34  C   UNL     1      -0.095  -9.824  -4.216  0.00  0.00    +0.067 C 
ATOM     35  C   UNL     1      -0.108  -9.745  -2.711  0.00  0.00    +0.060 A 
ATOM     36  C   UNL     1      -0.433 -10.789  -1.838  0.00  0.00    +0.047 A 
ATOM     37  C   UNL     1      -0.327 -10.322  -0.573  0.00  0.00    +0.036 A 
ATOM     38  N   UNL     1       0.050  -9.028  -0.642  0.00  0.00    -0.268 N 
ATOM     39  N   UNL     1       0.186  -8.691  -1.995  0.00  0.00    -0.176 NA
ATOM     40  C   UNL     1      -0.586 -11.105   0.688  0.00  0.00    +0.065 C 
ENDBRANCH  33  38
ENDBRANCH  32  33
ENDBRANCH  31  32
ENDBRANCH  27  31
ENDBRANCH   1  28
TORSDOF 9
