REMARK  Name = ZINC36397741
REMARK  17 active torsions:
REMARK  status: ('A' for Active; 'I' for Inactive)
REMARK    1  A    between atoms: C_1  and  C_2
REMARK    2  A    between atoms: C_2  and  C_3
REMARK    3  A    between atoms: C_2  and  C_4
REMARK    4  A    between atoms: C_4  and  C_6
REMARK    5  A    between atoms: C_4  and  N_14
REMARK    6  A    between atoms: C_9  and  O_12
REMARK    7  A    between atoms: O_12  and  C_13
REMARK    8  A    between atoms: C_15  and  C_17
REMARK    9  A    between atoms: C_17  and  N_18
REMARK   10  A    between atoms: C_21  and  C_24
REMARK   11  A    between atoms: N_26  and  C_27
REMARK   12  A    between atoms: C_27  and  C_28
REMARK   13  A    between atoms: C_28  and  C_29
REMARK   14  A    between atoms: C_29  and  O_30
REMARK   15  A    between atoms: O_30  and  C_31
REMARK   16  A    between atoms: C_31  and  C_32
REMARK   17  A    between atoms: C_31  and  C_33
REMARK                            x       y       z     vdW  Elec       q    Type
REMARK                         _______ _______ _______ _____ _____    ______ ____
ROOT
ATOM      1  N   UNL     1      -4.000   3.003  -2.113  0.00  0.00    +0.385 N 
ATOM      2  C   UNL     1      -5.013   2.915  -1.055  0.00  0.00    -0.077 C 
ATOM      3  C   UNL     1      -5.525   4.316  -0.716  0.00  0.00    -0.006 C 
ATOM      4  C   UNL     1      -6.146   4.944  -1.967  0.00  0.00    +0.071 C 
ATOM      5  C   UNL     1      -5.102   4.963  -3.088  0.00  0.00    -0.006 C 
ATOM      6  C   UNL     1      -4.606   3.537  -3.339  0.00  0.00    -0.077 C 
ATOM      7  H   UNL     1      -3.255   3.614  -1.813  0.00  0.00    -0.081 HD
ENDROOT
BRANCH   4   8
ATOM      8  C   UNL     1      -6.582   6.354  -1.661  0.00  0.00    +0.216 C 
ATOM      9  O   UNL     1      -6.413   6.812  -0.551  0.00  0.00    -0.276 OA
ATOM     10  N   UNL     1      -7.158   7.104  -2.620  0.00  0.00    -0.315 N 
ATOM     11  H   UNL     1      -7.293   6.737  -3.508  0.00  0.00    +0.149 HD
BRANCH  10  12
ATOM     12  C   UNL     1      -7.582   8.474  -2.322  0.00  0.00    +0.106 C 
BRANCH  12  13
ATOM     13  C   UNL     1      -8.202   9.100  -3.574  0.00  0.00    +0.047 C 
BRANCH  13  14
ATOM     14  C   UNL     1      -8.644  10.531  -3.262  0.00  0.00    +0.161 C 
BRANCH  14  15
ATOM     15  O   UNL     1      -9.223  11.116  -4.431  0.00  0.00    -0.377 OA
BRANCH  15  16
ATOM     16  C   UNL     1      -9.672  12.460  -4.247  0.00  0.00    +0.112 C 
ATOM     17  C   UNL     1      -8.534  13.427  -4.580  0.00  0.00    +0.037 C 
ATOM     18  C   UNL     1     -10.860  12.732  -5.172  0.00  0.00    +0.037 C 
ENDBRANCH  15  16
ENDBRANCH  14  15
ENDBRANCH  13  14
ENDBRANCH  12  13
ENDBRANCH  10  12
ENDBRANCH   4   8
BRANCH   1  19
ATOM     19  C   UNL     1      -3.456   1.665  -2.381  0.00  0.00    +0.019 C 
BRANCH  19  21
ATOM     20  N   UNL     1      -2.142  -0.048  -1.174  0.00  0.00    -0.310 N 
ATOM     21  C   UNL     1      -2.727   1.166  -1.160  0.00  0.00    +0.197 C 
ATOM     22  O   UNL     1      -2.667   1.857  -0.165  0.00  0.00    -0.278 OA
ATOM     23  H   UNL     1      -2.190  -0.601  -1.970  0.00  0.00    +0.149 HD
BRANCH  20  24
ATOM     24  C   UNL     1      -1.433  -0.534   0.013  0.00  0.00    +0.106 C 
BRANCH  24  25
ATOM     25  C   UNL     1      -1.413  -2.041   0.005  0.00  0.00    -0.027 A 
ATOM     26  C   UNL     1      -1.201  -2.721  -1.180  0.00  0.00    +0.009 A 
ATOM     27  C   UNL     1      -1.182  -4.103  -1.190  0.00  0.00    +0.046 A 
ATOM     28  C   UNL     1      -1.376  -4.807  -0.011  0.00  0.00    +0.120 A 
ATOM     29  C   UNL     1      -1.588  -4.121   1.177  0.00  0.00    +0.046 A 
ATOM     30  C   UNL     1      -1.600  -2.740   1.183  0.00  0.00    +0.009 A 
BRANCH  28  31
ATOM     31  O   UNL     1      -1.358  -6.165  -0.018  0.00  0.00    -0.495 OA
ATOM     32  C   UNL     1      -1.565  -6.824   1.233  0.00  0.00    +0.277 C 
ENDBRANCH  28  31
ENDBRANCH  24  25
BRANCH  24  34
ATOM     33  C   UNL     1      -0.019   1.526   0.010  0.00  0.00    +0.009 C 
ATOM     34  C   UNL     1       0.002  -0.004   0.002  0.00  0.00    +0.008 C 
ATOM     35  C   UNL     1       0.742  -0.511   1.242  0.00  0.00    +0.009 C 
ENDBRANCH  24  34
ENDBRANCH  20  24
ENDBRANCH  19  21
ENDBRANCH   1  19
TORSDOF 12
