REMARK  Name = ZINC00301425
REMARK  2 active torsions:
REMARK  status: ('A' for Active; 'I' for Inactive)
REMARK    1  A    between atoms: C_2  and  P_3
REMARK    2  A    between atoms: P_3  and  C_5
REMARK                            x       y       z     vdW  Elec       q    Type
REMARK                         _______ _______ _______ _____ _____    ______ ____
ROOT
ATOM      1  C   UNL     1      -1.652  -1.968  -1.474  0.00  0.00    +0.043 A 
ATOM      2  C   UNL     1      -2.220  -1.467  -2.631  0.00  0.00    +0.014 A 
ATOM      3  C   UNL     1      -2.293  -2.257  -3.763  0.00  0.00    +0.001 A 
ATOM      4  C   UNL     1      -1.798  -3.547  -3.739  0.00  0.00    +0.000 A 
ATOM      5  C   UNL     1      -1.230  -4.048  -2.582  0.00  0.00    +0.001 A 
ATOM      6  C   UNL     1      -1.153  -3.257  -1.451  0.00  0.00    +0.014 A 
ENDROOT
BRANCH   1   7
ATOM      7  P   UNL     1      -1.556  -0.932   0.012  0.00  0.00    +0.285 P 
ATOM      8  O   UNL     1      -2.744   0.056   0.029  0.00  0.00    -0.279 OA
ATOM      9  O   UNL     1      -1.614  -1.828   1.269  0.00  0.00    -0.160 OA
BRANCH   7  11
ATOM     10  C   UNL     1      -0.016   1.306   0.009  0.00  0.00    +0.014 C 
ATOM     11  C   UNL     1       0.002  -0.004   0.002  0.00  0.00    +0.067 C 
ENDBRANCH   7  11
ENDBRANCH   1   7
TORSDOF 2
