REMARK  Name = ZINC62639111
REMARK  3 active torsions:
REMARK  status: ('A' for Active; 'I' for Inactive)
REMARK    1  A    between atoms: C_1  and  N_2
REMARK    2  A    between atoms: C_3  and  C_9
REMARK    3  A    between atoms: N_11  and  C_12
REMARK                            x       y       z     vdW  Elec       q    Type
REMARK                         _______ _______ _______ _____ _____    ______ ____
ROOT
ATOM      1  C   UNL     1      -1.800  -0.956   1.374  0.00  0.00    +0.241 C 
ATOM      2  O   UNL     1      -1.321  -0.317   2.287  0.00  0.00    -0.273 OA
ATOM      3  N   UNL     1      -2.896  -1.712   1.582  0.00  0.00    -0.281 N 
ATOM      4  H   UNL     1      -3.326  -2.159   0.836  0.00  0.00    +0.155 HD
ENDROOT
BRANCH   3   5
ATOM      5  C   UNL     1      -3.414  -1.854   2.877  0.00  0.00    +0.072 A 
ATOM      6  C   UNL     1      -2.587  -1.685   3.978  0.00  0.00    +0.029 A 
ATOM      7  C   UNL     1      -3.098  -1.825   5.254  0.00  0.00    +0.043 A 
ATOM      8  C   UNL     1      -4.435  -2.133   5.437  0.00  0.00    +0.161 A 
ATOM      9  C   UNL     1      -5.265  -2.303   4.339  0.00  0.00    +0.195 A 
ATOM     10  C   UNL     1      -4.757  -2.158   3.059  0.00  0.00    +0.182 A 
ATOM     11  F   UNL     1      -5.566  -2.318   1.988  0.00  0.00    -0.200 F 
ATOM     12  F   UNL     1      -6.569  -2.605   4.519  0.00  0.00    -0.199 F 
ATOM     13  F   UNL     1      -4.931  -2.269   6.686  0.00  0.00    -0.202 F 
ENDBRANCH   3   5
BRANCH   1  16
ATOM     14  C   UNL     1      -0.005   1.446   0.004  0.00  0.00    +0.136 C 
ATOM     15  N   UNL     1       0.013  -0.019   0.005  0.00  0.00    -0.256 N 
ATOM     16  C   UNL     1      -1.169  -0.903   0.006  0.00  0.00    +0.202 C 
ATOM     17  C   UNL     1      -0.554  -2.271  -0.375  0.00  0.00    +0.265 C 
ATOM     18  O   UNL     1       0.816  -2.110   0.041  0.00  0.00    -0.448 OA
ATOM     19  C   UNL     1       1.109  -0.799   0.001  0.00  0.00    +0.403 C 
ATOM     20  O   UNL     1       2.244  -0.365  -0.033  0.00  0.00    -0.226 OA
ENDBRANCH   1  16
TORSDOF 2
