REMARK  Name = ZINC00837691
REMARK  4 active torsions:
REMARK  status: ('A' for Active; 'I' for Inactive)
REMARK    1  A    between atoms: C_1  and  C_2
REMARK    2  A    between atoms: C_9  and  N_21
REMARK    3  A    between atoms: C_10  and  C_11
REMARK    4  A    between atoms: N_13  and  C_14
REMARK                            x       y       z     vdW  Elec       q    Type
REMARK                         _______ _______ _______ _____ _____    ______ ____
ROOT
ATOM      1  C   UNL     1      -0.047   1.517  -0.023  0.00  0.00    +0.008 C 
ATOM      2  C   UNL     1      -0.021  -0.013  -0.023  0.00  0.00    -0.009 C 
ATOM      3  C   UNL     1       0.726  -0.513   1.216  0.00  0.00    +0.008 C 
ATOM      4  C   UNL     1       0.972  -2.019   1.102  0.00  0.00    +0.037 C 
ATOM      5  C   UNL     1      -0.351  -2.711   0.800  0.00  0.00    -0.023 A 
ATOM      6  C   UNL     1      -1.404  -2.018   0.318  0.00  0.00    -0.004 A 
ATOM      7  S   UNL     1      -2.690  -3.220   0.129  0.00  0.00    -0.078 S 
ATOM      8  C   UNL     1      -1.843  -4.626   0.681  0.00  0.00    +0.076 A 
ATOM      9  C   UNL     1      -0.584  -4.132   1.000  0.00  0.00    +0.068 A 
ATOM     10  C   UNL     1      -1.458  -0.552   0.014  0.00  0.00    +0.046 C 
ENDROOT
BRANCH   9  11
ATOM     11  C   UNL     1       0.468  -5.010   1.517  0.00  0.00    +0.251 C 
ATOM     12  O   UNL     1       0.581  -5.183   2.717  0.00  0.00    -0.270 OA
ATOM     13  N   UNL     1       1.312  -5.625   0.665  0.00  0.00    -0.281 N 
ATOM     14  H   UNL     1       1.181  -5.541  -0.292  0.00  0.00    +0.155 HD
BRANCH  13  15
ATOM     15  C   UNL     1       2.376  -6.385   1.161  0.00  0.00    +0.034 A 
ATOM     16  C   UNL     1       3.586  -6.417   0.480  0.00  0.00    +0.024 A 
ATOM     17  C   UNL     1       4.636  -7.164   0.976  0.00  0.00    +0.017 A 
ATOM     18  C   UNL     1       4.481  -7.889   2.143  0.00  0.00    +0.018 A 
ATOM     19  C   UNL     1       3.275  -7.864   2.821  0.00  0.00    +0.017 A 
ATOM     20  C   UNL     1       2.223  -7.114   2.333  0.00  0.00    +0.024 A 
ATOM     21 BR   UNL     1       5.919  -8.917   2.815  0.00  0.00    -0.050 Br
ENDBRANCH  13  15
ENDBRANCH   9  11
BRANCH   8  22
ATOM     22  N   UNL     1      -2.306  -5.924   0.780  0.00  0.00    -0.352 N 
ATOM     23  H   UNL     1      -1.721  -6.625   1.108  0.00  0.00    +0.143 HD
ATOM     24  H   UNL     1      -3.217  -6.135   0.521  0.00  0.00    +0.143 HD
ENDBRANCH   8  22
TORSDOF 3
