REMARK  Name = ZINC39990938
REMARK  1 active torsions:
REMARK  status: ('A' for Active; 'I' for Inactive)
REMARK    1  A    between atoms: C_7  and  C_11
REMARK                            x       y       z     vdW  Elec       q    Type
REMARK                         _______ _______ _______ _____ _____    ______ ____
ROOT
ATOM      1  C   UNL     1       0.666  -3.275  -0.021  0.00  0.00    +0.197 C 
ATOM      2  N   UNL     1      -0.454  -3.034   0.916  0.00  0.00    -0.297 N 
ATOM      3  C   UNL     1      -1.157  -4.134   1.377  0.00  0.00    +0.155 C 
ATOM      4  N   UNL     1      -0.440  -5.252   1.784  0.00  0.00    -0.285 N 
ATOM      5  C   UNL     1       0.642  -5.695   0.887  0.00  0.00    +0.255 C 
ATOM      6  N   UNL     1       1.360  -4.470   0.475  0.00  0.00    -0.272 N 
ATOM      7  C   UNL     1       2.719  -4.684   0.695  0.00  0.00    +0.059 A 
ATOM      8  C   UNL     1       3.832  -3.926   0.344  0.00  0.00    +0.074 A 
ATOM      9  C   UNL     1       5.099  -4.351   0.700  0.00  0.00    +0.164 A 
ATOM     10  C   UNL     1       5.266  -5.533   1.404  0.00  0.00    +0.164 A 
ATOM     11  C   UNL     1       4.165  -6.297   1.751  0.00  0.00    +0.074 A 
ATOM     12  C   UNL     1       2.889  -5.880   1.391  0.00  0.00    +0.055 A 
ATOM     13  N   UNL     1       1.627  -6.508   1.598  0.00  0.00    -0.309 N 
ATOM     14  O   UNL     1       6.523  -5.940   1.752  0.00  0.00    -0.488 OA
ATOM     15  C   UNL     1       7.370  -6.342   0.674  0.00  0.00    +0.232 C 
ATOM     16  C   UNL     1       8.055  -5.137   0.048  0.00  0.00    +0.082 C 
ATOM     17  C   UNL     1       7.066  -4.188  -0.612  0.00  0.00    +0.232 C 
ATOM     18  O   UNL     1       6.195  -3.608   0.360  0.00  0.00    -0.488 OA
ATOM     19  N   UNL     1      -2.460  -4.121   1.428  0.00  0.00    -0.375 N 
ATOM     20  H   UNL     1      -0.687  -2.136   1.197  0.00  0.00    +0.151 HD
ATOM     21  H   UNL     1       1.449  -7.315   2.106  0.00  0.00    +0.149 HD
ATOM     22  H   UNL     1      -2.949  -3.335   1.140  0.00  0.00    +0.158 HD
ATOM     23  H   UNL     1      -0.639  -5.715   2.613  0.00  0.00    +0.152 HD
ATOM     24  H   UNL     1      -2.940  -4.899   1.753  0.00  0.00    +0.158 HD
ENDROOT
BRANCH   1  31
ATOM     25  C   UNL     1       1.963  -0.201   3.271  0.00  0.00    +0.001 A 
ATOM     26  C   UNL     1       2.872   0.740   2.805  0.00  0.00    +0.002 A 
ATOM     27  C   UNL     1       3.304   0.712   1.497  0.00  0.00    +0.026 A 
ATOM     28  C   UNL     1       2.826  -0.268   0.632  0.00  0.00    +0.047 A 
ATOM     29  C   UNL     1       1.905  -1.219   1.110  0.00  0.00    +0.006 A 
ATOM     30  C   UNL     1       1.481  -1.172   2.439  0.00  0.00    +0.010 A 
ATOM     31  C   UNL     1       1.604  -2.095  -0.025  0.00  0.00    +0.016 A 
ATOM     32  C   UNL     1       2.320  -1.648  -1.067  0.00  0.00    +0.090 A 
ATOM     33  N   UNL     1       3.057  -0.557  -0.694  0.00  0.00    -0.360 N 
ATOM     34  H   UNL     1       3.653  -0.061  -1.276  0.00  0.00    +0.165 HD
ENDBRANCH   1  31
TORSDOF 1
