REMARK  Name = ZINC06074043
REMARK  10 active torsions:
REMARK  status: ('A' for Active; 'I' for Inactive)
REMARK    1  A    between atoms: C_1  and  C_2
REMARK    2  A    between atoms: C_2  and  C_4
REMARK    3  A    between atoms: C_6  and  C_25
REMARK    4  A    between atoms: C_8  and  C_22
REMARK    5  A    between atoms: C_9  and  N_14
REMARK    6  A    between atoms: C_11  and  C_12
REMARK    7  A    between atoms: C_11  and  O_13
REMARK    8  A    between atoms: N_14  and  C_15
REMARK    9  A    between atoms: C_22  and  C_24
REMARK   10  A    between atoms: C_28  and  N_31
REMARK                            x       y       z     vdW  Elec       q    Type
REMARK                         _______ _______ _______ _____ _____    ______ ____
ROOT
ATOM      1  C   UNL     1      -0.378   2.034  -1.860  0.00  0.00    +0.098 C 
ATOM      2  C   UNL     1      -0.300   1.229  -0.561  0.00  0.00    +0.067 C 
ATOM      3  C   UNL     1       1.106   1.231  -0.036  0.00  0.00    +0.020 C 
ATOM      4  C   UNL     1       2.174   1.556  -0.782  0.00  0.00    +0.018 C 
ATOM      5  C   UNL     1       2.082   1.966  -2.223  0.00  0.00    +0.086 C 
ATOM      6  C   UNL     1       0.729   1.549  -2.803  0.00  0.00    +0.079 C 
ATOM      7  C   UNL     1       0.544   2.185  -4.182  0.00  0.00    +0.042 C 
ENDROOT
BRANCH   2   8
ATOM      8  C   UNL     1      -1.218   1.847   0.462  0.00  0.00    -0.039 A 
ATOM      9  C   UNL     1      -0.783   2.915   1.224  0.00  0.00    +0.006 A 
ATOM     10  C   UNL     1      -1.626   3.485   2.160  0.00  0.00    +0.033 A 
ATOM     11  C   UNL     1      -2.900   2.980   2.340  0.00  0.00    +0.126 A 
ATOM     12  C   UNL     1      -3.333   1.909   1.581  0.00  0.00    +0.033 A 
ATOM     13  C   UNL     1      -2.492   1.342   0.643  0.00  0.00    +0.006 A 
BRANCH  11  14
ATOM     14  N   UNL     1      -3.801   3.587   3.346  0.00  0.00    +0.056 N 
ATOM     15  O   UNL     1      -4.924   3.143   3.504  0.00  0.00    -0.126 OA
ATOM     16  O   UNL     1      -3.420   4.531   4.014  0.00  0.00    -0.126 OA
ENDBRANCH  11  14
ENDBRANCH   2   8
BRANCH   1  18
ATOM     17  C   UNL     1      -1.028   4.530  -2.259  0.00  0.00    +0.086 C 
ATOM     18  C   UNL     1      -0.181   3.498  -1.560  0.00  0.00    +0.137 C 
ATOM     19  O   UNL     1       0.654   3.843  -0.760  0.00  0.00    -0.297 OA
ENDBRANCH   1  18
BRANCH   3  20
ATOM     20  C   UNL     1       1.315   0.877   1.305  0.00  0.00    +0.158 C 
ATOM     21  O   UNL     1       2.417   1.001   1.801  0.00  0.00    -0.293 OA
ATOM     22  C   UNL     1       0.172   0.343   2.130  0.00  0.00    +0.091 C 
ENDBRANCH   3  20
BRANCH   6  23
ATOM     23  O   UNL     1       0.675   0.126  -2.921  0.00  0.00    -0.388 OA
ATOM     24  H   UNL     1       1.357  -0.248  -3.495  0.00  0.00    +0.210 HD
ENDBRANCH   6  23
BRANCH   4  25
ATOM     25  N   UNL     1       3.406   1.510  -0.200  0.00  0.00    -0.317 N 
ATOM     26  H   UNL     1       3.617   2.105   0.536  0.00  0.00    +0.152 HD
BRANCH  25  27
ATOM     27  C   UNL     1       4.366   0.606  -0.665  0.00  0.00    +0.031 A 
ATOM     28  C   UNL     1       4.004  -0.396  -1.556  0.00  0.00    +0.024 A 
ATOM     29  C   UNL     1       4.955  -1.284  -2.018  0.00  0.00    +0.017 A 
ATOM     30  C   UNL     1       6.265  -1.183  -1.585  0.00  0.00    +0.018 A 
ATOM     31  C   UNL     1       6.628  -0.190  -0.694  0.00  0.00    +0.017 A 
ATOM     32  C   UNL     1       5.682   0.705  -0.233  0.00  0.00    +0.024 A 
ATOM     33 BR   UNL     1       7.563  -2.407  -2.213  0.00  0.00    -0.050 Br
ENDBRANCH  25  27
ENDBRANCH   4  25
TORSDOF 7
