REMARK  Name = ZINC17133585
REMARK  15 active torsions:
REMARK  status: ('A' for Active; 'I' for Inactive)
REMARK    1  A    between atoms: C_1  and  C_2
REMARK    2  A    between atoms: C_3  and  C_32
REMARK    3  A    between atoms: C_5  and  N_25
REMARK    4  A    between atoms: C_6  and  C_7
REMARK    5  A    between atoms: C_7  and  O_9
REMARK    6  A    between atoms: O_9  and  C_10
REMARK    7  A    between atoms: C_10  and  C_12
REMARK    8  A    between atoms: C_10  and  C_13
REMARK    9  A    between atoms: N_15  and  C_16
REMARK   10  A    between atoms: C_21  and  O_22
REMARK   11  A    between atoms: O_22  and  C_23
REMARK   12  A    between atoms: C_26  and  C_28
REMARK   13  A    between atoms: C_28  and  C_29
REMARK   14  A    between atoms: C_28  and  C_30
REMARK   15  A    between atoms: C_28  and  C_31
REMARK                            x       y       z     vdW  Elec       q    Type
REMARK                         _______ _______ _______ _____ _____    ______ ____
ROOT
ATOM      1  C   UNL     1      -3.081   4.991  -0.721  0.00  0.00    +0.343 C 
ATOM      2  O   UNL     1      -2.231   5.629  -1.312  0.00  0.00    -0.245 OA
ENDROOT
BRANCH   1   8
ATOM      3  C   UNL     1      -4.976   4.069  -2.853  0.00  0.00    +0.045 C 
ATOM      4  C   UNL     1      -5.401   5.006  -1.753  0.00  0.00    -0.025 A 
ATOM      5  C   UNL     1      -6.660   5.474  -1.678  0.00  0.00    -0.008 A 
ATOM      6  S   UNL     1      -6.627   6.511  -0.231  0.00  0.00    -0.078 S 
ATOM      7  C   UNL     1      -4.974   6.300   0.239  0.00  0.00    +0.086 A 
ATOM      8  C   UNL     1      -4.475   5.440  -0.734  0.00  0.00    +0.091 A 
ATOM      9  C   UNL     1      -7.819   5.189  -2.597  0.00  0.00    +0.052 C 
BRANCH   7  10
ATOM     10  N   UNL     1      -4.308   6.856   1.320  0.00  0.00    -0.279 N 
ATOM     11  C   UNL     1      -4.963   7.676   2.165  0.00  0.00    +0.223 C 
ATOM     12  O   UNL     1      -6.135   7.929   1.980  0.00  0.00    -0.275 OA
ATOM     13  H   UNL     1      -3.371   6.654   1.469  0.00  0.00    +0.155 HD
BRANCH  11  14
ATOM     14  C   UNL     1      -4.239   8.280   3.341  0.00  0.00    +0.039 C 
ATOM     15  C   UNL     1      -5.204   9.165   4.134  0.00  0.00    +0.020 C 
ATOM     16  C   UNL     1      -3.713   7.163   4.245  0.00  0.00    +0.020 C 
ATOM     17  C   UNL     1      -3.067   9.126   2.839  0.00  0.00    +0.020 C 
ENDBRANCH  11  14
ENDBRANCH   7  10
ENDBRANCH   1   8
BRANCH   1  18
ATOM     18  O   UNL     1      -2.740   3.870  -0.053  0.00  0.00    -0.449 OA
BRANCH  18  19
ATOM     19  C   UNL     1      -1.340   3.485  -0.083  0.00  0.00    +0.259 C 
ATOM     20  C   UNL     1      -0.608   4.131   1.095  0.00  0.00    +0.062 C 
BRANCH  19  21
ATOM     21  C   UNL     1      -1.230   1.985   0.018  0.00  0.00    +0.258 C 
ATOM     22  O   UNL     1      -2.232   1.308   0.107  0.00  0.00    -0.271 OA
ATOM     23  N   UNL     1      -0.017   1.397   0.010  0.00  0.00    -0.279 N 
ATOM     24  H   UNL     1       0.786   1.941   0.016  0.00  0.00    +0.155 HD
BRANCH  23  25
ATOM     25  C   UNL     1       0.084  -0.000  -0.013  0.00  0.00    +0.077 A 
ATOM     26  C   UNL     1      -0.953  -0.764  -0.531  0.00  0.00    +0.047 A 
ATOM     27  C   UNL     1      -0.851  -2.143  -0.552  0.00  0.00    +0.043 A 
ATOM     28  C   UNL     1       0.283  -2.764  -0.058  0.00  0.00    +0.024 A 
ATOM     29  C   UNL     1       1.319  -2.008   0.459  0.00  0.00    +0.049 A 
ATOM     30  C   UNL     1       1.227  -0.626   0.478  0.00  0.00    +0.141 A 
ATOM     31 CL   UNL     1      -2.148  -3.097  -1.200  0.00  0.00    -0.083 Cl
BRANCH  30  32
ATOM     32  O   UNL     1       2.248   0.118   0.981  0.00  0.00    -0.493 OA
ATOM     33  C   UNL     1       3.389  -0.592   1.468  0.00  0.00    +0.277 C 
ENDBRANCH  30  32
ENDBRANCH  23  25
ENDBRANCH  19  21
ENDBRANCH  18  19
ENDBRANCH   1  18
TORSDOF 8
