REMARK  Name = ZINC12568110
REMARK  4 active torsions:
REMARK  status: ('A' for Active; 'I' for Inactive)
REMARK    1  A    between atoms: N_13  and  C_17
REMARK    2  A    between atoms: C_17  and  C_18
REMARK    3  A    between atoms: C_21  and  C_31
REMARK    4  A    between atoms: C_24  and  C_26
REMARK                            x       y       z     vdW  Elec       q    Type
REMARK                         _______ _______ _______ _____ _____    ______ ____
ROOT
ATOM      1  C   UNL     1       6.602   4.112  -0.040  0.00  0.00    +0.215 C 
ENDROOT
BRANCH   1  14
ATOM      2  C   UNL     1      12.447   3.077  -1.014  0.00  0.00    +0.001 A 
ATOM      3  C   UNL     1      13.227   3.549  -2.053  0.00  0.00    +0.004 A 
ATOM      4  C   UNL     1      12.918   4.751  -2.656  0.00  0.00    +0.046 A 
ATOM      5  C   UNL     1      11.824   5.491  -2.221  0.00  0.00    +0.126 A 
ATOM      6  C   UNL     1      11.041   5.013  -1.183  0.00  0.00    +0.027 A 
ATOM      7  C   UNL     1      11.358   3.808  -0.581  0.00  0.00    +0.010 A 
ATOM      8  C   UNL     1       9.847   5.785  -0.694  0.00  0.00    +0.144 C 
ATOM      9  C   UNL     1       9.912   7.234  -1.165  0.00  0.00    +0.081 C 
ATOM     10  C   UNL     1      10.254   7.239  -2.661  0.00  0.00    +0.232 C 
ATOM     11  O   UNL     1      11.554   6.674  -2.831  0.00  0.00    -0.492 OA
ATOM     12  C   UNL     1       8.571   5.129  -1.170  0.00  0.00    +0.252 C 
ATOM     13  O   UNL     1       8.220   4.954  -2.317  0.00  0.00    -0.272 OA
ATOM     14  N   UNL     1       7.905   4.781  -0.050  0.00  0.00    -0.215 N 
ATOM     15  C   UNL     1       8.586   5.118   1.053  0.00  0.00    +0.310 C 
ATOM     16  O   UNL     1       8.192   4.904   2.182  0.00  0.00    -0.252 OA
ATOM     17  N   UNL     1       9.756   5.722   0.770  0.00  0.00    -0.281 N 
ATOM     18  H   UNL     1      10.410   6.049   1.407  0.00  0.00    +0.152 HD
ENDBRANCH   1  14
BRANCH   1  19
ATOM     19  C   UNL     1       5.506   5.147  -0.024  0.00  0.00    +0.253 C 
ATOM     20  O   UNL     1       5.787   6.328  -0.020  0.00  0.00    -0.272 OA
ATOM     21  N   UNL     1       4.215   4.761  -0.013  0.00  0.00    -0.183 N 
ATOM     22  C   UNL     1       3.053   5.663   0.004  0.00  0.00    +0.143 C 
ATOM     23  C   UNL     1       1.848   4.702   0.010  0.00  0.00    +0.088 C 
ATOM     24  C   UNL     1       2.477   3.327  -0.004  0.00  0.00    +0.075 C 
ATOM     25  N   UNL     1       3.763   3.443  -0.010  0.00  0.00    -0.180 NA
BRANCH  24  26
ATOM     26  C   UNL     1       1.741   2.059  -0.004  0.00  0.00    +0.035 A 
ATOM     27  C   UNL     1       2.233   0.765  -0.015  0.00  0.00    +0.017 A 
ATOM     28  C   UNL     1       1.333  -0.276  -0.012  0.00  0.00    +0.008 A 
ATOM     29  C   UNL     1       0.002  -0.004   0.002  0.00  0.00    +0.046 A 
ATOM     30  S   UNL     1      -0.022   1.781   0.012  0.00  0.00    -0.095 S 
ENDBRANCH  24  26
BRANCH  22  31
ATOM     31  C   UNL     1       3.035   6.527  -1.231  0.00  0.00    +0.013 A 
ATOM     32  C   UNL     1       2.610   7.807  -1.371  0.00  0.00    +0.013 A 
ATOM     33  C   UNL     1       2.692   8.408  -2.613  0.00  0.00    +0.008 A 
ATOM     34  C   UNL     1       3.185   7.697  -3.656  0.00  0.00    +0.045 A 
ATOM     35  S   UNL     1       3.560   6.129  -2.890  0.00  0.00    -0.100 S 
ENDBRANCH  22  31
ENDBRANCH   1  19
TORSDOF 4
