REMARK  Name = ZINC08685141
REMARK  12 active torsions:
REMARK  status: ('A' for Active; 'I' for Inactive)
REMARK    1  A    between atoms: C_1  and  C_2
REMARK    2  A    between atoms: C_2  and  C_3
REMARK    3  A    between atoms: C_3  and  C_5
REMARK    4  A    between atoms: C_3  and  N_30
REMARK    5  A    between atoms: C_8  and  S_16
REMARK    6  A    between atoms: N_9  and  C_10
REMARK    7  A    between atoms: S_16  and  C_17
REMARK    8  A    between atoms: C_17  and  C_18
REMARK    9  A    between atoms: N_20  and  C_21
REMARK   10  A    between atoms: C_26  and  C_27
REMARK   11  A    between atoms: N_30  and  C_31
REMARK   12  A    between atoms: N_30  and  C_32
REMARK                            x       y       z     vdW  Elec       q    Type
REMARK                         _______ _______ _______ _____ _____    ______ ____
ROOT
ATOM      1  C   UNL     1       1.052  -1.976   1.119  0.00  0.00    +0.121 A 
ATOM      2  N   UNL     1       0.072  -2.829   1.224  0.00  0.00    -0.135 NA
ATOM      3  N   UNL     1       0.499  -4.020   0.998  0.00  0.00    -0.123 NA
ATOM      4  C   UNL     1       1.784  -3.991   0.734  0.00  0.00    +0.192 A 
ATOM      5  N   UNL     1       2.176  -2.685   0.798  0.00  0.00    -0.304 N 
ENDROOT
BRANCH   5   6
ATOM      6  C   UNL     1       3.523  -2.154   0.573  0.00  0.00    +0.091 C 
ATOM      7  C   UNL     1       3.976  -2.496  -0.848  0.00  0.00    +0.025 C 
ATOM      8  C   UNL     1       5.382  -1.941  -1.083  0.00  0.00    +0.002 C 
ATOM      9  C   UNL     1       6.351  -2.563  -0.075  0.00  0.00    +0.000 C 
ATOM     10  C   UNL     1       5.898  -2.221   1.346  0.00  0.00    +0.002 C 
ATOM     11  C   UNL     1       4.492  -2.776   1.581  0.00  0.00    +0.025 C 
ENDBRANCH   5   6
BRANCH   1  12
ATOM     12  C   UNL     1       0.961  -0.484   1.310  0.00  0.00    +0.000 C 
BRANCH  12  13
ATOM     13  N   UNL     1       0.178  -0.192   2.518  0.00  0.00    +0.383 N 
ATOM     14  C   UNL     1       0.888  -0.703   3.697  0.00  0.00    -0.096 C 
ATOM     15  C   UNL     1      -0.001   1.261   2.645  0.00  0.00    -0.096 C 
ATOM     16  H   UNL     1      -0.725  -0.637   2.449  0.00  0.00    -0.082 HD
ENDBRANCH  12  13
BRANCH  12  18
ATOM     17  C   UNL     1       1.118  -0.118  -1.157  0.00  0.00    +0.002 C 
ATOM     18  C   UNL     1       0.277   0.145   0.094  0.00  0.00    -0.011 C 
ENDBRANCH  12  18
ENDBRANCH   1  12
BRANCH   4  19
ATOM     19  S   UNL     1       2.809  -5.376   0.361  0.00  0.00    -0.077 S 
BRANCH  19  20
ATOM     20  C   UNL     1       1.677  -6.791   0.432  0.00  0.00    +0.173 C 
BRANCH  20  21
ATOM     21  C   UNL     1       2.436  -8.057   0.128  0.00  0.00    +0.228 C 
ATOM     22  O   UNL     1       3.623  -8.009  -0.113  0.00  0.00    -0.275 OA
ATOM     23  N   UNL     1       1.794  -9.243   0.124  0.00  0.00    -0.284 N 
ATOM     24  H   UNL     1       0.858  -9.289   0.372  0.00  0.00    +0.155 HD
BRANCH  23  25
ATOM     25  C   UNL     1       2.478 -10.403  -0.237  0.00  0.00    +0.052 A 
ATOM     26  C   UNL     1       3.819 -10.552   0.086  0.00  0.00    +0.044 A 
ATOM     27  C   UNL     1       4.494 -11.703  -0.273  0.00  0.00    +0.043 A 
ATOM     28  C   UNL     1       3.839 -12.716  -0.956  0.00  0.00    +0.021 A 
ATOM     29  C   UNL     1       2.507 -12.585  -1.285  0.00  0.00    +0.022 A 
ATOM     30  C   UNL     1       1.810 -11.429  -0.924  0.00  0.00    +0.073 A 
ATOM     31 CL   UNL     1       6.172 -11.881   0.133  0.00  0.00    -0.083 Cl
BRANCH  30  32
ATOM     32  C   UNL     1       0.425 -11.290  -1.257  0.00  0.00    +0.101 C 
ATOM     33  N   UNL     1      -0.675 -11.179  -1.522  0.00  0.00    -0.191 NA
ENDBRANCH  30  32
ENDBRANCH  23  25
ENDBRANCH  20  21
ENDBRANCH  19  20
ENDBRANCH   4  19
TORSDOF 9
