REMARK  Name = ZINC38796875
REMARK  6 active torsions:
REMARK  status: ('A' for Active; 'I' for Inactive)
REMARK    1  A    between atoms: C_4  and  N_7
REMARK    2  A    between atoms: C_10  and  C_13
REMARK    3  A    between atoms: C_13  and  S_14
REMARK    4  A    between atoms: S_14  and  C_15
REMARK    5  A    between atoms: C_19  and  C_24
REMARK    6  A    between atoms: N_20  and  C_21
REMARK                            x       y       z     vdW  Elec       q    Type
REMARK                         _______ _______ _______ _____ _____    ______ ____
ROOT
ATOM      1  C   UNL     1       7.588  -6.411   2.069  0.00  0.00    +0.237 C 
ATOM      2  N   UNL     1       7.249  -7.652   1.354  0.00  0.00    -0.237 N 
ATOM      3  N   UNL     1       8.101  -7.717   0.245  0.00  0.00    -0.169 NA
ATOM      4  C   UNL     1       8.902  -6.685   0.200  0.00  0.00    +0.147 C 
ATOM      5  N   UNL     1       8.676  -5.817   1.275  0.00  0.00    -0.282 N 
ATOM      6  H   UNL     1       6.570  -8.298   1.602  0.00  0.00    +0.171 HD
ENDROOT
BRANCH   4   7
ATOM      7  C   UNL     1       9.867  -6.475  -0.797  0.00  0.00    +0.022 C 
ATOM      8  C   UNL     1      10.076  -7.242  -1.943  0.00  0.00    +0.006 A 
ATOM      9  C   UNL     1       9.438  -8.396  -2.448  0.00  0.00    +0.010 A 
ATOM     10  C   UNL     1       9.861  -8.942  -3.617  0.00  0.00    +0.001 A 
ATOM     11  C   UNL     1      10.920  -8.390  -4.342  0.00  0.00    +0.002 A 
ATOM     12  C   UNL     1      11.578  -7.283  -3.916  0.00  0.00    +0.026 A 
ATOM     13  C   UNL     1      11.192  -6.657  -2.703  0.00  0.00    +0.043 A 
ATOM     14  N   UNL     1      11.662  -5.591  -2.084  0.00  0.00    -0.380 N 
ATOM     15  C   UNL     1      10.894  -5.366  -0.856  0.00  0.00    +0.152 C 
ATOM     16  H   UNL     1      12.397  -5.040  -2.395  0.00  0.00    +0.160 HD
ENDBRANCH   4   7
BRANCH   5  17
ATOM     17  C   UNL     1       9.380  -4.563   1.555  0.00  0.00    +0.078 C 
ATOM     18  C   UNL     1       9.005  -3.812   2.834  0.00  0.00    +0.024 C 
ATOM     19  C   UNL     1       8.574  -3.266   1.472  0.00  0.00    +0.024 C 
ENDBRANCH   5  17
BRANCH   1  20
ATOM     20  S   UNL     1       6.157  -5.297   2.120  0.00  0.00    -0.112 S 
BRANCH  20  21
ATOM     21  C   UNL     1       5.722  -5.061   0.375  0.00  0.00    +0.128 C 
BRANCH  21  25
ATOM     22  N   UNL     1       3.607  -0.657  -0.022  0.00  0.00    -0.294 N 
ATOM     23  C   UNL     1       3.632  -2.039   0.086  0.00  0.00    +0.163 A 
ATOM     24  N   UNL     1       4.677  -2.834   0.175  0.00  0.00    -0.229 NA
ATOM     25  C   UNL     1       4.532  -4.143   0.274  0.00  0.00    +0.060 A 
ATOM     26  C   UNL     1       3.265  -4.624   0.280  0.00  0.00    +0.072 A 
ATOM     27  S   UNL     1       2.333  -3.107   0.144  0.00  0.00    -0.060 S 
ATOM     28  H   UNL     1       4.436  -0.163  -0.126  0.00  0.00    +0.154 HD
BRANCH  22  32
ATOM     29  C   UNL     1      -0.025   1.377   0.104  0.00  0.00    +0.000 A 
ATOM     30  C   UNL     1       0.148   0.228   0.853  0.00  0.00    +0.002 A 
ATOM     31  C   UNL     1       1.351  -0.449   0.814  0.00  0.00    +0.023 A 
ATOM     32  C   UNL     1       2.388   0.026   0.020  0.00  0.00    +0.033 A 
ATOM     33  C   UNL     1       2.211   1.181  -0.731  0.00  0.00    +0.023 A 
ATOM     34  C   UNL     1       1.005   1.853  -0.686  0.00  0.00    +0.002 A 
ENDBRANCH  22  32
ENDBRANCH  21  25
ENDBRANCH  20  21
ENDBRANCH   1  20
TORSDOF 6
