REMARK  Name = ZINC44388730
REMARK  6 active torsions:
REMARK  status: ('A' for Active; 'I' for Inactive)
REMARK    1  A    between atoms: C_1  and  C_2
REMARK    2  A    between atoms: C_2  and  O_3
REMARK    3  A    between atoms: O_3  and  C_4
REMARK    4  A    between atoms: C_13  and  C_14
REMARK    5  A    between atoms: N_20  and  C_22
REMARK    6  A    between atoms: C_27  and  C_29
REMARK                            x       y       z     vdW  Elec       q    Type
REMARK                         _______ _______ _______ _____ _____    ______ ____
ROOT
ATOM      1  C   UNL     1       1.984  -1.423  -3.481  0.00  0.00    +0.253 C 
ATOM      2  O   UNL     1       3.135  -1.042  -3.383  0.00  0.00    -0.270 OA
ATOM      3  N   UNL     1       1.227  -1.022  -4.521  0.00  0.00    -0.265 N 
ATOM      4  C   UNL     1       1.765  -0.166  -5.490  0.00  0.00    +0.153 A 
ATOM      5  C   UNL     1       1.097   0.327  -6.607  0.00  0.00    +0.042 A 
ATOM      6  C   UNL     1       1.964   1.131  -7.298  0.00  0.00    +0.129 A 
ATOM      7  N   UNL     1       3.138   1.128  -6.637  0.00  0.00    -0.251 N 
ATOM      8  N   UNL     1       2.990   0.316  -5.501  0.00  0.00    -0.154 NA
ATOM      9  C   UNL     1       4.351   1.849  -7.031  0.00  0.00    +0.174 C 
ATOM     10  N   UNL     1       1.584   1.796  -8.463  0.00  0.00    -0.270 N 
ATOM     11  C   UNL     1       0.276   1.795  -8.797  0.00  0.00    +0.219 C 
ATOM     12  O   UNL     1      -0.050   2.200  -9.893  0.00  0.00    -0.275 OA
ATOM     13  C   UNL     1      -0.788   1.308  -7.856  0.00  0.00    +0.109 C 
ATOM     14  C   UNL     1      -0.316   0.080  -7.070  0.00  0.00    +0.064 C 
ATOM     15  H   UNL     1       0.309  -1.326  -4.598  0.00  0.00    +0.157 HD
ATOM     16  H   UNL     1       2.240   2.246  -9.017  0.00  0.00    +0.156 HD
ENDROOT
BRANCH   1  26
ATOM     17  C   UNL     1       0.776  -1.806  -1.336  0.00  0.00    +0.133 A 
ATOM     18  C   UNL     1       0.237  -2.666  -0.377  0.00  0.00    +0.047 A 
ATOM     19  C   UNL     1       0.320  -4.016  -0.499  0.00  0.00    +0.012 A 
ATOM     20  C   UNL     1       0.958  -4.601  -1.608  0.00  0.00    -0.017 A 
ATOM     21  C   UNL     1       1.048  -5.997  -1.743  0.00  0.00    +0.008 A 
ATOM     22  C   UNL     1       1.674  -6.529  -2.830  0.00  0.00    +0.001 A 
ATOM     23  C   UNL     1       2.227  -5.711  -3.811  0.00  0.00    +0.001 A 
ATOM     24  C   UNL     1       2.157  -4.353  -3.711  0.00  0.00    +0.009 A 
ATOM     25  C   UNL     1       1.521  -3.772  -2.607  0.00  0.00    -0.002 A 
ATOM     26  C   UNL     1       1.419  -2.321  -2.463  0.00  0.00    +0.086 A 
BRANCH  17  27
ATOM     27  O   UNL     1       0.671  -0.465  -1.174  0.00  0.00    -0.491 OA
BRANCH  27  29
ATOM     28  C   UNL     1      -0.019   1.526   0.010  0.00  0.00    +0.048 C 
ATOM     29  C   UNL     1       0.002  -0.004   0.002  0.00  0.00    +0.226 C 
ENDBRANCH  27  29
ENDBRANCH  17  27
ENDBRANCH   1  26
BRANCH  14  30
ATOM     30  C   UNL     1      -0.354  -1.137  -7.959  0.00  0.00    -0.039 A 
ATOM     31  C   UNL     1       0.390  -1.165  -9.124  0.00  0.00    +0.004 A 
ATOM     32  C   UNL     1       0.356  -2.280  -9.939  0.00  0.00    +0.000 A 
ATOM     33  C   UNL     1      -0.422  -3.368  -9.590  0.00  0.00    +0.000 A 
ATOM     34  C   UNL     1      -1.166  -3.340  -8.425  0.00  0.00    +0.000 A 
ATOM     35  C   UNL     1      -1.128  -2.226  -7.607  0.00  0.00    +0.004 A 
ENDBRANCH  14  30
TORSDOF 4
