REMARK  Name = ZINC62665068
REMARK  5 active torsions:
REMARK  status: ('A' for Active; 'I' for Inactive)
REMARK    1  A    between atoms: C_1  and  N_2
REMARK    2  A    between atoms: N_2  and  C_3
REMARK    3  A    between atoms: N_2  and  S_4
REMARK    4  A    between atoms: S_4  and  N_7
REMARK    5  A    between atoms: C_11  and  C_14
REMARK                            x       y       z     vdW  Elec       q    Type
REMARK                         _______ _______ _______ _____ _____    ______ ____
ROOT
ATOM      1  N   UNL     1       1.581  -1.045  -1.877  0.00  0.00    -0.163 NA
ATOM      2  C   UNL     1       2.282  -0.047  -2.698  0.00  0.00    +0.125 C 
ATOM      3  C   UNL     1       2.931  -0.763  -3.887  0.00  0.00    +0.098 C 
ATOM      4  N   UNL     1       3.772  -1.862  -3.393  0.00  0.00    -0.307 NA
ATOM      5  C   UNL     1       2.968  -2.875  -2.696  0.00  0.00    +0.100 C 
ATOM      6  C   UNL     1       2.322  -2.242  -1.453  0.00  0.00    +0.134 C 
ATOM      7  H   UNL     1       4.303  -2.276  -4.144  0.00  0.00    +0.123 HD
ENDROOT
BRANCH   5   8
ATOM      8  C   UNL     1       3.855  -4.018  -2.273  0.00  0.00    -0.029 A 
ATOM      9  C   UNL     1       5.120  -3.763  -1.775  0.00  0.00    +0.005 A 
ATOM     10  C   UNL     1       5.934  -4.811  -1.388  0.00  0.00    +0.000 A 
ATOM     11  C   UNL     1       5.483  -6.114  -1.498  0.00  0.00    +0.000 A 
ATOM     12  C   UNL     1       4.219  -6.368  -1.995  0.00  0.00    +0.000 A 
ATOM     13  C   UNL     1       3.403  -5.320  -2.379  0.00  0.00    +0.005 A 
ENDBRANCH   5   8
BRANCH   1  14
ATOM     14  S   UNL     1      -0.000  -0.824  -1.437  0.00  0.00    +0.099 S 
ATOM     15  O   UNL     1      -0.531  -2.115  -1.167  0.00  0.00    -0.141 OA
ATOM     16  O   UNL     1      -0.572   0.049  -2.401  0.00  0.00    -0.141 OA
BRANCH  14  18
ATOM     17  C   UNL     1      -0.018   1.461   0.010  0.00  0.00    +0.132 C 
ATOM     18  N   UNL     1       0.002  -0.004   0.002  0.00  0.00    -0.172 NA
ATOM     19  C   UNL     1       0.024  -0.743   1.267  0.00  0.00    +0.132 C 
ENDBRANCH  14  18
ENDBRANCH   1  14
TORSDOF 3
