REMARK  Name = ZINC09428368
REMARK  9 active torsions:
REMARK  status: ('A' for Active; 'I' for Inactive)
REMARK    1  A    between atoms: C_1  and  C_2
REMARK    2  A    between atoms: C_2  and  C_34
REMARK    3  A    between atoms: C_6  and  C_23
REMARK    4  A    between atoms: C_8  and  C_21
REMARK    5  A    between atoms: C_9  and  N_20
REMARK    6  A    between atoms: N_10  and  C_11
REMARK    7  A    between atoms: C_14  and  N_17
REMARK    8  A    between atoms: C_27  and  O_29
REMARK    9  A    between atoms: O_29  and  C_30
REMARK                            x       y       z     vdW  Elec       q    Type
REMARK                         _______ _______ _______ _____ _____    ______ ____
ROOT
ATOM      1  C   UNL     1       0.128   3.394   3.134  0.00  0.00    +0.011 C 
ATOM      2  C   UNL     1      -0.737   3.672   1.903  0.00  0.00    -0.023 C 
ATOM      3  C   UNL     1       0.113   4.334   0.816  0.00  0.00    +0.058 C 
ATOM      4  C   UNL     1       1.226   3.401   0.407  0.00  0.00    +0.025 C 
ATOM      5  C   UNL     1       1.063   2.062   0.451  0.00  0.00    +0.025 C 
ATOM      6  C   UNL     1       2.168   1.132   0.018  0.00  0.00    +0.097 C 
ATOM      7  C   UNL     1       3.492   1.839  -0.007  0.00  0.00    +0.077 C 
ATOM      8  C   UNL     1       3.563   3.195  -0.027  0.00  0.00    +0.107 C 
ATOM      9  N   UNL     1       2.410   3.947  -0.015  0.00  0.00    -0.260 N 
ATOM     10  C   UNL     1      -0.143   1.494   0.898  0.00  0.00    +0.162 C 
ATOM     11  O   UNL     1      -0.260   0.284   0.917  0.00  0.00    -0.292 OA
ATOM     12  C   UNL     1      -1.292   2.354   1.347  0.00  0.00    +0.086 C 
ATOM     13  C   UNL     1      -1.893   4.599   2.287  0.00  0.00    +0.011 C 
ENDROOT
BRANCH   9  14
ATOM     14  C   UNL     1       2.448   5.281  -0.438  0.00  0.00    +0.040 A 
ATOM     15  C   UNL     1       2.167   5.600  -1.761  0.00  0.00    +0.026 A 
ATOM     16  C   UNL     1       2.201   6.917  -2.174  0.00  0.00    +0.034 A 
ATOM     17  C   UNL     1       2.524   7.917  -1.275  0.00  0.00    +0.126 A 
ATOM     18  C   UNL     1       2.809   7.603   0.041  0.00  0.00    +0.034 A 
ATOM     19  C   UNL     1       2.772   6.288   0.462  0.00  0.00    +0.026 A 
BRANCH  17  20
ATOM     20  N   UNL     1       2.565   9.328  -1.723  0.00  0.00    +0.056 N 
ATOM     21  O   UNL     1       2.850  10.209  -0.932  0.00  0.00    -0.126 OA
ATOM     22  O   UNL     1       2.314   9.606  -2.881  0.00  0.00    -0.126 OA
ENDBRANCH  17  20
ENDBRANCH   9  14
BRANCH   6  23
ATOM     23  C   UNL     1       1.861   0.608  -1.361  0.00  0.00    -0.031 A 
ATOM     24  C   UNL     1       1.718   1.487  -2.418  0.00  0.00    +0.005 A 
ATOM     25  C   UNL     1       1.441   1.009  -3.685  0.00  0.00    +0.004 A 
ATOM     26  C   UNL     1       1.296  -0.349  -3.896  0.00  0.00    +0.045 A 
ATOM     27  C   UNL     1       1.434  -1.233  -2.836  0.00  0.00    +0.120 A 
ATOM     28  C   UNL     1       1.717  -0.750  -1.566  0.00  0.00    +0.050 A 
BRANCH  27  29
ATOM     29  O   UNL     1       1.293  -2.569  -3.041  0.00  0.00    -0.495 OA
ATOM     30  C   UNL     1       1.002  -2.993  -4.374  0.00  0.00    +0.277 C 
ENDBRANCH  27  29
ENDBRANCH   6  23
BRANCH   8  31
ATOM     31  N   UNL     1       4.788   3.817  -0.057  0.00  0.00    -0.345 N 
ATOM     32  H   UNL     1       4.843   4.782   0.017  0.00  0.00    +0.144 HD
ATOM     33  H   UNL     1       5.597   3.290  -0.154  0.00  0.00    +0.144 HD
ENDBRANCH   8  31
BRANCH   7  34
ATOM     34  C   UNL     1       4.700   1.070  -0.011  0.00  0.00    +0.099 C 
ATOM     35  N   UNL     1       5.658   0.460  -0.015  0.00  0.00    -0.191 NA
ENDBRANCH   7  34
TORSDOF 6
