REMARK  Name = ZINC20351760
REMARK  10 active torsions:
REMARK  status: ('A' for Active; 'I' for Inactive)
REMARK    1  A    between atoms: C_1  and  C_2
REMARK    2  A    between atoms: C_2  and  O_3
REMARK    3  A    between atoms: O_3  and  C_4
REMARK    4  A    between atoms: C_4  and  C_6
REMARK    5  A    between atoms: C_7  and  C_35
REMARK    6  A    between atoms: C_11  and  C_13
REMARK    7  A    between atoms: C_25  and  C_31
REMARK    8  A    between atoms: C_27  and  C_30
REMARK    9  A    between atoms: C_31  and  O_33
REMARK   10  A    between atoms: O_33  and  C_34
REMARK                            x       y       z     vdW  Elec       q    Type
REMARK                         _______ _______ _______ _____ _____    ______ ____
ROOT
ATOM      1  C   UNL     1      -0.836   1.636  -3.539  0.00  0.00    +0.065 C 
ATOM      2  C   UNL     1      -0.262   1.375  -4.726  0.00  0.00    +0.016 C 
ATOM      3  N   UNL     1      -0.846   1.799  -5.887  0.00  0.00    -0.321 N 
ATOM      4  C   UNL     1      -1.773   2.807  -5.873  0.00  0.00    +0.016 C 
ATOM      5  C   UNL     1      -2.417   3.129  -4.731  0.00  0.00    +0.025 C 
ATOM      6  C   UNL     1      -2.135   2.382  -3.450  0.00  0.00    +0.093 C 
ATOM      7  C   UNL     1      -3.374   4.160  -4.704  0.00  0.00    +0.176 C 
ATOM      8  O   UNL     1      -3.924   4.436  -3.657  0.00  0.00    -0.291 OA
ATOM      9  C   UNL     1      -3.728   4.927  -5.949  0.00  0.00    +0.171 C 
ATOM     10  C   UNL     1      -3.504   4.028  -7.169  0.00  0.00    +0.013 C 
ATOM     11  C   UNL     1      -2.051   3.546  -7.158  0.00  0.00    +0.055 C 
ATOM     12  C   UNL     1      -3.777   4.821  -8.449  0.00  0.00    +0.009 C 
ATOM     13  C   UNL     1       1.036   0.610  -4.778  0.00  0.00    +0.061 C 
ATOM     14  H   UNL     1      -0.574   1.329  -6.843  0.00  0.00    +0.152 HD
ENDROOT
BRANCH   6  15
ATOM     15  C   UNL     1      -3.250   1.404  -3.186  0.00  0.00    -0.018 A 
ATOM     16  C   UNL     1      -3.504   0.387  -4.088  0.00  0.00    +0.055 A 
ATOM     17  C   UNL     1      -4.529  -0.513  -3.847  0.00  0.00    +0.167 A 
ATOM     18  C   UNL     1      -5.302  -0.392  -2.695  0.00  0.00    +0.167 A 
ATOM     19  C   UNL     1      -5.043   0.628  -1.795  0.00  0.00    +0.065 A 
ATOM     20  C   UNL     1      -4.014   1.521  -2.039  0.00  0.00    +0.026 A 
ATOM     21 BR   UNL     1      -3.657   2.909  -0.805  0.00  0.00    -0.050 Br
ATOM     22  O   UNL     1      -6.235  -1.389  -2.688  0.00  0.00    -0.453 OA
ATOM     23  C   UNL     1      -6.290  -1.872  -4.044  0.00  0.00    +0.466 C 
ATOM     24  O   UNL     1      -4.978  -1.586  -4.563  0.00  0.00    -0.453 OA
ENDBRANCH   6  15
BRANCH   1  25
ATOM     25  C   UNL     1      -0.207   1.194  -2.352  0.00  0.00    +0.338 C 
ATOM     26  O   UNL     1       0.785   0.493  -2.414  0.00  0.00    -0.245 OA
BRANCH  25  27
ATOM     27  O   UNL     1      -0.708   1.549  -1.150  0.00  0.00    -0.462 OA
BRANCH  27  29
ATOM     28  C   UNL     1      -0.731   1.569   1.266  0.00  0.00    +0.048 C 
ATOM     29  C   UNL     1      -0.022   1.067   0.007  0.00  0.00    +0.229 C 
ENDBRANCH  27  29
ENDBRANCH  25  27
ENDBRANCH   1  25
BRANCH   9  30
ATOM     30  C   UNL     1      -5.174   5.345  -5.889  0.00  0.00    +0.318 C 
ATOM     31  O   UNL     1      -5.947   4.972  -6.740  0.00  0.00    -0.250 OA
BRANCH  30  32
ATOM     32  O   UNL     1      -5.604   6.133  -4.891  0.00  0.00    -0.467 OA
ATOM     33  C   UNL     1      -7.010   6.496  -4.897  0.00  0.00    +0.280 C 
ENDBRANCH  30  32
ENDBRANCH   9  30
TORSDOF 6
