REMARK  Name = ZINC35964306
REMARK  10 active torsions:
REMARK  status: ('A' for Active; 'I' for Inactive)
REMARK    1  A    between atoms: C_1  and  C_2
REMARK    2  A    between atoms: C_2  and  N_3
REMARK    3  A    between atoms: C_6  and  C_11
REMARK    4  A    between atoms: N_19  and  C_21
REMARK    5  A    between atoms: C_21  and  C_23
REMARK    6  A    between atoms: C_21  and  C_27
REMARK    7  A    between atoms: C_23  and  C_24
REMARK    8  A    between atoms: C_24  and  C_25
REMARK    9  A    between atoms: C_24  and  C_26
REMARK   10  A    between atoms: N_29  and  C_30
REMARK                            x       y       z     vdW  Elec       q    Type
REMARK                         _______ _______ _______ _____ _____    ______ ____
ROOT
ATOM      1  N   UNL     1      -1.852  -1.373  -0.038  0.00  0.00    -0.257 N 
ATOM      2  C   UNL     1      -2.382  -1.338   1.220  0.00  0.00    +0.042 C 
ATOM      3  C   UNL     1      -3.695  -1.557   1.431  0.00  0.00    +0.058 C 
ATOM      4  C   UNL     1      -4.565  -1.843   0.223  0.00  0.00    +0.142 C 
ATOM      5  N   UNL     1      -3.898  -1.859  -1.090  0.00  0.00    -0.288 N 
ATOM      6  C   UNL     1      -2.573  -1.615  -1.140  0.00  0.00    +0.307 C 
ATOM      7  O   UNL     1      -2.015  -1.622  -2.220  0.00  0.00    -0.252 OA
ATOM      8  C   UNL     1      -3.993  -1.468   2.806  0.00  0.00    +0.247 C 
ATOM      9  O   UNL     1      -5.103  -1.622   3.282  0.00  0.00    -0.270 OA
ATOM     10  N   UNL     1      -2.890  -1.190   3.525  0.00  0.00    -0.281 N 
ATOM     11  C   UNL     1      -1.769  -1.083   2.579  0.00  0.00    +0.160 C 
ATOM     12  H   UNL     1      -4.401  -2.036  -1.900  0.00  0.00    +0.151 HD
ENDROOT
BRANCH   4  13
ATOM     13  C   UNL     1      -5.655  -0.803   0.178  0.00  0.00    -0.023 A 
ATOM     14  C   UNL     1      -5.391   0.453  -0.336  0.00  0.00    +0.006 A 
ATOM     15  C   UNL     1      -6.390   1.407  -0.377  0.00  0.00    +0.000 A 
ATOM     16  C   UNL     1      -7.654   1.105   0.095  0.00  0.00    +0.000 A 
ATOM     17  C   UNL     1      -7.918  -0.152   0.608  0.00  0.00    +0.000 A 
ATOM     18  C   UNL     1      -6.920  -1.107   0.645  0.00  0.00    +0.006 A 
ENDBRANCH   4  13
BRANCH   1  20
ATOM     19  C   UNL     1      -0.175   0.374  -0.387  0.00  0.00    +0.025 C 
ATOM     20  C   UNL     1      -0.416  -1.125  -0.192  0.00  0.00    +0.111 C 
ENDBRANCH   1  20
BRANCH  10  21
ATOM     21  C   UNL     1      -2.818  -1.025   4.979  0.00  0.00    +0.163 C 
BRANCH  21  22
ATOM     22  C   UNL     1      -3.099  -2.345   5.649  0.00  0.00    +0.238 C 
ATOM     23  O   UNL     1      -3.336  -3.327   4.978  0.00  0.00    -0.273 OA
ATOM     24  N   UNL     1      -3.088  -2.434   6.994  0.00  0.00    -0.284 N 
ATOM     25  H   UNL     1      -2.970  -1.635   7.531  0.00  0.00    +0.155 HD
BRANCH  24  26
ATOM     26  C   UNL     1      -3.246  -3.679   7.614  0.00  0.00    +0.034 A 
ATOM     27  C   UNL     1      -3.910  -3.770   8.830  0.00  0.00    +0.026 A 
ATOM     28  C   UNL     1      -4.065  -4.999   9.441  0.00  0.00    +0.040 A 
ATOM     29  C   UNL     1      -3.558  -6.140   8.841  0.00  0.00    +0.124 A 
ATOM     30  C   UNL     1      -2.895  -6.051   7.629  0.00  0.00    +0.040 A 
ATOM     31  C   UNL     1      -2.744  -4.825   7.012  0.00  0.00    +0.026 A 
ATOM     32  F   UNL     1      -3.710  -7.341   9.441  0.00  0.00    -0.205 F 
ENDBRANCH  24  26
ENDBRANCH  21  22
BRANCH  21  33
ATOM     33  C   UNL     1      -3.857   0.006   5.426  0.00  0.00    +0.035 C 
BRANCH  33  34
ATOM     34  C   UNL     1      -3.450   1.392   4.924  0.00  0.00    -0.015 C 
ATOM     35  C   UNL     1      -3.622   1.455   3.405  0.00  0.00    +0.007 C 
ATOM     36  C   UNL     1      -4.334   2.453   5.582  0.00  0.00    +0.007 C 
ENDBRANCH  33  34
ENDBRANCH  21  33
ENDBRANCH  10  21
TORSDOF 7
