REMARK  Name = ZINC16361935
REMARK  5 active torsions:
REMARK  status: ('A' for Active; 'I' for Inactive)
REMARK    1  A    between atoms: C_1  and  C_2
REMARK    2  A    between atoms: C_3  and  C_12
REMARK    3  A    between atoms: C_13  and  C_14
REMARK    4  A    between atoms: N_24  and  C_25
REMARK    5  A    between atoms: C_30  and  N_31
REMARK                            x       y       z     vdW  Elec       q    Type
REMARK                         _______ _______ _______ _____ _____    ______ ____
ROOT
ATOM      1  C   UNL     1       2.955   4.233   1.190  0.00  0.00    +0.141 A 
ATOM      2  N   UNL     1       4.083   4.906   1.252  0.00  0.00    -0.229 NA
ATOM      3  C   UNL     1       4.730   5.305   0.142  0.00  0.00    +0.079 A 
ATOM      4  C   UNL     1       5.930   6.020   0.213  0.00  0.00    +0.028 A 
ATOM      5  C   UNL     1       6.559   6.408  -0.936  0.00  0.00    +0.002 A 
ATOM      6  C   UNL     1       6.025   6.102  -2.182  0.00  0.00    +0.001 A 
ATOM      7  C   UNL     1       4.844   5.399  -2.285  0.00  0.00    +0.015 A 
ATOM      8  C   UNL     1       4.185   4.993  -1.126  0.00  0.00    +0.065 A 
ATOM      9  C   UNL     1       2.927   4.236  -1.176  0.00  0.00    +0.267 A 
ATOM     10  O   UNL     1       2.414   3.934  -2.239  0.00  0.00    -0.267 OA
ATOM     11  N   UNL     1       2.357   3.889   0.001  0.00  0.00    -0.259 N 
ENDROOT
BRANCH  11  12
ATOM     12  C   UNL     1       1.155   3.170   0.008  0.00  0.00    +0.082 A 
ATOM     13  C   UNL     1      -0.059   3.845   0.023  0.00  0.00    +0.030 A 
ATOM     14  C   UNL     1      -1.243   3.135   0.031  0.00  0.00    +0.022 A 
ATOM     15  C   UNL     1      -1.220   1.751   0.017  0.00  0.00    +0.043 A 
ATOM     16  C   UNL     1      -0.013   1.076   0.008  0.00  0.00    +0.054 A 
ATOM     17  C   UNL     1       1.174   1.782   0.000  0.00  0.00    +0.151 A 
ATOM     18 CL   UNL     1      -2.711   0.860   0.019  0.00  0.00    -0.083 Cl
BRANCH  17  19
ATOM     19  N   UNL     1       2.466   1.060  -0.016  0.00  0.00    +0.059 N 
ATOM     20  O   UNL     1       2.483  -0.158  -0.023  0.00  0.00    -0.126 OA
ATOM     21  O   UNL     1       3.513   1.683  -0.023  0.00  0.00    -0.126 OA
ENDBRANCH  17  19
ENDBRANCH  11  12
BRANCH   1  23
ATOM     22  C   UNL     1       2.892   4.170   3.587  0.00  0.00    +0.014 C 
ATOM     23  C   UNL     1       2.328   3.846   2.400  0.00  0.00    +0.047 C 
BRANCH  22  26
ATOM     24  C   UNL     1      -0.099   4.628   4.312  0.00  0.00    +0.064 C 
ATOM     25  C   UNL     1       0.935   3.959   5.180  0.00  0.00    +0.021 A 
ATOM     26  C   UNL     1       2.244   3.769   4.839  0.00  0.00    +0.003 A 
ATOM     27  C   UNL     1       2.875   3.075   5.977  0.00  0.00    +0.007 A 
ATOM     28  C   UNL     1       4.166   2.622   6.237  0.00  0.00    +0.010 A 
ATOM     29  C   UNL     1       4.443   2.002   7.436  0.00  0.00    +0.001 A 
ATOM     30  C   UNL     1       3.444   1.833   8.384  0.00  0.00    +0.002 A 
ATOM     31  C   UNL     1       2.164   2.282   8.142  0.00  0.00    +0.026 A 
ATOM     32  C   UNL     1       1.865   2.911   6.938  0.00  0.00    +0.047 A 
ATOM     33  N   UNL     1       0.707   3.453   6.420  0.00  0.00    -0.358 N 
ATOM     34  H   UNL     1      -0.149   3.471   6.876  0.00  0.00    +0.166 HD
ENDBRANCH  22  26
ENDBRANCH   1  23
TORSDOF 4
