REMARK  Name = ZINC22060565
REMARK  11 active torsions:
REMARK  status: ('A' for Active; 'I' for Inactive)
REMARK    1  A    between atoms: C_1  and  N_2
REMARK    2  A    between atoms: N_2  and  C_3
REMARK    3  A    between atoms: C_3  and  C_4
REMARK    4  A    between atoms: C_4  and  C_5
REMARK    5  A    between atoms: C_5  and  N_6
REMARK    6  A    between atoms: C_19  and  O_21
REMARK    7  A    between atoms: O_21  and  C_22
REMARK    8  A    between atoms: C_24  and  O_38
REMARK    9  A    between atoms: C_26  and  O_37
REMARK   10  A    between atoms: C_28  and  O_36
REMARK   11  A    between atoms: C_30  and  C_33
REMARK                            x       y       z     vdW  Elec       q    Type
REMARK                         _______ _______ _______ _____ _____    ______ ____
ROOT
ATOM      1  N   UNL     1       0.047   1.194   2.449  0.00  0.00    -0.300 N 
ATOM      2  C   UNL     1      -0.199  -0.045   3.026  0.00  0.00    +0.037 A 
ATOM      3  C   UNL     1      -0.293  -1.121   2.128  0.00  0.00    +0.024 A 
ATOM      4  C   UNL     1      -0.490  -2.405   2.583  0.00  0.00    +0.002 A 
ATOM      5  C   UNL     1      -0.590  -2.633   3.943  0.00  0.00    +0.000 A 
ATOM      6  C   UNL     1      -0.512  -1.579   4.823  0.00  0.00    +0.005 A 
ATOM      7  C   UNL     1      -0.328  -0.267   4.374  0.00  0.00    -0.026 A 
ATOM      8  C   UNL     1      -0.310   0.767   5.473  0.00  0.00    +0.042 C 
ATOM      9  C   UNL     1      -0.419   2.192   4.989  0.00  0.00    +0.042 C 
ATOM     10  C   UNL     1       0.776   2.617   4.190  0.00  0.00    -0.022 A 
ATOM     11  C   UNL     1       0.993   2.091   2.944  0.00  0.00    +0.037 A 
ATOM     12  C   UNL     1       2.111   2.442   2.201  0.00  0.00    +0.027 A 
ATOM     13  C   UNL     1       3.012   3.352   2.726  0.00  0.00    +0.047 A 
ATOM     14  C   UNL     1       2.788   3.900   3.980  0.00  0.00    +0.124 A 
ATOM     15  C   UNL     1       1.670   3.535   4.716  0.00  0.00    +0.051 A 
ENDROOT
BRANCH   1  16
ATOM     16  C   UNL     1      -0.729   1.579   1.267  0.00  0.00    +0.109 C 
BRANCH  16  17
ATOM     17  C   UNL     1      -1.935   2.416   1.699  0.00  0.00    +0.000 C 
BRANCH  17  18
ATOM     18  C   UNL     1      -2.680   2.914   0.459  0.00  0.00    -0.081 C 
BRANCH  18  20
ATOM     19  C   UNL     1      -4.580   4.213  -0.293  0.00  0.00    -0.101 C 
ATOM     20  N   UNL     1      -3.838   3.717   0.874  0.00  0.00    +0.377 N 
ATOM     21  H   UNL     1      -3.481   4.570   1.470  0.00  0.00    -0.086 HD
ATOM     22  H   UNL     1      -4.500   3.091   1.490  0.00  0.00    -0.086 HD
ENDBRANCH  18  20
ENDBRANCH  17  18
ENDBRANCH  16  17
ENDBRANCH   1  16
BRANCH  14  23
ATOM     23  O   UNL     1       3.670   4.801   4.491  0.00  0.00    -0.461 OA
BRANCH  23  24
ATOM     24  C   UNL     1       4.800   5.133   3.682  0.00  0.00    +0.340 C 
ATOM     25  C   UNL     1       5.607   6.242   4.363  0.00  0.00    +0.214 C 
ATOM     26  C   UNL     1       6.133   5.729   5.707  0.00  0.00    +0.180 C 
ATOM     27  C   UNL     1       6.966   4.467   5.469  0.00  0.00    +0.186 C 
ATOM     28  C   UNL     1       6.108   3.426   4.745  0.00  0.00    +0.266 C 
ATOM     29  O   UNL     1       5.626   3.978   3.518  0.00  0.00    -0.322 OA
BRANCH  28  30
ATOM     30  C   UNL     1       6.939   2.203   4.455  0.00  0.00    +0.387 C 
ATOM     31  O   UNL     1       7.177   1.893   3.311  0.00  0.00    -0.243 OA
ATOM     32  O   UNL     1       7.414   1.459   5.465  0.00  0.00    -0.243 OA
ENDBRANCH  28  30
BRANCH  27  33
ATOM     33  O   UNL     1       7.402   3.938   6.723  0.00  0.00    -0.386 OA
ATOM     34  H   UNL     1       8.017   3.027   6.752  0.00  0.00    +0.210 HD
ENDBRANCH  27  33
BRANCH  26  35
ATOM     35  O   UNL     1       5.032   5.420   6.564  0.00  0.00    -0.386 OA
ATOM     36  H   UNL     1       5.215   5.036   7.578  0.00  0.00    +0.210 HD
ENDBRANCH  26  35
BRANCH  25  37
ATOM     37  O   UNL     1       6.707   6.612   3.530  0.00  0.00    -0.383 OA
ATOM     38  H   UNL     1       7.403   7.400   3.855  0.00  0.00    +0.210 HD
ENDBRANCH  25  37
ENDBRANCH  23  24
ENDBRANCH  14  23
TORSDOF 10
