REMARK  Name = ZINC20988376
REMARK  7 active torsions:
REMARK  status: ('A' for Active; 'I' for Inactive)
REMARK    1  A    between atoms: N_7  and  C_11
REMARK    2  A    between atoms: C_14  and  C_16
REMARK    3  A    between atoms: N_18  and  C_19
REMARK    4  A    between atoms: C_19  and  C_20
REMARK    5  A    between atoms: C_20  and  C_21
REMARK    6  A    between atoms: C_24  and  S_27
REMARK    7  A    between atoms: S_27  and  N_30
REMARK                            x       y       z     vdW  Elec       q    Type
REMARK                         _______ _______ _______ _____ _____    ______ ____
ROOT
ATOM      1  C   UNL     1       2.435   3.257  -0.032  0.00  0.00    +0.251 C 
ATOM      2  O   UNL     1       3.652   3.269  -0.022  0.00  0.00    -0.270 OA
ATOM      3  N   UNL     1       1.750   4.418  -0.057  0.00  0.00    -0.311 N 
ATOM      4  H   UNL     1       0.650   4.407  -0.066  0.00  0.00    +0.149 HD
ENDROOT
BRANCH   1   8
ATOM      5  C   UNL     1       0.002  -0.004   0.002  0.00  0.00    +0.073 A 
ATOM      6  C   UNL     1       1.350  -0.298   0.018  0.00  0.00    +0.032 A 
ATOM      7  C   UNL     1       2.249   0.733   0.009  0.00  0.00    +0.022 A 
ATOM      8  C   UNL     1       1.738   2.023  -0.017  0.00  0.00    +0.076 A 
ATOM      9  S   UNL     1      -0.021   1.729  -0.027  0.00  0.00    -0.069 S 
BRANCH   5  16
ATOM     10  C   UNL     1      -2.201  -0.373   3.454  0.00  0.00    +0.002 A 
ATOM     11  C   UNL     1      -3.483  -0.888   3.416  0.00  0.00    +0.001 A 
ATOM     12  C   UNL     1      -3.979  -1.416   2.239  0.00  0.00    +0.016 A 
ATOM     13  C   UNL     1      -3.192  -1.431   1.094  0.00  0.00    +0.029 A 
ATOM     14  C   UNL     1      -1.904  -0.906   1.126  0.00  0.00    +0.048 A 
ATOM     15  C   UNL     1      -1.415  -0.380   2.320  0.00  0.00    +0.024 A 
ATOM     16  N   UNL     1      -1.071  -0.880   0.007  0.00  0.00    -0.293 N 
ATOM     17  C   UNL     1      -1.282  -1.729  -1.162  0.00  0.00    +0.122 C 
ATOM     18  C   UNL     1      -2.712  -1.529  -1.672  0.00  0.00    +0.094 C 
ATOM     19  S   UNL     1      -3.848  -2.131  -0.387  0.00  0.00    -0.122 S 
ENDBRANCH   5  16
ENDBRANCH   1   8
BRANCH   3  20
ATOM     20  C   UNL     1       2.470   5.693  -0.073  0.00  0.00    +0.109 C 
BRANCH  20  21
ATOM     21  C   UNL     1       1.465   6.846  -0.100  0.00  0.00    +0.054 C 
BRANCH  21  22
ATOM     22  C   UNL     1       2.205   8.159  -0.116  0.00  0.00    -0.046 A 
ATOM     23  C   UNL     1       2.531   8.783   1.073  0.00  0.00    +0.005 A 
ATOM     24  C   UNL     1       3.214   9.985   1.059  0.00  0.00    +0.029 A 
ATOM     25  C   UNL     1       3.564  10.566  -0.145  0.00  0.00    +0.105 A 
ATOM     26  C   UNL     1       3.235   9.944  -1.335  0.00  0.00    +0.029 A 
ATOM     27  C   UNL     1       2.555   8.740  -1.320  0.00  0.00    +0.005 A 
BRANCH  25  28
ATOM     28  S   UNL     1       4.432  12.100  -0.164  0.00  0.00    +0.056 S 
ATOM     29  O   UNL     1       5.100  12.203   1.085  0.00  0.00    -0.153 OA
ATOM     30  O   UNL     1       5.122  12.161  -1.405  0.00  0.00    -0.153 OA
BRANCH  28  31
ATOM     31  N   UNL     1       3.296  13.304  -0.195  0.00  0.00    -0.204 NA
ATOM     32  H   UNL     1       3.799  14.282  -0.207  0.00  0.00    +0.144 HD
ATOM     33  H   UNL     1       2.659  13.231   0.699  0.00  0.00    +0.144 HD
ENDBRANCH  28  31
ENDBRANCH  25  28
ENDBRANCH  21  22
ENDBRANCH  20  21
ENDBRANCH   3  20
TORSDOF 7
