REMARK  Name = ZINC13977063
REMARK  12 active torsions:
REMARK  status: ('A' for Active; 'I' for Inactive)
REMARK    1  A    between atoms: C_1  and  C_2
REMARK    2  A    between atoms: C_2  and  C_3
REMARK    3  A    between atoms: C_2  and  C_4
REMARK    4  A    between atoms: C_2  and  C_5
REMARK    5  A    between atoms: C_8  and  C_12
REMARK    6  A    between atoms: N_14  and  C_15
REMARK    7  A    between atoms: C_15  and  N_17
REMARK    8  A    between atoms: N_17  and  N_18
REMARK    9  A    between atoms: C_19  and  C_21
REMARK   10  A    between atoms: C_21  and  C_22
REMARK   11  A    between atoms: C_25  and  O_28
REMARK   12  A    between atoms: O_28  and  C_29
REMARK                            x       y       z     vdW  Elec       q    Type
REMARK                         _______ _______ _______ _____ _____    ______ ____
ROOT
ATOM      1  C   UNL     1       1.272   1.328   0.057  0.00  0.00    +0.153 C 
ATOM      2  S   UNL     1       1.329   3.028   0.251  0.00  0.00    -0.017 S 
ENDROOT
BRANCH   1   5
ATOM      3  C   UNL     1      -1.059   1.394   0.154  0.00  0.00    +0.250 C 
ATOM      4  O   UNL     1      -1.019   2.601   0.292  0.00  0.00    -0.270 OA
ATOM      5  N   UNL     1       0.085   0.692   0.032  0.00  0.00    -0.263 N 
ATOM      6  H   UNL     1       0.053  -0.272  -0.077  0.00  0.00    +0.157 HD
BRANCH   3  10
ATOM      7  C   UNL     1      -4.803  -0.611   0.059  0.00  0.00    -0.028 A 
ATOM      8  C   UNL     1      -3.630  -1.335  -0.066  0.00  0.00    +0.006 A 
ATOM      9  C   UNL     1      -2.411  -0.689  -0.043  0.00  0.00    +0.013 A 
ATOM     10  C   UNL     1      -2.362   0.697   0.121  0.00  0.00    +0.038 A 
ATOM     11  C   UNL     1      -3.548   1.421   0.247  0.00  0.00    +0.028 A 
ATOM     12  C   UNL     1      -4.761   0.764   0.215  0.00  0.00    +0.022 A 
ATOM     13 BR   UNL     1      -6.370   1.743   0.386  0.00  0.00    -0.050 Br
BRANCH   7  15
ATOM     14  C   UNL     1      -5.899  -2.826  -0.139  0.00  0.00    +0.015 C 
ATOM     15  C   UNL     1      -6.130  -1.323   0.025  0.00  0.00    -0.012 C 
ATOM     16  C   UNL     1      -6.882  -1.062   1.332  0.00  0.00    +0.015 C 
ATOM     17  C   UNL     1      -6.958  -0.803  -1.152  0.00  0.00    +0.015 C 
ENDBRANCH   7  15
ENDBRANCH   3  10
ENDBRANCH   1   5
BRANCH   1  18
ATOM     18  N   UNL     1       2.416   0.626  -0.070  0.00  0.00    -0.246 N 
ATOM     19  H   UNL     1       3.271   1.084  -0.052  0.00  0.00    +0.172 HD
BRANCH  18  20
ATOM     20  N   UNL     1       2.370  -0.765  -0.229  0.00  0.00    -0.235 N 
ATOM     21  C   UNL     1       3.513  -1.467  -0.356  0.00  0.00    +0.233 C 
ATOM     22  O   UNL     1       4.582  -0.894  -0.334  0.00  0.00    -0.274 OA
ATOM     23  H   UNL     1       1.515  -1.223  -0.247  0.00  0.00    +0.173 HD
BRANCH  21  24
ATOM     24  C   UNL     1       3.464  -2.963  -0.527  0.00  0.00    +0.132 C 
BRANCH  24  25
ATOM     25  C   UNL     1       4.866  -3.502  -0.646  0.00  0.00    -0.038 A 
ATOM     26  C   UNL     1       5.458  -3.617  -1.891  0.00  0.00    +0.007 A 
ATOM     27  C   UNL     1       6.745  -4.105  -2.002  0.00  0.00    +0.046 A 
ATOM     28  C   UNL     1       7.441  -4.491  -0.865  0.00  0.00    +0.120 A 
ATOM     29  C   UNL     1       6.843  -4.380   0.382  0.00  0.00    +0.046 A 
ATOM     30  C   UNL     1       5.557  -3.886   0.488  0.00  0.00    +0.007 A 
BRANCH  28  31
ATOM     31  O   UNL     1       8.705  -4.976  -0.973  0.00  0.00    -0.495 OA
ATOM     32  C   UNL     1       9.258  -5.062  -2.288  0.00  0.00    +0.277 C 
ENDBRANCH  28  31
ENDBRANCH  24  25
ENDBRANCH  21  24
ENDBRANCH  18  20
ENDBRANCH   1  18
TORSDOF 8
