REMARK  Name = ZINC63708116
REMARK  7 active torsions:
REMARK  status: ('A' for Active; 'I' for Inactive)
REMARK    1  A    between atoms: C_1  and  C_2
REMARK    2  A    between atoms: C_4  and  N_8
REMARK    3  A    between atoms: C_9  and  C_11
REMARK    4  A    between atoms: C_11  and  S_12
REMARK    5  A    between atoms: S_12  and  C_13
REMARK    6  A    between atoms: C_25  and  C_28
REMARK    7  A    between atoms: C_32  and  N_34
REMARK                            x       y       z     vdW  Elec       q    Type
REMARK                         _______ _______ _______ _____ _____    ______ ____
ROOT
ATOM      1  C   UNL     1      -2.860  -7.353   3.444  0.00  0.00    +0.245 C 
ATOM      2  N   UNL     1      -1.693  -7.401   4.322  0.00  0.00    -0.357 N 
ATOM      3  C   UNL     1      -1.459  -6.520   5.277  0.00  0.00    +0.048 A 
ATOM      4  C   UNL     1      -0.255  -6.535   6.013  0.00  0.00    +0.026 A 
ATOM      5  C   UNL     1      -0.015  -5.556   6.927  0.00  0.00    +0.002 A 
ATOM      6  C   UNL     1      -0.929  -4.535   7.172  0.00  0.00    +0.001 A 
ATOM      7  C   UNL     1      -2.128  -4.482   6.523  0.00  0.00    +0.013 A 
ATOM      8  C   UNL     1      -2.449  -5.479   5.598  0.00  0.00    +0.035 A 
ATOM      9  C   UNL     1      -3.702  -5.571   4.966  0.00  0.00    +0.113 C 
ATOM     10  N   UNL     1      -3.936  -6.569   4.054  0.00  0.00    -0.220 N 
ATOM     11  N   UNL     1      -5.279  -6.684   3.854  0.00  0.00    -0.212 NA
ATOM     12  C   UNL     1      -5.850  -5.383   4.270  0.00  0.00    +0.188 C 
ATOM     13  N   UNL     1      -4.787  -4.776   5.090  0.00  0.00    -0.311 N 
ATOM     14  H   UNL     1      -5.663  -7.439   4.402  0.00  0.00    +0.147 HD
ATOM     15  H   UNL     1      -4.853  -3.964   5.616  0.00  0.00    +0.149 HD
ATOM     16  H   UNL     1      -1.055  -8.121   4.197  0.00  0.00    +0.162 HD
ENDROOT
BRANCH  12  17
ATOM     17  C   UNL     1      -6.147  -4.526   3.066  0.00  0.00    -0.009 A 
ATOM     18  C   UNL     1      -6.490  -5.118   1.865  0.00  0.00    +0.007 A 
ATOM     19  C   UNL     1      -6.763  -4.332   0.761  0.00  0.00    +0.003 A 
ATOM     20  C   UNL     1      -6.693  -2.955   0.858  0.00  0.00    +0.033 A 
ATOM     21  C   UNL     1      -6.351  -2.364   2.059  0.00  0.00    +0.127 A 
ATOM     22  C   UNL     1      -6.082  -3.149   3.165  0.00  0.00    +0.039 A 
BRANCH  21  23
ATOM     23  N   UNL     1      -6.276  -0.889   2.163  0.00  0.00    +0.056 N 
ATOM     24  O   UNL     1      -6.513  -0.202   1.197  0.00  0.00    -0.126 OA
ATOM     25  O   UNL     1      -5.976  -0.372   3.214  0.00  0.00    -0.126 OA
ENDBRANCH  21  23
ENDBRANCH  12  17
BRANCH   1  26
ATOM     26  S   UNL     1      -2.389  -6.593   1.865  0.00  0.00    -0.107 S 
BRANCH  26  27
ATOM     27  C   UNL     1      -1.828  -4.931   2.329  0.00  0.00    +0.168 C 
BRANCH  27  29
ATOM     28  N   UNL     1      -0.946  -2.918   1.194  0.00  0.00    -0.288 N 
ATOM     29  C   UNL     1      -1.402  -4.182   1.093  0.00  0.00    +0.225 C 
ATOM     30  O   UNL     1      -1.470  -4.717   0.006  0.00  0.00    -0.275 OA
ATOM     31  H   UNL     1      -0.891  -2.491   2.063  0.00  0.00    +0.151 HD
BRANCH  28  35
ATOM     32  C   UNL     1      -0.018   1.503   0.010  0.00  0.00    +0.067 C 
ATOM     33  C   UNL     1       0.002  -0.004   0.002  0.00  0.00    +0.060 C 
ATOM     34  C   UNL     1      -1.086  -0.777   0.003  0.00  0.00    +0.045 C 
ATOM     35  C   UNL     1      -0.531  -2.190  -0.007  0.00  0.00    +0.239 C 
ATOM     36  N   UNL     1       0.926  -1.973  -0.013  0.00  0.00    -0.160 NA
ATOM     37  N   UNL     1       1.125  -0.756  -0.013  0.00  0.00    -0.157 NA
ENDBRANCH  28  35
ENDBRANCH  27  29
ENDBRANCH  26  27
ENDBRANCH   1  26
TORSDOF 6
