REMARK  Name = ZINC39695950
REMARK  7 active torsions:
REMARK  status: ('A' for Active; 'I' for Inactive)
REMARK    1  A    between atoms: C_1  and  C_2
REMARK    2  A    between atoms: C_2  and  C_3
REMARK    3  A    between atoms: C_6  and  C_9
REMARK    4  A    between atoms: C_9  and  C_11
REMARK    5  A    between atoms: C_9  and  N_12
REMARK    6  A    between atoms: C_13  and  C_15
REMARK    7  A    between atoms: C_26  and  C_28
REMARK                            x       y       z     vdW  Elec       q    Type
REMARK                         _______ _______ _______ _____ _____    ______ ____
ROOT
ATOM      1  C   UNL     1       1.825  -4.664   6.943  0.00  0.00    +0.100 C 
ATOM      2  C   UNL     1       0.902  -4.116   8.055  0.00  0.00    +0.121 C 
ATOM      3  N   UNL     1       0.874  -5.186   9.079  0.00  0.00    -0.296 N 
ATOM      4  C   UNL     1       2.266  -5.694   9.120  0.00  0.00    +0.115 C 
ATOM      5  C   UNL     1       2.718  -5.699   7.646  0.00  0.00    -0.004 C 
ATOM      6  C   UNL     1       2.508  -7.081   7.034  0.00  0.00    -0.010 C 
ATOM      7  C   UNL     1       3.449  -8.082   7.710  0.00  0.00    -0.082 C 
ATOM      8  N   UNL     1       4.840  -7.650   7.527  0.00  0.00    +0.379 N 
ATOM      9  C   UNL     1       5.057  -6.363   8.199  0.00  0.00    -0.082 C 
ATOM     10  C   UNL     1       4.184  -5.289   7.543  0.00  0.00    -0.010 C 
ATOM     11  C   UNL     1      -0.179  -5.603   9.810  0.00  0.00    +0.247 C 
ATOM     12  O   UNL     1      -0.023  -6.438  10.679  0.00  0.00    -0.270 OA
ATOM     13  H   UNL     1       5.460  -8.342   7.921  0.00  0.00    -0.086 HD
ATOM     14  H   UNL     1       5.033  -7.551   6.542  0.00  0.00    -0.086 HD
ENDROOT
BRANCH  11  15
ATOM     15  C   UNL     1      -1.523  -5.045   9.553  0.00  0.00    +0.045 A 
ATOM     16  C   UNL     1      -1.708  -3.660   9.486  0.00  0.00    +0.014 A 
ATOM     17  C   UNL     1      -2.959  -3.137   9.247  0.00  0.00    +0.001 A 
ATOM     18  C   UNL     1      -4.049  -3.975   9.070  0.00  0.00    +0.012 A 
ATOM     19  C   UNL     1      -3.887  -5.355   9.134  0.00  0.00    +0.031 A 
ATOM     20  C   UNL     1      -2.616  -5.902   9.371  0.00  0.00    +0.006 A 
ATOM     21  C   UNL     1      -2.729  -7.381   9.380  0.00  0.00    -0.006 A 
ATOM     22  C   UNL     1      -1.784  -8.381   9.573  0.00  0.00    +0.009 A 
ATOM     23  C   UNL     1      -2.166  -9.713   9.530  0.00  0.00    +0.001 A 
ATOM     24  C   UNL     1      -3.483 -10.056   9.296  0.00  0.00    +0.001 A 
ATOM     25  C   UNL     1      -4.438  -9.071   9.102  0.00  0.00    +0.012 A 
ATOM     26  C   UNL     1      -4.069  -7.732   9.143  0.00  0.00    +0.030 A 
ATOM     27  C   UNL     1      -4.844  -6.478   8.989  0.00  0.00    +0.194 C 
ATOM     28  O   UNL     1      -6.035  -6.388   8.772  0.00  0.00    -0.287 OA
ENDBRANCH  11  15
BRANCH   1  30
ATOM     29  N   UNL     1       3.191  -3.683   5.129  0.00  0.00    -0.308 N 
ATOM     30  C   UNL     1       2.663  -3.554   6.362  0.00  0.00    +0.219 C 
ATOM     31  O   UNL     1       2.863  -2.546   7.005  0.00  0.00    -0.275 OA
ATOM     32  H   UNL     1       3.031  -4.490   4.615  0.00  0.00    +0.149 HD
BRANCH  29  33
ATOM     33  C   UNL     1       4.006  -2.604   4.565  0.00  0.00    +0.100 C 
ATOM     34  C   UNL     1       3.094  -1.567   3.907  0.00  0.00    +0.033 C 
BRANCH  33  38
ATOM     35  C   UNL     1       6.673  -4.217   1.643  0.00  0.00    -0.048 A 
ATOM     36  C   UNL     1       7.110  -3.231   2.509  0.00  0.00    +0.004 A 
ATOM     37  C   UNL     1       6.247  -2.709   3.454  0.00  0.00    +0.006 A 
ATOM     38  C   UNL     1       4.947  -3.173   3.534  0.00  0.00    -0.027 A 
ATOM     39  C   UNL     1       4.510  -4.157   2.667  0.00  0.00    +0.006 A 
ATOM     40  C   UNL     1       5.372  -4.676   1.719  0.00  0.00    +0.004 A 
BRANCH  35  42
ATOM     41  C   UNL     1       7.520  -3.963  -0.674  0.00  0.00    +0.009 C 
ATOM     42  C   UNL     1       7.614  -4.785   0.613  0.00  0.00    +0.032 C 
ENDBRANCH  35  42
ENDBRANCH  33  38
ENDBRANCH  29  33
ENDBRANCH   1  30
TORSDOF 5
