REMARK  Name = ZINC20562904
REMARK  8 active torsions:
REMARK  status: ('A' for Active; 'I' for Inactive)
REMARK    1  A    between atoms: C_4  and  C_7
REMARK    2  A    between atoms: C_7  and  N_8
REMARK    3  A    between atoms: C_11  and  N_14
REMARK    4  A    between atoms: C_15  and  C_17
REMARK    5  A    between atoms: C_17  and  C_18
REMARK    6  A    between atoms: C_18  and  N_19
REMARK    7  A    between atoms: C_26  and  S_28
REMARK    8  A    between atoms: S_28  and  N_31
REMARK                            x       y       z     vdW  Elec       q    Type
REMARK                         _______ _______ _______ _____ _____    ______ ____
ROOT
ATOM      1  C   UNL     1      -2.633   1.881   7.387  0.00  0.00    +0.117 C 
ENDROOT
BRANCH   1   3
ATOM      2  N   UNL     1      -2.970   0.236   9.203  0.00  0.00    -0.313 N 
ATOM      3  C   UNL     1      -3.477   1.235   8.455  0.00  0.00    +0.215 C 
ATOM      4  O   UNL     1      -4.614   1.615   8.641  0.00  0.00    -0.276 OA
ATOM      5  H   UNL     1      -1.938  -0.108   9.034  0.00  0.00    +0.149 HD
BRANCH   2   9
ATOM      6  N   UNL     1      -3.979  -1.629  12.844  0.00  0.00    +0.382 N 
ATOM      7  C   UNL     1      -4.109  -2.443  11.629  0.00  0.00    -0.077 C 
ATOM      8  C   UNL     1      -3.287  -1.814  10.501  0.00  0.00    +0.003 C 
ATOM      9  C   UNL     1      -3.791  -0.392  10.241  0.00  0.00    +0.069 C 
ATOM     10  C   UNL     1      -3.689   0.421  11.535  0.00  0.00    +0.003 C 
ATOM     11  C   UNL     1      -4.500  -0.272  12.632  0.00  0.00    -0.077 C 
ATOM     12  H   UNL     1      -2.908  -1.544  13.077  0.00  0.00    -0.081 HD
BRANCH   6  13
ATOM     13  C   UNL     1      -4.642  -2.276  13.984  0.00  0.00    -0.043 C 
BRANCH  13  17
ATOM     14  C   UNL     1      -3.626  -0.209  17.582  0.00  0.00    +0.000 A 
ATOM     15  C   UNL     1      -4.738   0.174  16.855  0.00  0.00    +0.000 A 
ATOM     16  C   UNL     1      -5.067  -0.495  15.691  0.00  0.00    +0.002 A 
ATOM     17  C   UNL     1      -4.284  -1.546  15.253  0.00  0.00    -0.064 A 
ATOM     18  C   UNL     1      -3.175  -1.933  15.983  0.00  0.00    +0.002 A 
ATOM     19  C   UNL     1      -2.843  -1.260  17.144  0.00  0.00    +0.000 A 
ENDBRANCH  13  17
ENDBRANCH   6  13
ENDBRANCH   2   9
ENDBRANCH   1   3
BRANCH   1  20
ATOM     20  C   UNL     1      -3.441   2.978   6.691  0.00  0.00    +0.131 C 
BRANCH  20  21
ATOM     21  N   UNL     1      -2.620   3.605   5.652  0.00  0.00    -0.346 N 
ATOM     22  C   UNL     1      -1.884   4.747   5.816  0.00  0.00    +0.087 A 
ATOM     23  C   UNL     1      -1.250   5.051   4.672  0.00  0.00    +0.027 A 
ATOM     24  C   UNL     1      -1.611   4.020   3.696  0.00  0.00    +0.002 A 
ATOM     25  C   UNL     1      -2.475   3.135   4.367  0.00  0.00    +0.049 A 
ATOM     26  C   UNL     1      -2.990   2.037   3.685  0.00  0.00    +0.028 A 
ATOM     27  C   UNL     1      -2.653   1.833   2.364  0.00  0.00    +0.030 A 
ATOM     28  C   UNL     1      -1.796   2.705   1.709  0.00  0.00    +0.106 A 
ATOM     29  C   UNL     1      -1.278   3.790   2.360  0.00  0.00    +0.038 A 
BRANCH  28  30
ATOM     30  S   UNL     1      -1.377   2.417   0.022  0.00  0.00    +0.061 S 
ATOM     31  O   UNL     1      -1.000   3.674  -0.524  0.00  0.00    -0.153 OA
ATOM     32  O   UNL     1      -2.424   1.630  -0.528  0.00  0.00    -0.153 OA
BRANCH  30  33
ATOM     33  N   UNL     1      -0.018   1.470   0.010  0.00  0.00    -0.177 NA
ATOM     34  C   UNL     1       1.368   1.960  -0.001  0.00  0.00    +0.109 C 
ATOM     35  C   UNL     1       2.291   0.724  -0.043  0.00  0.00    +0.018 C 
ATOM     36  C   UNL     1       1.368  -0.379  -0.625  0.00  0.00    +0.018 C 
ATOM     37  C   UNL     1       0.002  -0.004   0.002  0.00  0.00    +0.109 C 
ENDBRANCH  30  33
ENDBRANCH  28  30
ENDBRANCH  20  21
ENDBRANCH   1  20
TORSDOF 8
