REMARK  Name = ZINC39430617
REMARK  4 active torsions:
REMARK  status: ('A' for Active; 'I' for Inactive)
REMARK    1  A    between atoms: C_3  and  C_8
REMARK    2  A    between atoms: C_5  and  O_7
REMARK    3  A    between atoms: N_16  and  C_17
REMARK    4  A    between atoms: C_17  and  C_18
REMARK                            x       y       z     vdW  Elec       q    Type
REMARK                         _______ _______ _______ _____ _____    ______ ____
ROOT
ATOM      1  C   UNL     1       3.617   2.158  -0.026  0.00  0.00    -0.012 C 
ATOM      2  C   UNL     1       3.851   2.532   1.392  0.00  0.00    +0.100 C 
ATOM      3  C   UNL     1       4.202   3.961   1.757  0.00  0.00    +0.023 C 
ATOM      4  C   UNL     1       4.328   4.931   0.606  0.00  0.00    -0.012 C 
ATOM      5  C   UNL     1       4.463   4.282  -0.751  0.00  0.00    -0.077 C 
ATOM      6  N   UNL     1       3.434   3.265  -0.945  0.00  0.00    +0.387 N 
ATOM      7  C   UNL     1       2.974   4.352   2.606  0.00  0.00    +0.065 C 
ATOM      8  C   UNL     1       3.326   5.165   3.811  0.00  0.00    -0.017 C 
ATOM      9  C   UNL     1       2.722   4.938   4.976  0.00  0.00    -0.004 C 
ATOM     10  C   UNL     1       1.711   3.898   5.149  0.00  0.00    +0.001 C 
ATOM     11  C   UNL     1       1.541   2.937   4.204  0.00  0.00    +0.023 C 
ATOM     12  C   UNL     1       2.375   3.035   3.049  0.00  0.00    +0.043 C 
ATOM     13  N   UNL     1       2.832   2.077   2.333  0.00  0.00    -0.285 NA
ATOM     14  H   UNL     1       2.527   3.679  -0.789  0.00  0.00    -0.081 HD
ENDROOT
BRANCH   1  17
ATOM     15  C   UNL     1       0.004   1.067  -0.170  0.00  0.00    +0.004 A 
ATOM     16  C   UNL     1       1.133   1.864  -0.114  0.00  0.00    +0.002 A 
ATOM     17  C   UNL     1       2.389   1.287  -0.087  0.00  0.00    -0.055 A 
ATOM     18  C   UNL     1       2.519  -0.088  -0.118  0.00  0.00    +0.047 A 
ATOM     19  C   UNL     1       1.389  -0.890  -0.174  0.00  0.00    +0.117 A 
ATOM     20  C   UNL     1       0.129  -0.308  -0.200  0.00  0.00    +0.045 A 
BRANCH  19  21
ATOM     21  O   UNL     1       1.514  -2.243  -0.204  0.00  0.00    -0.507 OA
ATOM     22  H   UNL     1       1.522  -2.656   0.670  0.00  0.00    +0.292 HD
ENDBRANCH  19  21
ENDBRANCH   1  17
BRANCH   6  23
ATOM     23  C   UNL     1       3.505   2.764  -2.324  0.00  0.00    -0.045 C 
BRANCH  23  24
ATOM     24  C   UNL     1       3.111   3.881  -3.293  0.00  0.00    +0.136 C 
ATOM     25  C   UNL     1       3.132   3.381  -4.726  0.00  0.00    +0.021 C 
ATOM     26  C   UNL     1       4.058   4.138  -5.318  0.00  0.00    +0.132 C 
ATOM     27  N   UNL     1       4.591   5.018  -4.441  0.00  0.00    -0.162 NA
ATOM     28  N   UNL     1       4.126   4.949  -3.297  0.00  0.00    -0.182 NA
ENDBRANCH  23  24
ENDBRANCH   6  23
TORSDOF 4
