REMARK  Name = ZINC35270980
REMARK  4 active torsions:
REMARK  status: ('A' for Active; 'I' for Inactive)
REMARK    1  A    between atoms: C_1  and  C_2
REMARK    2  A    between atoms: C_2  and  C_34
REMARK    3  A    between atoms: C_19  and  C_20
REMARK    4  A    between atoms: C_19  and  C_21
REMARK                            x       y       z     vdW  Elec       q    Type
REMARK                         _______ _______ _______ _____ _____    ______ ____
ROOT
ATOM      1  C   UNL     1      -0.415   0.440   0.640  0.00  0.00    +0.060 C 
ATOM      2  C   UNL     1      -0.189  -1.067   0.772  0.00  0.00    +0.124 C 
ATOM      3  C   UNL     1       0.412  -1.593  -0.505  0.00  0.00    +0.020 C 
ATOM      4  C   UNL     1       1.736  -1.610  -0.656  0.00  0.00    +0.013 C 
ATOM      5  C   UNL     1       2.565  -1.119   0.459  0.00  0.00    +0.038 A 
ATOM      6  C   UNL     1       1.986  -0.983   1.732  0.00  0.00    +0.131 A 
ATOM      7  C   UNL     1       2.728  -0.524   2.805  0.00  0.00    +0.047 A 
ATOM      8  C   UNL     1       4.069  -0.184   2.663  0.00  0.00    +0.010 A 
ATOM      9  C   UNL     1       4.640  -0.319   1.414  0.00  0.00    -0.010 A 
ATOM     10  C   UNL     1       3.913  -0.781   0.306  0.00  0.00    +0.048 A 
ATOM     11  N   UNL     1       4.719  -0.821  -0.816  0.00  0.00    -0.284 N 
ATOM     12  C   UNL     1       5.978  -0.409  -0.551  0.00  0.00    +0.228 C 
ATOM     13  O   UNL     1       6.897  -0.337  -1.339  0.00  0.00    -0.274 OA
ATOM     14  C   UNL     1       6.019  -0.054   0.915  0.00  0.00    +0.082 C 
ATOM     15  C   UNL     1       6.416   1.429   1.102  0.00  0.00    +0.057 C 
ATOM     16  C   UNL     1       7.906   1.341   1.392  0.00  0.00    +0.115 C 
ATOM     17  C   UNL     1       8.001   0.101   2.322  0.00  0.00    +0.031 C 
ATOM     18  C   UNL     1       7.070  -0.907   1.652  0.00  0.00    -0.011 C 
ATOM     19  C   UNL     1       6.395  -1.789   2.705  0.00  0.00    +0.012 C 
ATOM     20  C   UNL     1       7.848  -1.769   0.656  0.00  0.00    +0.012 C 
ATOM     21  C   UNL     1       9.451  -0.319   2.469  0.00  0.00    +0.042 C 
ATOM     22  C   UNL     1      10.315   0.791   1.853  0.00  0.00    +0.114 C 
ATOM     23  C   UNL     1      11.792   0.658   2.166  0.00  0.00    +0.037 C 
ATOM     24  C   UNL     1      12.235   2.124   2.445  0.00  0.00    +0.022 C 
ATOM     25  C   UNL     1      10.958   2.734   3.088  0.00  0.00    +0.109 C 
ATOM     26  N   UNL     1       9.856   2.099   2.392  0.00  0.00    -0.285 N 
ATOM     27  C   UNL     1       8.546   2.480   2.151  0.00  0.00    +0.240 C 
ATOM     28  O   UNL     1       8.015   3.523   2.469  0.00  0.00    -0.273 OA
ATOM     29  C   UNL     1      10.002   0.812   0.367  0.00  0.00    +0.238 C 
ATOM     30  O   UNL     1      10.816   0.625  -0.513  0.00  0.00    -0.273 OA
ATOM     31  N   UNL     1       8.676   1.083   0.164  0.00  0.00    -0.299 N 
ATOM     32  O   UNL     1       0.677  -1.317   1.879  0.00  0.00    -0.482 OA
ATOM     33  C   UNL     1      -1.532  -1.758   1.018  0.00  0.00    +0.060 C 
ATOM     34  H   UNL     1       4.417  -1.112  -1.690  0.00  0.00    +0.155 HD
ATOM     35  H   UNL     1       8.280   1.090  -0.721  0.00  0.00    +0.150 HD
ENDROOT
TORSDOF 0
