REMARK  Name = ZINC39676325
REMARK  8 active torsions:
REMARK  status: ('A' for Active; 'I' for Inactive)
REMARK    1  A    between atoms: C_1  and  C_2
REMARK    2  A    between atoms: C_2  and  C_3
REMARK    3  A    between atoms: C_3  and  C_5
REMARK    4  A    between atoms: C_3  and  C_6
REMARK    5  A    between atoms: C_6  and  C_7
REMARK    6  A    between atoms: C_11  and  C_20
REMARK    7  A    between atoms: N_22  and  C_23
REMARK    8  A    between atoms: C_23  and  C_24
REMARK                            x       y       z     vdW  Elec       q    Type
REMARK                         _______ _______ _______ _____ _____    ______ ____
ROOT
ATOM      1  C   UNL     1      -2.987  -2.586  -0.278  0.00  0.00    +0.216 C 
ATOM      2  O   UNL     1      -3.938  -1.837  -0.202  0.00  0.00    -0.276 OA
ATOM      3  N   UNL     1      -3.183  -3.916  -0.370  0.00  0.00    -0.300 N 
ATOM      4  C   UNL     1      -2.157  -4.981  -0.464  0.00  0.00    +0.121 C 
ATOM      5  C   UNL     1      -2.705  -6.129   0.413  0.00  0.00    +0.100 C 
ATOM      6  C   UNL     1      -4.226  -5.904   0.450  0.00  0.00    -0.004 C 
ATOM      7  C   UNL     1      -4.474  -4.645  -0.393  0.00  0.00    +0.115 C 
ATOM      8  C   UNL     1      -4.952  -7.100  -0.158  0.00  0.00    -0.010 C 
ATOM      9  C   UNL     1      -6.464  -6.878  -0.057  0.00  0.00    -0.082 C 
ATOM     10  N   UNL     1      -6.843  -6.714   1.351  0.00  0.00    +0.379 N 
ATOM     11  C   UNL     1      -6.213  -5.508   1.902  0.00  0.00    -0.082 C 
ATOM     12  C   UNL     1      -4.691  -5.672   1.884  0.00  0.00    -0.010 C 
ATOM     13  H   UNL     1      -7.846  -6.629   1.420  0.00  0.00    -0.086 HD
ATOM     14  H   UNL     1      -6.540  -7.520   1.876  0.00  0.00    -0.086 HD
ENDROOT
BRANCH   5  15
ATOM     15  C   UNL     1      -2.384  -7.464  -0.209  0.00  0.00    +0.219 C 
ATOM     16  O   UNL     1      -2.304  -7.567  -1.415  0.00  0.00    -0.275 OA
ATOM     17  N   UNL     1      -2.187  -8.543   0.574  0.00  0.00    -0.308 N 
ATOM     18  H   UNL     1      -2.251  -8.460   1.538  0.00  0.00    +0.149 HD
BRANCH  17  19
ATOM     19  C   UNL     1      -1.876  -9.840  -0.031  0.00  0.00    +0.178 C 
BRANCH  19  20
ATOM     20  C   UNL     1      -1.703 -10.872   1.053  0.00  0.00    +0.128 A 
ATOM     21  N   UNL     1      -1.403 -12.146   0.689  0.00  0.00    -0.309 N 
ATOM     22  H   UNL     1      -1.306 -12.367  -0.251  0.00  0.00    +0.170 HD
ATOM     23  C   UNL     1      -1.237 -13.109   1.625  0.00  0.00    +0.259 A 
ATOM     24  O   UNL     1      -0.967 -14.254   1.313  0.00  0.00    -0.267 OA
ATOM     25  C   UNL     1      -1.395 -12.719   3.034  0.00  0.00    +0.065 A 
ATOM     26  C   UNL     1      -1.246 -13.634   4.074  0.00  0.00    +0.015 A 
ATOM     27  C   UNL     1      -1.406 -13.214   5.376  0.00  0.00    +0.001 A 
ATOM     28  C   UNL     1      -1.714 -11.889   5.658  0.00  0.00    +0.002 A 
ATOM     29  C   UNL     1      -1.866 -10.969   4.645  0.00  0.00    +0.028 A 
ATOM     30  C   UNL     1      -1.708 -11.371   3.317  0.00  0.00    +0.078 A 
ATOM     31  N   UNL     1      -1.844 -10.497   2.288  0.00  0.00    -0.232 NA
ENDBRANCH  19  20
ENDBRANCH  17  19
ENDBRANCH   5  15
BRANCH   1  32
ATOM     32  C   UNL     1      -1.587  -2.029  -0.270  0.00  0.00    +0.099 C 
BRANCH  32  33
ATOM     33  C   UNL     1      -1.644  -0.505  -0.158  0.00  0.00    -0.006 C 
ATOM     34  C   UNL     1      -2.243  -0.115   1.195  0.00  0.00    +0.008 C 
BRANCH  33  36
ATOM     35  C   UNL     1      -0.300   1.597  -0.288  0.00  0.00    +0.004 C 
ATOM     36  C   UNL     1      -0.231   0.069  -0.275  0.00  0.00    +0.000 C 
ENDBRANCH  33  36
ENDBRANCH  32  33
ENDBRANCH   1  32
TORSDOF 6
