REMARK  Name = ZINC16645528
REMARK  9 active torsions:
REMARK  status: ('A' for Active; 'I' for Inactive)
REMARK    1  A    between atoms: C_1  and  C_2
REMARK    2  A    between atoms: N_11  and  C_15
REMARK    3  A    between atoms: C_15  and  C_16
REMARK    4  A    between atoms: N_18  and  C_19
REMARK    5  A    between atoms: C_19  and  C_21
REMARK    6  A    between atoms: C_19  and  C_25
REMARK    7  A    between atoms: C_21  and  C_22
REMARK    8  A    between atoms: C_22  and  S_23
REMARK    9  A    between atoms: S_23  and  C_24
REMARK                            x       y       z     vdW  Elec       q    Type
REMARK                         _______ _______ _______ _____ _____    ______ ____
ROOT
ATOM      1  C   UNL     1      -3.260  -1.886   2.395  0.00  0.00    +0.232 C 
ATOM      2  O   UNL     1      -2.349  -2.223   1.669  0.00  0.00    -0.274 OA
ATOM      3  N   UNL     1      -4.237  -2.763   2.700  0.00  0.00    -0.304 N 
ATOM      4  H   UNL     1      -4.966  -2.494   3.281  0.00  0.00    +0.149 HD
ENDROOT
BRANCH   1   5
ATOM      5  C   UNL     1      -3.301  -0.488   2.955  0.00  0.00    +0.213 C 
BRANCH   5  15
ATOM      6  C   UNL     1      -1.536   3.561   2.539  0.00  0.00    +0.010 C 
ATOM      7  C   UNL     1      -0.790   3.101   1.286  0.00  0.00    +0.018 C 
ATOM      8  C   UNL     1      -1.527   3.600   0.040  0.00  0.00    +0.006 C 
ATOM      9  C   UNL     1      -0.790   3.122  -1.213  0.00  0.00    +0.000 C 
ATOM     10  C   UNL     1      -0.753   1.593  -1.233  0.00  0.00    +0.003 C 
ATOM     11  C   UNL     1      -0.013   1.086   0.008  0.00  0.00    +0.035 C 
ATOM     12  C   UNL     1      -0.726   1.577   1.263  0.00  0.00    +0.115 C 
ATOM     13  C   UNL     1      -2.117   0.991   1.342  0.00  0.00    +0.247 C 
ATOM     14  O   UNL     1      -3.023   1.142   0.552  0.00  0.00    -0.273 OA
ATOM     15  N   UNL     1      -2.136   0.263   2.478  0.00  0.00    -0.215 N 
ATOM     16  C   UNL     1      -0.960   0.312   3.115  0.00  0.00    +0.310 C 
ATOM     17  O   UNL     1      -0.734  -0.264   4.161  0.00  0.00    -0.252 OA
ATOM     18  N   UNL     1      -0.056   1.072   2.468  0.00  0.00    -0.285 N 
ATOM     19  H   UNL     1       0.857   1.250   2.743  0.00  0.00    +0.151 HD
ENDBRANCH   5  15
ENDBRANCH   1   5
BRANCH   3  20
ATOM     20  C   UNL     1      -4.198  -4.123   2.156  0.00  0.00    +0.140 C 
BRANCH  20  21
ATOM     21  C   UNL     1      -5.595  -4.684   2.104  0.00  0.00    +0.129 A 
ATOM     22  N   UNL     1      -6.725  -3.991   2.413  0.00  0.00    -0.340 N 
ATOM     23  H   UNL     1      -6.773  -3.037   2.708  0.00  0.00    +0.167 HD
ATOM     24  C   UNL     1      -7.793  -4.850   2.241  0.00  0.00    +0.066 A 
ATOM     25  C   UNL     1      -9.167  -4.727   2.397  0.00  0.00    +0.028 A 
ATOM     26  C   UNL     1      -9.983  -5.807   2.136  0.00  0.00    +0.002 A 
ATOM     27  C   UNL     1      -9.440  -7.014   1.720  0.00  0.00    +0.002 A 
ATOM     28  C   UNL     1      -8.090  -7.154   1.562  0.00  0.00    +0.030 A 
ATOM     29  C   UNL     1      -7.243  -6.073   1.821  0.00  0.00    +0.089 A 
ATOM     30  N   UNL     1      -5.898  -5.900   1.754  0.00  0.00    -0.231 NA
ENDBRANCH  20  21
BRANCH  20  31
ATOM     31  C   UNL     1      -3.326  -5.006   3.051  0.00  0.00    +0.041 C 
BRANCH  31  32
ATOM     32  C   UNL     1      -1.880  -4.509   3.005  0.00  0.00    +0.071 C 
BRANCH  32  33
ATOM     33  S   UNL     1      -0.847  -5.556   4.067  0.00  0.00    -0.164 S 
ATOM     34  C   UNL     1       0.814  -4.844   3.902  0.00  0.00    +0.084 C 
ENDBRANCH  32  33
ENDBRANCH  31  32
ENDBRANCH  20  31
ENDBRANCH   3  20
TORSDOF 7
