REMARK  Name = ZINC20968854
REMARK  12 active torsions:
REMARK  status: ('A' for Active; 'I' for Inactive)
REMARK    1  A    between atoms: C_1  and  C_2
REMARK    2  A    between atoms: C_2  and  C_3
REMARK    3  A    between atoms: C_2  and  C_4
REMARK    4  A    between atoms: C_4  and  N_5
REMARK    5  A    between atoms: C_6  and  N_37
REMARK    6  A    between atoms: C_7  and  N_14
REMARK    7  A    between atoms: N_14  and  C_15
REMARK    8  A    between atoms: C_15  and  C_16
REMARK    9  A    between atoms: C_16  and  C_17
REMARK   10  A    between atoms: C_16  and  C_18
REMARK   11  A    between atoms: C_19  and  C_21
REMARK   12  A    between atoms: C_23  and  C_31
REMARK                            x       y       z     vdW  Elec       q    Type
REMARK                         _______ _______ _______ _____ _____    ______ ____
ROOT
ATOM      1  N   UNL     1       2.339   3.942   0.062  0.00  0.00    -0.260 N 
ATOM      2  C   UNL     1       2.408   5.236  -0.311  0.00  0.00    +0.252 C 
ATOM      3  O   UNL     1       3.463   5.703  -0.696  0.00  0.00    -0.270 OA
ENDROOT
BRANCH   2   4
ATOM      4  C   UNL     1       1.200   6.087  -0.251  0.00  0.00    +0.048 A 
ATOM      5  C   UNL     1       0.383   6.104   0.871  0.00  0.00    +0.042 A 
ATOM      6  C   UNL     1      -0.749   6.932   0.886  0.00  0.00    +0.072 A 
ATOM      7  N   UNL     1      -1.077   7.693  -0.137  0.00  0.00    -0.247 NA
ATOM      8  C   UNL     1      -0.353   7.736  -1.256  0.00  0.00    +0.072 A 
ATOM      9  C   UNL     1       0.816   6.942  -1.374  0.00  0.00    +0.013 A 
ATOM     10  C   UNL     1       1.573   6.990  -2.550  0.00  0.00    +0.011 A 
ATOM     11  C   UNL     1       1.179   7.801  -3.572  0.00  0.00    +0.001 A 
ATOM     12  C   UNL     1       0.032   8.583  -3.462  0.00  0.00    +0.002 A 
ATOM     13  C   UNL     1      -0.728   8.560  -2.333  0.00  0.00    +0.028 A 
BRANCH   6  14
ATOM     14  C   UNL     1      -1.610   6.944   2.093  0.00  0.00    +0.000 A 
ATOM     15  C   UNL     1      -1.222   6.248   3.237  0.00  0.00    +0.010 A 
ATOM     16  C   UNL     1      -2.025   6.267   4.359  0.00  0.00    +0.001 A 
ATOM     17  C   UNL     1      -3.218   6.967   4.347  0.00  0.00    +0.000 A 
ATOM     18  C   UNL     1      -3.611   7.656   3.213  0.00  0.00    +0.001 A 
ATOM     19  C   UNL     1      -2.813   7.648   2.087  0.00  0.00    +0.010 A 
ENDBRANCH   6  14
ENDBRANCH   2   4
BRANCH   1  22
ATOM     20  N   UNL     1      -1.101   2.676  -0.165  0.00  0.00    -0.280 N 
ATOM     21  C   UNL     1       0.100   3.235  -0.535  0.00  0.00    +0.127 A 
ATOM     22  C   UNL     1       1.098   3.374   0.409  0.00  0.00    +0.140 A 
ATOM     23  C   UNL     1       0.852   2.939   1.726  0.00  0.00    +0.277 A 
ATOM     24  O   UNL     1       1.716   3.050   2.580  0.00  0.00    -0.266 OA
ATOM     25  N   UNL     1      -0.343   2.399   2.035  0.00  0.00    -0.273 N 
ATOM     26  H   UNL     1      -0.543   2.060   3.062  0.00  0.00    +0.173 HD
ATOM     27  C   UNL     1      -1.300   2.267   1.101  0.00  0.00    +0.331 A 
ATOM     28  O   UNL     1      -2.368   1.771   1.407  0.00  0.00    -0.246 OA
BRANCH  21  29
ATOM     29  N   UNL     1       0.305   3.649  -1.829  0.00  0.00    -0.343 N 
ATOM     30  H   UNL     1       1.268   4.095  -2.118  0.00  0.00    +0.144 HD
ATOM     31  H   UNL     1      -0.494   3.535  -2.576  0.00  0.00    +0.144 HD
ENDBRANCH  21  29
BRANCH  20  32
ATOM     32  C   UNL     1      -2.169   2.522  -1.157  0.00  0.00    +0.131 C 
BRANCH  32  34
ATOM     33  C   UNL     1      -2.273   0.050  -0.815  0.00  0.00    +0.009 C 
ATOM     34  C   UNL     1      -2.037   1.160  -1.841  0.00  0.00    +0.003 C 
ATOM     35  C   UNL     1      -3.073   1.049  -2.961  0.00  0.00    +0.009 C 
ENDBRANCH  32  34
ENDBRANCH  20  32
ENDBRANCH   1  22
BRANCH   1  36
ATOM     36  C   UNL     1       3.556   3.127   0.105  0.00  0.00    +0.117 C 
BRANCH  36  37
ATOM     37  C   UNL     1       3.690   2.342  -1.201  0.00  0.00    +0.001 C 
ATOM     38  C   UNL     1       3.931   3.313  -2.358  0.00  0.00    +0.009 C 
ATOM     39  C   UNL     1       4.870   1.373  -1.094  0.00  0.00    +0.009 C 
ENDBRANCH  36  37
ENDBRANCH   1  36
TORSDOF 8
