REMARK  Name = ZINC43897898
REMARK  6 active torsions:
REMARK  status: ('A' for Active; 'I' for Inactive)
REMARK    1  A    between atoms: C_1  and  C_2
REMARK    2  A    between atoms: C_2  and  N_3
REMARK    3  A    between atoms: N_3  and  C_4
REMARK    4  A    between atoms: C_10  and  N_12
REMARK    5  A    between atoms: C_16  and  C_18
REMARK    6  A    between atoms: C_16  and  C_19
REMARK                            x       y       z     vdW  Elec       q    Type
REMARK                         _______ _______ _______ _____ _____    ______ ____
ROOT
ATOM      1  C   UNL     1      -1.356  -1.981   0.004  0.00  0.00    -0.054 C 
ATOM      2  C   UNL     1      -0.752  -2.476  -1.311  0.00  0.00    -0.009 C 
ATOM      3  C   UNL     1      -1.595  -1.968  -2.483  0.00  0.00    +0.063 C 
ATOM      4  C   UNL     1      -3.026  -2.491  -2.345  0.00  0.00    +0.171 C 
ATOM      5  C   UNL     1      -3.632  -2.003  -1.027  0.00  0.00    +0.082 C 
ATOM      6  C   UNL     1      -2.785  -2.511   0.141  0.00  0.00    +0.048 C 
ATOM      7  O   UNL     1      -3.818  -2.011  -3.443  0.00  0.00    -0.346 OA
ATOM      8  C   UNL     1      -3.787  -3.081  -4.417  0.00  0.00    +0.191 C 
ATOM      9  C   UNL     1      -3.804  -4.335  -3.508  0.00  0.00    +0.191 C 
ATOM     10  O   UNL     1      -3.019  -3.924  -2.370  0.00  0.00    -0.346 OA
ENDROOT
BRANCH   6  11
ATOM     11  N   UNL     1      -3.363  -2.039   1.406  0.00  0.00    -0.296 NA
ATOM     12  C   UNL     1      -2.527  -2.436   2.549  0.00  0.00    +0.113 C 
ATOM     13  C   UNL     1      -3.133  -1.874   3.837  0.00  0.00    +0.176 C 
ATOM     14  O   UNL     1      -4.480  -2.336   3.966  0.00  0.00    -0.371 OA
ATOM     15  C   UNL     1      -5.323  -1.967   2.871  0.00  0.00    +0.077 C 
ATOM     16  C   UNL     1      -4.739  -2.530   1.572  0.00  0.00    +0.119 C 
ATOM     17  C   UNL     1      -6.725  -2.538   3.090  0.00  0.00    +0.042 C 
ATOM     18  C   UNL     1      -5.400  -0.442   2.777  0.00  0.00    +0.042 C 
ENDBRANCH   6  11
BRANCH   1  19
ATOM     19  N   UNL     1      -1.376  -0.512   0.012  0.00  0.00    +0.382 N 
ATOM     20  H   UNL     1      -1.848  -0.187   0.843  0.00  0.00    -0.085 HD
ATOM     21  H   UNL     1      -1.864  -0.178  -0.805  0.00  0.00    -0.085 HD
BRANCH  19  23
ATOM     22  C   UNL     1      -0.019   1.526   0.010  0.00  0.00    -0.017 C 
ATOM     23  C   UNL     1       0.002  -0.004   0.002  0.00  0.00    -0.086 C 
ENDBRANCH  19  23
ENDBRANCH   1  19
TORSDOF 3
