REMARK  Name = ZINC15932024
REMARK  10 active torsions:
REMARK  status: ('A' for Active; 'I' for Inactive)
REMARK    1  A    between atoms: C_1  and  C_2
REMARK    2  A    between atoms: C_2  and  O_3
REMARK    3  A    between atoms: O_3  and  C_4
REMARK    4  A    between atoms: C_6  and  C_14
REMARK    5  A    between atoms: C_9  and  O_10
REMARK    6  A    between atoms: O_10  and  C_11
REMARK    7  A    between atoms: C_11  and  C_12
REMARK    8  A    between atoms: N_20  and  C_21
REMARK    9  A    between atoms: C_24  and  S_27
REMARK   10  A    between atoms: S_27  and  N_30
REMARK                            x       y       z     vdW  Elec       q    Type
REMARK                         _______ _______ _______ _____ _____    ______ ____
ROOT
ATOM      1  C   UNL     1      -0.208  -4.963   0.442  0.00  0.00    +0.028 C 
ATOM      2  C   UNL     1      -0.190  -6.303   0.225  0.00  0.00    +0.078 C 
ATOM      3  C   UNL     1      -0.783  -7.389   1.029  0.00  0.00    +0.256 C 
ATOM      4  O   UNL     1      -1.399  -7.159   2.053  0.00  0.00    -0.269 OA
ATOM      5  N   UNL     1      -0.616  -8.623   0.585  0.00  0.00    -0.260 N 
ATOM      6  C   UNL     1       0.085  -8.863  -0.577  0.00  0.00    +0.166 C 
ATOM      7  N   UNL     1       0.342 -10.016  -1.153  0.00  0.00    -0.226 NA
ATOM      8  S   UNL     1       0.552  -7.225  -1.113  0.00  0.00    -0.049 S 
ATOM      9  H   UNL     1      -0.989  -9.367   1.083  0.00  0.00    +0.157 HD
ENDROOT
BRANCH   1  12
ATOM     10  C   UNL     1       1.061  -1.865  -1.248  0.00  0.00    +0.162 A 
ATOM     11  C   UNL     1       0.309  -2.699  -0.444  0.00  0.00    +0.057 A 
ATOM     12  C   UNL     1       0.587  -4.071  -0.412  0.00  0.00    -0.020 A 
ATOM     13  C   UNL     1       1.624  -4.589  -1.196  0.00  0.00    +0.012 A 
ATOM     14  C   UNL     1       2.368  -3.749  -1.996  0.00  0.00    +0.050 A 
ATOM     15  C   UNL     1       2.089  -2.390  -2.031  0.00  0.00    +0.162 A 
BRANCH  10  16
ATOM     16  O   UNL     1       0.794  -0.531  -1.282  0.00  0.00    -0.489 OA
BRANCH  16  18
ATOM     17  C   UNL     1      -0.422   1.451  -0.626  0.00  0.00    +0.048 C 
ATOM     18  C   UNL     1      -0.273  -0.062  -0.456  0.00  0.00    +0.226 C 
ENDBRANCH  16  18
ENDBRANCH  10  16
BRANCH  15  19
ATOM     19  O   UNL     1       2.823  -1.568  -2.825  0.00  0.00    -0.484 OA
BRANCH  19  20
ATOM     20  C   UNL     1       3.860  -2.171  -3.600  0.00  0.00    +0.256 C 
BRANCH  20  21
ATOM     21  C   UNL     1       4.561  -1.113  -4.412  0.00  0.00    +0.006 C 
ATOM     22  C   UNL     1       5.869  -1.093  -4.473  0.00  0.00    +0.007 C 
ENDBRANCH  20  21
ENDBRANCH  19  20
ENDBRANCH  15  19
ENDBRANCH   1  12
BRANCH   7  23
ATOM     23  C   UNL     1      -0.110 -11.178  -0.590  0.00  0.00    +0.067 A 
ATOM     24  C   UNL     1       0.021 -11.389   0.785  0.00  0.00    +0.030 A 
ATOM     25  C   UNL     1      -0.437 -12.562   1.346  0.00  0.00    +0.030 A 
ATOM     26  C   UNL     1      -1.026 -13.530   0.551  0.00  0.00    +0.105 A 
ATOM     27  C   UNL     1      -1.159 -13.328  -0.812  0.00  0.00    +0.030 A 
ATOM     28  C   UNL     1      -0.710 -12.157  -1.386  0.00  0.00    +0.030 A 
BRANCH  26  29
ATOM     29  S   UNL     1      -1.607 -15.027   1.276  0.00  0.00    +0.056 S 
ATOM     30  O   UNL     1      -1.623 -16.001   0.241  0.00  0.00    -0.153 OA
ATOM     31  O   UNL     1      -0.874 -15.206   2.480  0.00  0.00    -0.153 OA
BRANCH  29  32
ATOM     32  N   UNL     1      -3.184 -14.778   1.715  0.00  0.00    -0.204 NA
ATOM     33  H   UNL     1      -3.809 -15.520   1.720  0.00  0.00    +0.144 HD
ATOM     34  H   UNL     1      -3.483 -13.890   1.968  0.00  0.00    +0.144 HD
ENDBRANCH  29  32
ENDBRANCH  26  29
ENDBRANCH   7  23
TORSDOF 9
