REMARK  Name = ZINC12798474
REMARK  7 active torsions:
REMARK  status: ('A' for Active; 'I' for Inactive)
REMARK    1  A    between atoms: C_4  and  O_35
REMARK    2  A    between atoms: C_5  and  N_7
REMARK    3  A    between atoms: C_8  and  C_10
REMARK    4  A    between atoms: N_13  and  C_16
REMARK    5  A    between atoms: N_21  and  C_24
REMARK    6  A    between atoms: C_27  and  O_30
REMARK    7  A    between atoms: O_30  and  C_31
REMARK                            x       y       z     vdW  Elec       q    Type
REMARK                         _______ _______ _______ _____ _____    ______ ____
ROOT
ATOM      1  C   UNL     1       0.100  -4.271   0.186  0.00  0.00    +0.072 C 
ATOM      2  C   UNL     1       0.757  -4.855  -1.068  0.00  0.00    -0.006 C 
ATOM      3  C   UNL     1       0.720  -6.383  -0.991  0.00  0.00    -0.077 C 
ATOM      4  N   UNL     1      -0.672  -6.839  -0.908  0.00  0.00    +0.388 N 
ATOM      5  C   UNL     1      -1.287  -6.341   0.328  0.00  0.00    -0.077 C 
ATOM      6  C   UNL     1      -1.328  -4.812   0.302  0.00  0.00    -0.006 C 
ATOM      7  H   UNL     1      -1.187  -6.490  -1.703  0.00  0.00    -0.081 HD
ENDROOT
BRANCH   4   8
ATOM      8  C   UNL     1      -0.706  -8.308  -0.913  0.00  0.00    +0.029 C 
ATOM      9  C   UNL     1      -2.161  -8.818  -0.881  0.00  0.00    +0.090 C 
ATOM     10  C   UNL     1      -2.294  -9.593  -2.174  0.00  0.00    +0.225 C 
ATOM     11  O   UNL     1      -3.295 -10.166  -2.549  0.00  0.00    -0.275 OA
ATOM     12  N   UNL     1      -1.133  -9.545  -2.837  0.00  0.00    -0.212 N 
ATOM     13  C   UNL     1      -0.166  -8.849  -2.219  0.00  0.00    +0.213 C 
ATOM     14  O   UNL     1       0.959  -8.678  -2.638  0.00  0.00    -0.277 OA
BRANCH  12  15
ATOM     15  C   UNL     1      -0.941 -10.172  -4.078  0.00  0.00    +0.044 A 
ATOM     16  C   UNL     1      -0.046 -11.228  -4.191  0.00  0.00    +0.027 A 
ATOM     17  C   UNL     1       0.143 -11.845  -5.411  0.00  0.00    +0.048 A 
ATOM     18  C   UNL     1      -0.562 -11.411  -6.525  0.00  0.00    +0.130 A 
ATOM     19  C   UNL     1      -1.456 -10.356  -6.412  0.00  0.00    +0.048 A 
ATOM     20  C   UNL     1      -1.649  -9.742  -5.191  0.00  0.00    +0.027 A 
BRANCH  18  21
ATOM     21  O   UNL     1      -0.376 -12.019  -7.726  0.00  0.00    -0.406 OA
BRANCH  21  22
ATOM     22  C   UNL     1      -1.135 -11.521  -8.830  0.00  0.00    +0.575 C 
ATOM     23  F   UNL     1      -0.823 -10.173  -9.039  0.00  0.00    -0.133 F 
ATOM     24  F   UNL     1      -0.823 -12.255  -9.979  0.00  0.00    -0.133 F 
ATOM     25  F   UNL     1      -2.500 -11.647  -8.552  0.00  0.00    -0.133 F 
ENDBRANCH  21  22
ENDBRANCH  18  21
ENDBRANCH  12  15
ENDBRANCH   4   8
BRANCH   1  27
ATOM     26  N   UNL     1       1.210  -2.071  -0.032  0.00  0.00    -0.282 N 
ATOM     27  C   UNL     1       0.062  -2.768   0.081  0.00  0.00    +0.220 C 
ATOM     28  O   UNL     1      -1.002  -2.185   0.097  0.00  0.00    -0.275 OA
ATOM     29  H   UNL     1       2.056  -2.539  -0.109  0.00  0.00    +0.155 HD
BRANCH  26  34
ATOM     30  C   UNL     1       0.095   1.384  -0.630  0.00  0.00    +0.002 A 
ATOM     31  C   UNL     1       1.126   2.100  -0.049  0.00  0.00    +0.004 A 
ATOM     32  C   UNL     1       2.187   1.437   0.539  0.00  0.00    +0.047 A 
ATOM     33  C   UNL     1       2.220   0.052   0.548  0.00  0.00    +0.138 A 
ATOM     34  C   UNL     1       1.182  -0.670  -0.037  0.00  0.00    +0.075 A 
ATOM     35  C   UNL     1       0.120   0.002  -0.625  0.00  0.00    +0.027 A 
BRANCH  33  36
ATOM     36  O   UNL     1       3.264  -0.601   1.125  0.00  0.00    -0.505 OA
ATOM     37  H   UNL     1       3.135  -0.796   2.064  0.00  0.00    +0.292 HD
ENDBRANCH  33  36
ENDBRANCH  26  34
ENDBRANCH   1  27
TORSDOF 7
