REMARK  Name = ZINC14476177
REMARK  7 active torsions:
REMARK  status: ('A' for Active; 'I' for Inactive)
REMARK    1  A    between atoms: C_1  and  C_2
REMARK    2  A    between atoms: C_2  and  C_3
REMARK    3  A    between atoms: C_3  and  C_4
REMARK    4  A    between atoms: N_6  and  C_7
REMARK    5  A    between atoms: C_20  and  C_23
REMARK    6  A    between atoms: C_25  and  N_30
REMARK    7  A    between atoms: C_28  and  O_29
REMARK                            x       y       z     vdW  Elec       q    Type
REMARK                         _______ _______ _______ _____ _____    ______ ____
ROOT
ATOM      1  C   UNL     1      -3.062   4.335  -0.455  0.00  0.00    +0.039 A 
ATOM      2  C   UNL     1      -4.220   4.666  -1.142  0.00  0.00    +0.025 A 
ATOM      3  C   UNL     1      -4.138   5.212  -2.408  0.00  0.00    +0.023 A 
ATOM      4  C   UNL     1      -2.902   5.428  -2.985  0.00  0.00    +0.062 A 
ATOM      5  C   UNL     1      -1.734   5.098  -2.298  0.00  0.00    +0.052 A 
ATOM      6  C   UNL     1      -1.811   4.546  -1.032  0.00  0.00    +0.003 A 
ATOM      7  C   UNL     1      -0.596   4.155  -0.243  0.00  0.00    +0.050 C 
ATOM      8  C   UNL     1      -0.469   2.650  -0.180  0.00  0.00    -0.023 C 
ATOM      9  C   UNL     1       0.785   2.291  -0.288  0.00  0.00    -0.030 C 
ATOM     10  C   UNL     1       1.676   3.507  -0.439  0.00  0.00    +0.033 C 
ATOM     11  C   UNL     1       0.704   4.613  -0.938  0.00  0.00    +0.029 C 
ATOM     12  C   UNL     1       0.543   4.447  -2.451  0.00  0.00    +0.109 C 
ATOM     13  N   UNL     1      -0.513   5.340  -2.929  0.00  0.00    -0.335 N 
ATOM     14 CL   UNL     1      -2.802   6.114  -4.576  0.00  0.00    -0.082 Cl
ATOM     15  H   UNL     1      -0.290   6.092  -3.701  0.00  0.00    +0.147 HD
ENDROOT
BRANCH  12  16
ATOM     16  C   UNL     1       1.841   4.793  -3.135  0.00  0.00    +0.017 A 
ATOM     17  C   UNL     1       2.811   5.506  -2.457  0.00  0.00    +0.041 A 
ATOM     18  C   UNL     1       4.004   5.819  -3.082  0.00  0.00    +0.127 A 
ATOM     19  C   UNL     1       4.225   5.428  -4.390  0.00  0.00    +0.036 A 
ATOM     20  C   UNL     1       3.256   4.719  -5.074  0.00  0.00    +0.048 A 
ATOM     21  C   UNL     1       2.060   4.399  -4.447  0.00  0.00    +0.122 A 
BRANCH  18  22
ATOM     22  N   UNL     1       5.043   6.579  -2.353  0.00  0.00    +0.056 N 
ATOM     23  O   UNL     1       6.092   6.859  -2.904  0.00  0.00    -0.126 OA
ATOM     24  O   UNL     1       4.849   6.923  -1.201  0.00  0.00    -0.126 OA
ENDBRANCH  18  22
BRANCH  21  25
ATOM     25  O   UNL     1       1.106   3.702  -5.117  0.00  0.00    -0.506 OA
ATOM     26  H   UNL     1       1.281   3.390  -6.157  0.00  0.00    +0.292 HD
ENDBRANCH  21  25
ENDBRANCH  12  16
BRANCH   1  29
ATOM     27  C   UNL     1      -4.288   3.180   1.226  0.00  0.00    +0.217 C 
ATOM     28  O   UNL     1      -5.198   3.023   0.440  0.00  0.00    -0.275 OA
ATOM     29  N   UNL     1      -3.151   3.783   0.829  0.00  0.00    -0.285 N 
ATOM     30  H   UNL     1      -2.291   3.842   1.513  0.00  0.00    +0.155 HD
BRANCH  27  31
ATOM     31  C   UNL     1      -4.430   2.700   2.647  0.00  0.00    +0.096 C 
BRANCH  31  33
ATOM     32  C   UNL     1      -5.949   1.569   4.277  0.00  0.00    +0.004 C 
ATOM     33  C   UNL     1      -5.806   2.057   2.834  0.00  0.00    +0.006 C 
ENDBRANCH  31  33
ENDBRANCH  27  31
ENDBRANCH   1  29
TORSDOF 6
