REMARK  Name = ZINC13121721
REMARK  5 active torsions:
REMARK  status: ('A' for Active; 'I' for Inactive)
REMARK    1  A    between atoms: C_1  and  O_2
REMARK    2  A    between atoms: O_2  and  C_3
REMARK    3  A    between atoms: C_6  and  C_10
REMARK    4  A    between atoms: C_7  and  O_9
REMARK    5  A    between atoms: C_12  and  C_16
REMARK                            x       y       z     vdW  Elec       q    Type
REMARK                         _______ _______ _______ _____ _____    ______ ____
ROOT
ATOM      1  C   UNL     1       2.499  -2.486  -4.374  0.00  0.00    +0.097 A 
ATOM      2  C   UNL     1       3.113  -1.827  -5.452  0.00  0.00    +0.058 A 
ATOM      3  C   UNL     1       3.598  -2.779  -6.301  0.00  0.00    +0.066 A 
ATOM      4  N   UNL     1       3.295  -3.997  -5.768  0.00  0.00    -0.276 N 
ATOM      5  H   UNL     1       3.516  -4.859  -6.154  0.00  0.00    +0.189 HD
ATOM      6  N   UNL     1       2.614  -3.784  -4.563  0.00  0.00    -0.173 NA
ENDROOT
BRANCH   3   7
ATOM      7  C   UNL     1       4.320  -2.534  -7.569  0.00  0.00    -0.000 A 
ATOM      8  C   UNL     1       4.567  -1.228  -7.993  0.00  0.00    +0.011 A 
ATOM      9  C   UNL     1       5.241  -1.006  -9.176  0.00  0.00    +0.020 A 
ATOM     10  C   UNL     1       5.672  -2.076  -9.942  0.00  0.00    +0.041 A 
ATOM     11  C   UNL     1       5.429  -3.374  -9.526  0.00  0.00    +0.020 A 
ATOM     12  C   UNL     1       4.762  -3.608  -8.341  0.00  0.00    +0.011 A 
ATOM     13 CL   UNL     1       6.520  -1.788 -11.430  0.00  0.00    -0.084 Cl
ENDBRANCH   3   7
BRANCH   1  17
ATOM     14  C   UNL     1       0.606  -0.607  -1.056  0.00  0.00    +0.124 A 
ATOM     15  C   UNL     1       1.173   0.165  -2.062  0.00  0.00    +0.046 A 
ATOM     16  C   UNL     1       1.787  -0.442  -3.138  0.00  0.00    +0.017 A 
ATOM     17  C   UNL     1       1.839  -1.831  -3.217  0.00  0.00    +0.044 A 
ATOM     18  C   UNL     1       1.269  -2.608  -2.204  0.00  0.00    +0.130 A 
ATOM     19  C   UNL     1       0.659  -1.991  -1.124  0.00  0.00    +0.091 A 
BRANCH  14  21
ATOM     20  C   UNL     1      -0.017   1.425   0.010  0.00  0.00    +0.277 C 
ATOM     21  O   UNL     1       0.002  -0.004   0.002  0.00  0.00    -0.495 OA
ENDBRANCH  14  21
BRANCH  18  22
ATOM     22  O   UNL     1       1.317  -3.963  -2.276  0.00  0.00    -0.506 OA
ATOM     23  H   UNL     1       2.099  -4.352  -1.861  0.00  0.00    +0.292 HD
ENDBRANCH  18  22
ENDBRANCH   1  17
TORSDOF 4
