REMARK  Name = ZINC22792016
REMARK  7 active torsions:
REMARK  status: ('A' for Active; 'I' for Inactive)
REMARK    1  A    between atoms: C_1  and  C_2
REMARK    2  A    between atoms: C_2  and  C_4
REMARK    3  A    between atoms: C_2  and  N_18
REMARK    4  A    between atoms: N_6  and  C_7
REMARK    5  A    between atoms: C_8  and  C_15
REMARK    6  A    between atoms: N_21  and  C_24
REMARK    7  A    between atoms: C_24  and  C_25
REMARK                            x       y       z     vdW  Elec       q    Type
REMARK                         _______ _______ _______ _____ _____    ______ ____
ROOT
ATOM      1  C   UNL     1      -1.002   1.726  -5.574  0.00  0.00    +0.034 C 
ATOM      2  C   UNL     1      -1.485   3.096  -5.097  0.00  0.00    +0.140 C 
ENDROOT
BRANCH   2   3
ATOM      3  N   UNL     1      -2.647   3.511  -5.894  0.00  0.00    -0.295 NA
ATOM      4  C   UNL     1      -3.856   2.783  -5.482  0.00  0.00    +0.066 C 
ATOM      5  C   UNL     1      -5.056   3.299  -6.280  0.00  0.00    -0.063 C 
ATOM      6  N   UNL     1      -4.800   3.119  -7.716  0.00  0.00    +0.387 N 
ATOM      7  C   UNL     1      -3.592   3.846  -8.128  0.00  0.00    -0.063 C 
ATOM      8  C   UNL     1      -2.392   3.330  -7.330  0.00  0.00    +0.066 C 
ATOM      9  H   UNL     1      -4.631   2.047  -7.899  0.00  0.00    -0.081 HD
BRANCH   6  10
ATOM     10  C   UNL     1      -5.962   3.533  -8.513  0.00  0.00    +0.019 C 
BRANCH  10  11
ATOM     11  C   UNL     1      -5.764   3.110  -9.946  0.00  0.00    +0.199 C 
ATOM     12  O   UNL     1      -4.805   2.434 -10.252  0.00  0.00    -0.278 OA
ATOM     13  N   UNL     1      -6.654   3.483 -10.887  0.00  0.00    -0.303 N 
ATOM     14  C   UNL     1      -7.790   4.284 -10.489  0.00  0.00    +0.107 C 
ATOM     15  C   UNL     1      -8.961   3.367 -10.079  0.00  0.00    +0.019 C 
ATOM     16  C   UNL     1      -9.532   2.708 -11.264  0.00  0.00    +0.002 C 
ATOM     17  C   UNL     1      -8.564   1.782 -11.995  0.00  0.00    +0.002 C 
ATOM     18  C   UNL     1      -7.733   2.590 -12.961  0.00  0.00    +0.019 C 
ATOM     19  C   UNL     1      -6.431   3.052 -12.281  0.00  0.00    +0.107 C 
ENDBRANCH  10  11
ENDBRANCH   6  10
ENDBRANCH   2   3
BRANCH   2  20
ATOM     20  C   UNL     1      -0.378   4.105  -5.261  0.00  0.00    +0.235 C 
ATOM     21  O   UNL     1      -0.437   4.933  -6.145  0.00  0.00    -0.274 OA
ATOM     22  N   UNL     1       0.679   4.087  -4.424  0.00  0.00    -0.278 N 
ATOM     23  H   UNL     1       0.733   3.337  -3.622  0.00  0.00    +0.155 HD
BRANCH  22  24
ATOM     24  C   UNL     1       1.698   5.016  -4.575  0.00  0.00    +0.084 A 
ATOM     25  C   UNL     1       2.852   5.156  -3.823  0.00  0.00    +0.068 A 
ATOM     26  C   UNL     1       3.778   6.224  -4.198  0.00  0.00    -0.023 A 
ATOM     27  C   UNL     1       3.396   6.968  -5.251  0.00  0.00    -0.004 A 
ATOM     28  S   UNL     1       1.835   6.281  -5.748  0.00  0.00    -0.077 S 
ATOM     29  C   UNL     1       4.400   8.041  -5.578  0.00  0.00    +0.043 C 
ATOM     30  C   UNL     1       5.689   7.603  -4.848  0.00  0.00    +0.010 C 
ATOM     31  C   UNL     1       5.123   6.751  -3.694  0.00  0.00    +0.037 C 
BRANCH  25  32
ATOM     32  C   UNL     1       3.138   4.263  -2.696  0.00  0.00    +0.244 C 
ATOM     33  O   UNL     1       2.757   4.553  -1.578  0.00  0.00    -0.270 OA
ATOM     34  N   UNL     1       3.817   3.117  -2.900  0.00  0.00    -0.325 N 
ATOM     35  H   UNL     1       4.032   2.447  -2.055  0.00  0.00    +0.145 HD
ATOM     36  H   UNL     1       4.158   2.852  -3.912  0.00  0.00    +0.145 HD
ENDBRANCH  25  32
ENDBRANCH  22  24
ENDBRANCH   2  20
TORSDOF 6
