REMARK  Name = ZINC35677447
REMARK  8 active torsions:
REMARK  status: ('A' for Active; 'I' for Inactive)
REMARK    1  A    between atoms: C_1  and  C_2
REMARK    2  A    between atoms: C_2  and  C_3
REMARK    3  A    between atoms: C_3  and  C_4
REMARK    4  A    between atoms: C_9  and  S_11
REMARK    5  A    between atoms: S_11  and  C_12
REMARK    6  A    between atoms: C_12  and  C_13
REMARK    7  A    between atoms: C_13  and  C_14
REMARK    8  A    between atoms: C_17  and  N_20
REMARK                            x       y       z     vdW  Elec       q    Type
REMARK                         _______ _______ _______ _____ _____    ______ ____
ROOT
ATOM      1  S   UNL     1       1.930  -4.842   1.161  0.00  0.00    -0.086 S 
ENDROOT
BRANCH   1   7
ATOM      2  C   UNL     1       0.739  -2.004  -1.265  0.00  0.00    +0.049 A 
ATOM      3  C   UNL     1       0.239  -2.704  -2.348  0.00  0.00    +0.095 A 
ATOM      4  C   UNL     1       0.277  -4.097  -2.315  0.00  0.00    +0.274 A 
ATOM      5  O   UNL     1      -0.202  -4.822  -3.355  0.00  0.00    -0.266 OA
ATOM      6  N   UNL     1       0.789  -4.704  -1.251  0.00  0.00    -0.183 NA
ATOM      7  C   UNL     1       1.258  -3.998  -0.232  0.00  0.00    +0.192 A 
ATOM      8  N   UNL     1       1.240  -2.673  -0.238  0.00  0.00    -0.227 NA
BRANCH   2   9
ATOM      9  C   UNL     1       0.718  -0.497  -1.257  0.00  0.00    +0.055 C 
BRANCH   9  11
ATOM     10  C   UNL     1      -0.019   1.526   0.010  0.00  0.00    +0.004 C 
ATOM     11  C   UNL     1       0.002  -0.004   0.002  0.00  0.00    +0.003 C 
ENDBRANCH   9  11
ENDBRANCH   2   9
ENDBRANCH   1   7
BRANCH   1  12
ATOM     12  C   UNL     1       1.757  -6.597   0.736  0.00  0.00    +0.082 C 
BRANCH  12  13
ATOM     13  C   UNL     1       2.309  -7.455   1.876  0.00  0.00    +0.046 C 
BRANCH  13  14
ATOM     14  C   UNL     1       2.166  -8.913   1.523  0.00  0.00    -0.046 A 
ATOM     15  C   UNL     1       1.014  -9.596   1.868  0.00  0.00    +0.005 A 
ATOM     16  C   UNL     1       0.880 -10.932   1.546  0.00  0.00    +0.023 A 
ATOM     17  C   UNL     1       1.903 -11.590   0.875  0.00  0.00    +0.025 A 
ATOM     18  C   UNL     1       3.059 -10.900   0.530  0.00  0.00    +0.023 A 
ATOM     19  C   UNL     1       3.184  -9.563   0.850  0.00  0.00    +0.005 A 
BRANCH  17  20
ATOM     20  N   UNL     1       1.770 -12.941   0.547  0.00  0.00    -0.358 N 
ATOM     21  H   UNL     1       0.963 -13.422   0.789  0.00  0.00    +0.142 HD
ATOM     22  H   UNL     1       2.486 -13.399   0.079  0.00  0.00    +0.142 HD
ENDBRANCH  17  20
ENDBRANCH  13  14
ENDBRANCH  12  13
ENDBRANCH   1  12
TORSDOF 7
