REMARK  Name = ZINC65298520
REMARK  6 active torsions:
REMARK  status: ('A' for Active; 'I' for Inactive)
REMARK    1  A    between atoms: C_1  and  C_2
REMARK    2  A    between atoms: C_2  and  O_3
REMARK    3  A    between atoms: O_3  and  C_4
REMARK    4  A    between atoms: C_13  and  C_25
REMARK    5  A    between atoms: C_16  and  C_18
REMARK    6  A    between atoms: C_23  and  O_24
REMARK                            x       y       z     vdW  Elec       q    Type
REMARK                         _______ _______ _______ _____ _____    ______ ____
ROOT
ATOM      1  C   UNL     1       0.776  -1.798  -1.335  0.00  0.00    +0.403 C 
ATOM      2  O   UNL     1       0.312  -2.549  -0.500  0.00  0.00    -0.226 OA
ATOM      3  N   UNL     1       1.395  -2.298  -2.422  0.00  0.00    -0.267 N 
ATOM      4  C   UNL     1       1.966  -1.403  -3.438  0.00  0.00    +0.111 C 
ATOM      5  C   UNL     1       3.434  -1.781  -3.658  0.00  0.00    +0.029 C 
ATOM      6  C   UNL     1       3.527  -3.268  -4.013  0.00  0.00    +0.032 C 
ATOM      7  C   UNL     1       2.986  -4.100  -2.846  0.00  0.00    +0.029 C 
ATOM      8  C   UNL     1       1.518  -3.750  -2.612  0.00  0.00    +0.111 C 
ATOM      9  N   UNL     1       4.934  -3.621  -4.243  0.00  0.00    +0.400 N 
ATOM     10  C   UNL     1       5.005  -5.006  -4.735  0.00  0.00    -0.032 C 
ATOM     11  C   UNL     1       4.413  -5.044  -6.148  0.00  0.00    +0.044 C 
ATOM     12  C   UNL     1       3.099  -4.312  -6.156  0.00  0.00    +0.044 C 
ATOM     13  N   UNL     1       2.732  -3.533  -5.208  0.00  0.00    -0.300 NA
ATOM     14  H   UNL     1       5.331  -2.997  -4.930  0.00  0.00    -0.081 HD
ATOM     15  H   UNL     1       5.448  -3.543  -3.378  0.00  0.00    -0.081 HD
ENDROOT
BRANCH  10  16
ATOM     16  C   UNL     1       6.441  -5.460  -4.773  0.00  0.00    -0.061 A 
ATOM     17  C   UNL     1       7.431  -4.588  -5.188  0.00  0.00    +0.003 A 
ATOM     18  C   UNL     1       8.748  -5.004  -5.223  0.00  0.00    +0.020 A 
ATOM     19  C   UNL     1       9.077  -6.293  -4.841  0.00  0.00    +0.041 A 
ATOM     20  C   UNL     1       8.087  -7.164  -4.425  0.00  0.00    +0.020 A 
ATOM     21  C   UNL     1       6.770  -6.746  -4.386  0.00  0.00    +0.003 A 
ATOM     22 CL   UNL     1      10.732  -6.816  -4.884  0.00  0.00    -0.084 Cl
ENDBRANCH  10  16
BRANCH  12  23
ATOM     23  C   UNL     1       2.196  -4.498  -7.306  0.00  0.00    +0.037 A 
ATOM     24  C   UNL     1       2.560  -5.344  -8.356  0.00  0.00    +0.013 A 
ATOM     25  C   UNL     1       1.710  -5.514  -9.428  0.00  0.00    +0.001 A 
ATOM     26  C   UNL     1       0.495  -4.850  -9.468  0.00  0.00    +0.004 A 
ATOM     27  C   UNL     1       0.123  -4.011  -8.437  0.00  0.00    +0.046 A 
ATOM     28  C   UNL     1       0.963  -3.832  -7.348  0.00  0.00    +0.126 A 
BRANCH  28  29
ATOM     29  O   UNL     1       0.596  -3.012  -6.331  0.00  0.00    -0.506 OA
ATOM     30  H   UNL     1       0.872  -2.093  -6.448  0.00  0.00    +0.292 HD
ENDBRANCH  28  29
ENDBRANCH  12  23
BRANCH   1  31
ATOM     31  O   UNL     1       0.671  -0.465  -1.174  0.00  0.00    -0.451 OA
BRANCH  31  33
ATOM     32  C   UNL     1      -0.019   1.526   0.010  0.00  0.00    +0.048 C 
ATOM     33  C   UNL     1       0.002  -0.004   0.002  0.00  0.00    +0.230 C 
ENDBRANCH  31  33
ENDBRANCH   1  31
TORSDOF 5
