REMARK  Name = ZINC35615926
REMARK  8 active torsions:
REMARK  status: ('A' for Active; 'I' for Inactive)
REMARK    1  A    between atoms: C_1  and  C_2
REMARK    2  A    between atoms: C_7  and  C_19
REMARK    3  A    between atoms: C_8  and  N_11
REMARK    4  A    between atoms: N_11  and  C_12
REMARK    5  A    between atoms: C_22  and  O_27
REMARK    6  A    between atoms: C_23  and  O_25
REMARK    7  A    between atoms: O_25  and  C_26
REMARK    8  A    between atoms: O_27  and  C_28
REMARK                            x       y       z     vdW  Elec       q    Type
REMARK                         _______ _______ _______ _____ _____    ______ ____
ROOT
ATOM      1  C   UNL     1       3.819  -0.182   0.445  0.00  0.00    +0.045 C 
ATOM      2  C   UNL     1       2.684  -1.163   0.302  0.00  0.00    -0.034 A 
ATOM      3  C   UNL     1       2.371  -1.690  -0.964  0.00  0.00    +0.008 A 
ATOM      4  C   UNL     1       1.347  -2.574  -1.093  0.00  0.00    +0.045 A 
ATOM      5  C   UNL     1       0.611  -2.952   0.050  0.00  0.00    +0.117 A 
ATOM      6  N   UNL     1      -0.412  -3.776   0.211  0.00  0.00    -0.338 N 
ATOM      7  C   UNL     1      -0.764  -3.800   1.509  0.00  0.00    +0.087 A 
ATOM      8  C   UNL     1       0.078  -2.950   2.195  0.00  0.00    +0.133 A 
ATOM      9  N   UNL     1       0.941  -2.420   1.275  0.00  0.00    -0.289 N 
ATOM     10  C   UNL     1       1.978  -1.534   1.388  0.00  0.00    +0.097 A 
ATOM     11  H   UNL     1      -0.841  -4.283  -0.496  0.00  0.00    +0.167 HD
ENDROOT
BRANCH   7  12
ATOM     12  C   UNL     1      -1.865  -4.598   2.098  0.00  0.00    +0.005 A 
ATOM     13  C   UNL     1      -2.744  -4.012   3.007  0.00  0.00    +0.014 A 
ATOM     14  C   UNL     1      -3.769  -4.756   3.556  0.00  0.00    +0.050 A 
ATOM     15  C   UNL     1      -3.927  -6.088   3.204  0.00  0.00    +0.162 A 
ATOM     16  C   UNL     1      -3.052  -6.679   2.296  0.00  0.00    +0.162 A 
ATOM     17  C   UNL     1      -2.027  -5.936   1.740  0.00  0.00    +0.059 A 
BRANCH  16  18
ATOM     18  O   UNL     1      -3.209  -7.986   1.953  0.00  0.00    -0.491 OA
ATOM     19  C   UNL     1      -2.275  -8.527   1.017  0.00  0.00    +0.277 C 
ENDBRANCH  16  18
BRANCH  15  20
ATOM     20  O   UNL     1      -4.938  -6.818   3.746  0.00  0.00    -0.491 OA
ATOM     21  C   UNL     1      -5.798  -6.149   4.671  0.00  0.00    +0.277 C 
ENDBRANCH  15  20
ENDBRANCH   7  12
BRANCH   8  22
ATOM     22  N   UNL     1       0.055  -2.683   3.565  0.00  0.00    -0.299 N 
ATOM     23  H   UNL     1       0.404  -3.336   4.192  0.00  0.00    +0.154 HD
BRANCH  22  24
ATOM     24  C   UNL     1      -0.470  -1.477   4.032  0.00  0.00    +0.032 A 
ATOM     25  C   UNL     1      -1.094  -0.601   3.151  0.00  0.00    +0.024 A 
ATOM     26  C   UNL     1      -1.613   0.591   3.616  0.00  0.00    +0.017 A 
ATOM     27  C   UNL     1      -1.511   0.915   4.958  0.00  0.00    +0.018 A 
ATOM     28  C   UNL     1      -0.891   0.045   5.838  0.00  0.00    +0.017 A 
ATOM     29  C   UNL     1      -0.376  -1.151   5.380  0.00  0.00    +0.024 A 
ATOM     30 BR   UNL     1      -2.221   2.549   5.590  0.00  0.00    -0.050 Br
ENDBRANCH  22  24
ENDBRANCH   8  22
TORSDOF 5
