REMARK  Name = ZINC04547260
REMARK  8 active torsions:
REMARK  status: ('A' for Active; 'I' for Inactive)
REMARK    1  A    between atoms: C_1  and  C_2
REMARK    2  A    between atoms: C_2  and  C_4
REMARK    3  A    between atoms: C_2  and  O_11
REMARK    4  A    between atoms: N_9  and  C_10
REMARK    5  A    between atoms: O_11  and  C_12
REMARK    6  A    between atoms: C_12  and  C_14
REMARK    7  A    between atoms: N_23  and  C_25
REMARK    8  A    between atoms: C_25  and  C_26
REMARK                            x       y       z     vdW  Elec       q    Type
REMARK                         _______ _______ _______ _____ _____    ______ ____
ROOT
ATOM      1  C   UNL     1      -2.818  -0.700   3.193  0.00  0.00    +0.176 A 
ATOM      2  C   UNL     1      -3.673   0.185   4.002  0.00  0.00    +0.021 A 
ATOM      3  C   UNL     1      -4.035  -0.110   5.312  0.00  0.00    +0.011 A 
ATOM      4  C   UNL     1      -4.840   0.769   6.006  0.00  0.00    +0.001 A 
ATOM      5  C   UNL     1      -5.290   1.940   5.412  0.00  0.00    +0.001 A 
ATOM      6  C   UNL     1      -4.943   2.251   4.114  0.00  0.00    +0.014 A 
ATOM      7  C   UNL     1      -4.132   1.378   3.398  0.00  0.00    +0.050 A 
ATOM      8  C   UNL     1      -3.715   1.631   2.012  0.00  0.00    +0.275 A 
ATOM      9  O   UNL     1      -4.072   2.638   1.428  0.00  0.00    -0.266 OA
ATOM     10  N   UNL     1      -2.927   0.722   1.401  0.00  0.00    -0.224 N 
ATOM     11  N   UNL     1      -2.525  -0.355   1.962  0.00  0.00    -0.161 NA
ENDROOT
BRANCH   1  12
ATOM     12  C   UNL     1      -2.303  -1.961   3.758  0.00  0.00    +0.361 C 
ATOM     13  O   UNL     1      -2.583  -2.276   4.898  0.00  0.00    -0.243 OA
BRANCH  12  14
ATOM     14  O   UNL     1      -1.521  -2.764   3.010  0.00  0.00    -0.448 OA
BRANCH  14  16
ATOM     15  C   UNL     1      -2.055  -5.113   3.370  0.00  0.00    +0.062 C 
ATOM     16  C   UNL     1      -1.050  -3.990   3.631  0.00  0.00    +0.259 C 
BRANCH  16  17
ATOM     17  C   UNL     1       0.287  -4.367   3.047  0.00  0.00    +0.261 C 
ATOM     18  O   UNL     1       0.793  -3.671   2.193  0.00  0.00    -0.271 OA
ATOM     19  N   UNL     1       0.921  -5.476   3.476  0.00  0.00    -0.237 N 
ATOM     20  C   UNL     1       2.117  -5.814   2.954  0.00  0.00    +0.306 C 
ATOM     21  O   UNL     1       2.624  -5.117   2.097  0.00  0.00    -0.252 OA
ATOM     22  N   UNL     1       2.750  -6.924   3.382  0.00  0.00    -0.302 N 
ATOM     23  C   UNL     1       4.050  -7.290   2.815  0.00  0.00    +0.129 C 
ATOM     24  H   UNL     1       0.516  -6.033   4.159  0.00  0.00    +0.159 HD
ATOM     25  H   UNL     1       2.345  -7.480   4.066  0.00  0.00    +0.150 HD
ENDBRANCH  16  17
ENDBRANCH  14  16
ENDBRANCH  12  14
ENDBRANCH   1  12
BRANCH  10  26
ATOM     26  C   UNL     1      -2.514   0.980   0.019  0.00  0.00    +0.182 C 
BRANCH  26  27
ATOM     27  C   UNL     1      -1.219   1.751   0.017  0.00  0.00    -0.026 A 
ATOM     28  C   UNL     1      -0.013   1.076   0.008  0.00  0.00    +0.005 A 
ATOM     29  C   UNL     1       1.175   1.783   0.000  0.00  0.00    +0.000 A 
ATOM     30  C   UNL     1       1.156   3.165   0.008  0.00  0.00    +0.000 A 
ATOM     31  C   UNL     1      -0.050   3.840   0.022  0.00  0.00    +0.000 A 
ATOM     32  C   UNL     1      -1.238   3.133   0.030  0.00  0.00    +0.005 A 
ENDBRANCH  26  27
ENDBRANCH  10  26
TORSDOF 6
