REMARK  Name = ZINC04787849
REMARK  7 active torsions:
REMARK  status: ('A' for Active; 'I' for Inactive)
REMARK    1  A    between atoms: C_1  and  C_2
REMARK    2  A    between atoms: C_4  and  C_29
REMARK    3  A    between atoms: C_6  and  N_8
REMARK    4  A    between atoms: C_9  and  C_11
REMARK    5  A    between atoms: C_11  and  N_12
REMARK    6  A    between atoms: C_15  and  C_19
REMARK    7  A    between atoms: C_15  and  C_20
REMARK                            x       y       z     vdW  Elec       q    Type
REMARK                         _______ _______ _______ _____ _____    ______ ____
ROOT
ATOM      1  N   UNL     1       1.571   1.806   0.024  0.00  0.00    -0.215 N 
ATOM      2  C   UNL     1       2.641   0.990  -0.045  0.00  0.00    +0.251 C 
ATOM      3  O   UNL     1       3.807   1.315  -0.119  0.00  0.00    -0.272 OA
ATOM      4  C   UNL     1       2.084  -0.420  -0.010  0.00  0.00    +0.135 C 
ATOM      5  N   UNL     1       0.629  -0.215   0.083  0.00  0.00    -0.281 N 
ATOM      6  C   UNL     1       0.427   1.115   0.096  0.00  0.00    +0.310 C 
ATOM      7  O   UNL     1      -0.671   1.632   0.162  0.00  0.00    -0.252 OA
ATOM      8  C   UNL     1       2.601  -1.176   1.215  0.00  0.00    +0.047 C 
ATOM      9  H   UNL     1      -0.052  -0.904   0.126  0.00  0.00    +0.152 HD
ENDROOT
BRANCH   4  10
ATOM     10  C   UNL     1       2.436  -1.159  -1.275  0.00  0.00    -0.012 A 
ATOM     11  C   UNL     1       3.642  -0.913  -1.906  0.00  0.00    +0.010 A 
ATOM     12  C   UNL     1       3.971  -1.593  -3.064  0.00  0.00    +0.050 A 
ATOM     13  C   UNL     1       3.088  -2.516  -3.601  0.00  0.00    +0.166 A 
ATOM     14  C   UNL     1       1.872  -2.760  -2.968  0.00  0.00    +0.167 A 
ATOM     15  C   UNL     1       1.551  -2.079  -1.805  0.00  0.00    +0.055 A 
ATOM     16  O   UNL     1       1.188  -3.700  -3.685  0.00  0.00    -0.453 OA
ATOM     17  C   UNL     1       2.169  -4.325  -4.533  0.00  0.00    +0.466 C 
ATOM     18  O   UNL     1       3.167  -3.302  -4.714  0.00  0.00    -0.453 OA
ENDBRANCH   4  10
BRANCH   1  19
ATOM     19  C   UNL     1       1.650   3.269   0.019  0.00  0.00    +0.214 C 
BRANCH  19  21
ATOM     20  N   UNL     1       1.854   5.094   1.677  0.00  0.00    -0.284 N 
ATOM     21  C   UNL     1       1.767   3.771   1.435  0.00  0.00    +0.235 C 
ATOM     22  O   UNL     1       1.783   2.983   2.358  0.00  0.00    -0.274 OA
ATOM     23  H   UNL     1       1.919   5.718   0.937  0.00  0.00    +0.155 HD
BRANCH  20  29
ATOM     24  C   UNL     1       3.377   8.388   4.994  0.00  0.00    +0.044 C 
ATOM     25  C   UNL     1       2.581   7.161   4.629  0.00  0.00    -0.048 A 
ATOM     26  C   UNL     1       1.849   6.500   5.598  0.00  0.00    +0.006 A 
ATOM     27  C   UNL     1       1.117   5.374   5.268  0.00  0.00    -0.048 A 
ATOM     28  C   UNL     1       1.117   4.905   3.969  0.00  0.00    +0.026 A 
ATOM     29  C   UNL     1       1.852   5.566   2.994  0.00  0.00    +0.034 A 
ATOM     30  C   UNL     1       2.589   6.694   3.329  0.00  0.00    +0.026 A 
ATOM     31  C   UNL     1       0.320   4.657   6.327  0.00  0.00    +0.044 C 
ENDBRANCH  20  29
ENDBRANCH  19  21
ENDBRANCH   1  19
TORSDOF 4
