REMARK  Name = ZINC67410647
REMARK  7 active torsions:
REMARK  status: ('A' for Active; 'I' for Inactive)
REMARK    1  A    between atoms: C_1  and  C_2
REMARK    2  A    between atoms: C_2  and  C_4
REMARK    3  A    between atoms: C_2  and  N_14
REMARK    4  A    between atoms: N_17  and  C_18
REMARK    5  A    between atoms: C_18  and  C_19
REMARK    6  A    between atoms: C_18  and  C_20
REMARK    7  A    between atoms: C_18  and  C_21
REMARK                            x       y       z     vdW  Elec       q    Type
REMARK                         _______ _______ _______ _____ _____    ______ ____
ROOT
ATOM      1  N   UNL     1      -1.396  -0.450   0.019  0.00  0.00    -0.293 N 
ATOM      2  C   UNL     1      -2.077  -0.577  -1.137  0.00  0.00    +0.301 C 
ATOM      3  O   UNL     1      -1.577  -0.205  -2.181  0.00  0.00    -0.253 OA
ATOM      4  N   UNL     1      -3.313  -1.115  -1.136  0.00  0.00    -0.290 N 
ATOM      5  H   UNL     1      -1.795  -0.747   0.852  0.00  0.00    +0.151 HD
ATOM      6  H   UNL     1      -3.712  -1.411  -0.303  0.00  0.00    +0.151 HD
ENDROOT
BRANCH   4   7
ATOM      7  C   UNL     1      -4.053  -1.252  -2.393  0.00  0.00    +0.056 C 
ATOM      8  C   UNL     1      -4.276   0.131  -3.007  0.00  0.00    +0.036 C 
ATOM      9  C   UNL     1      -3.250  -2.119  -3.365  0.00  0.00    +0.036 C 
BRANCH   7  10
ATOM     10  C   UNL     1      -5.385  -1.903  -2.123  0.00  0.00    -0.025 A 
ATOM     11  C   UNL     1      -6.443  -1.697  -2.989  0.00  0.00    +0.007 A 
ATOM     12  C   UNL     1      -7.665  -2.293  -2.741  0.00  0.00    +0.020 A 
ATOM     13  C   UNL     1      -7.829  -3.097  -1.627  0.00  0.00    +0.041 A 
ATOM     14  C   UNL     1      -6.770  -3.303  -0.761  0.00  0.00    +0.020 A 
ATOM     15  C   UNL     1      -5.547  -2.710  -1.012  0.00  0.00    +0.007 A 
ATOM     16 CL   UNL     1      -9.364  -3.846  -1.316  0.00  0.00    -0.084 Cl
ENDBRANCH   7  10
ENDBRANCH   4   7
BRANCH   1  18
ATOM     17  C   UNL     1      -0.161   1.660   0.086  0.00  0.00    +0.033 C 
ATOM     18  C   UNL     1      -0.053   0.135   0.018  0.00  0.00    +0.102 C 
BRANCH  18  19
ATOM     19  C   UNL     1       0.715  -0.367   1.214  0.00  0.00    -0.027 A 
ATOM     20  C   UNL     1       0.082  -0.507   2.436  0.00  0.00    +0.007 A 
ATOM     21  C   UNL     1       0.779  -0.966   3.534  0.00  0.00    +0.024 A 
ATOM     22  C   UNL     1       2.128  -1.294   3.419  0.00  0.00    +0.037 A 
ATOM     23  C   UNL     1       2.752  -1.150   2.186  0.00  0.00    -0.017 A 
ATOM     24  C   UNL     1       2.053  -0.696   1.091  0.00  0.00    +0.011 A 
ATOM     25  C   UNL     1       4.188  -1.579   2.384  0.00  0.00    +0.133 C 
ATOM     26  C   UNL     1       4.259  -1.964   3.846  0.00  0.00    +0.222 C 
ATOM     27  O   UNL     1       5.237  -2.371   4.437  0.00  0.00    -0.275 OA
ATOM     28  N   UNL     1       3.035  -1.771   4.366  0.00  0.00    -0.285 N 
ATOM     29  H   UNL     1       2.808  -1.944   5.293  0.00  0.00    +0.155 HD
ENDBRANCH  18  19
ENDBRANCH   1  18
TORSDOF 4
