REMARK  Name = ZINC09356722
REMARK  3 active torsions:
REMARK  status: ('A' for Active; 'I' for Inactive)
REMARK    1  A    between atoms: C_1  and  C_2
REMARK    2  A    between atoms: C_4  and  C_36
REMARK    3  A    between atoms: N_20  and  C_23
REMARK                            x       y       z     vdW  Elec       q    Type
REMARK                         _______ _______ _______ _____ _____    ______ ____
ROOT
ATOM      1  C   UNL     1       1.441  -4.478   0.237  0.00  0.00    +0.044 C 
ATOM      2  C   UNL     1       1.016  -3.034   0.315  0.00  0.00    -0.050 A 
ATOM      3  C   UNL     1      -0.316  -2.713   0.505  0.00  0.00    +0.008 A 
ATOM      4  C   UNL     1      -0.711  -1.394   0.577  0.00  0.00    -0.029 A 
ATOM      5  C   UNL     1       0.229  -0.373   0.459  0.00  0.00    +0.039 A 
ATOM      6  C   UNL     1       1.566  -0.708   0.268  0.00  0.00    -0.027 A 
ATOM      7  C   UNL     1       1.956  -2.027   0.196  0.00  0.00    +0.008 A 
ATOM      8  C   UNL     1       2.309   0.596   0.181  0.00  0.00    +0.053 C 
ATOM      9  C   UNL     1       3.040   0.736  -1.159  0.00  0.00    +0.089 C 
ATOM     10  C   UNL     1       4.507   0.332  -0.851  0.00  0.00    +0.074 C 
ATOM     11  C   UNL     1       4.524  -0.010   0.651  0.00  0.00    -0.054 C 
ATOM     12  C   UNL     1       3.780   2.108   1.365  0.00  0.00    -0.076 C 
ATOM     13  C   UNL     1       5.259   2.031   1.794  0.00  0.00    -0.020 C 
ATOM     14  C   UNL     1       5.748   0.652   1.310  0.00  0.00    -0.016 C 
ATOM     15  C   UNL     1       4.698  -0.932  -1.657  0.00  0.00    +0.228 C 
ATOM     16  O   UNL     1       5.716  -1.589  -1.700  0.00  0.00    -0.275 OA
ATOM     17  N   UNL     1       3.568  -1.214  -2.316  0.00  0.00    -0.210 N 
ATOM     18  C   UNL     1       2.573  -0.343  -2.110  0.00  0.00    +0.229 C 
ATOM     19  O   UNL     1       1.470  -0.409  -2.608  0.00  0.00    -0.275 OA
ATOM     20  C   UNL     1       1.254   1.657   0.344  0.00  0.00    +0.212 C 
ATOM     21  O   UNL     1       1.427   2.857   0.337  0.00  0.00    -0.277 OA
ATOM     22  N   UNL     1       0.080   1.015   0.498  0.00  0.00    -0.286 N 
ATOM     23  C   UNL     1      -2.165  -1.056   0.784  0.00  0.00    +0.045 C 
ATOM     24  H   UNL     1      -0.771   1.464   0.619  0.00  0.00    +0.155 HD
ATOM     25  N   UNL     1       3.384   0.701   1.180  0.00  0.00    +0.395 N 
ATOM     26  H   UNL     1       3.081   0.297   2.074  0.00  0.00    -0.079 HD
ENDROOT
BRANCH  17  27
ATOM     27  C   UNL     1       3.437  -2.330  -3.153  0.00  0.00    +0.044 A 
ATOM     28  C   UNL     1       3.531  -3.616  -2.609  0.00  0.00    +0.024 A 
ATOM     29  C   UNL     1       3.404  -4.718  -3.395  0.00  0.00    +0.010 A 
ATOM     30  C   UNL     1       3.184  -4.569  -4.776  0.00  0.00    -0.018 A 
ATOM     31  C   UNL     1       3.053  -5.687  -5.617  0.00  0.00    +0.008 A 
ATOM     32  C   UNL     1       2.841  -5.506  -6.949  0.00  0.00    +0.001 A 
ATOM     33  C   UNL     1       2.752  -4.227  -7.495  0.00  0.00    +0.001 A 
ATOM     34  C   UNL     1       2.874  -3.121  -6.711  0.00  0.00    +0.008 A 
ATOM     35  C   UNL     1       3.093  -3.268  -5.330  0.00  0.00    -0.016 A 
ATOM     36  C   UNL     1       3.224  -2.150  -4.491  0.00  0.00    +0.032 A 
ENDBRANCH  17  27
TORSDOF 1
