REMARK  Name = ZINC39920312
REMARK  6 active torsions:
REMARK  status: ('A' for Active; 'I' for Inactive)
REMARK    1  A    between atoms: C_3  and  O_32
REMARK    2  A    between atoms: C_6  and  C_7
REMARK    3  A    between atoms: N_18  and  N_19
REMARK    4  A    between atoms: C_20  and  C_22
REMARK    5  A    between atoms: C_22  and  O_23
REMARK    6  A    between atoms: O_23  and  C_24
REMARK                            x       y       z     vdW  Elec       q    Type
REMARK                         _______ _______ _______ _____ _____    ______ ____
ROOT
ATOM      1  C   UNL     1      -1.151  -0.747   0.030  0.00  0.00    +0.212 C 
ATOM      2  N   UNL     1      -2.157   0.030   0.765  0.00  0.00    -0.320 N 
ATOM      3  C   UNL     1      -2.175  -0.053   2.153  0.00  0.00    +0.041 A 
ATOM      4  C   UNL     1      -2.603   1.000   2.944  0.00  0.00    +0.025 A 
ATOM      5  C   UNL     1      -2.598   0.867   4.319  0.00  0.00    +0.022 A 
ATOM      6  C   UNL     1      -2.168  -0.310   4.913  0.00  0.00    +0.042 A 
ATOM      7  C   UNL     1      -1.739  -1.369   4.138  0.00  0.00    +0.035 A 
ATOM      8  C   UNL     1      -1.741  -1.249   2.751  0.00  0.00    +0.061 A 
ATOM      9  C   UNL     1      -1.302  -2.351   1.876  0.00  0.00    +0.267 C 
ATOM     10  O   UNL     1      -1.158  -3.472   2.325  0.00  0.00    -0.268 OA
ATOM     11  N   UNL     1      -1.062  -2.101   0.575  0.00  0.00    -0.191 N 
ATOM     12 CL   UNL     1      -2.168  -0.453   6.643  0.00  0.00    -0.084 Cl
ATOM     13  H   UNL     1      -2.795   0.588   0.293  0.00  0.00    +0.148 HD
ENDROOT
BRANCH   1  19
ATOM     14  C   UNL     1       0.722   0.183   1.404  0.00  0.00    +0.011 A 
ATOM     15  C   UNL     1       1.951   0.803   1.519  0.00  0.00    +0.046 A 
ATOM     16  C   UNL     1       2.651   1.172   0.380  0.00  0.00    +0.117 A 
ATOM     17  C   UNL     1       2.115   0.916  -0.874  0.00  0.00    +0.046 A 
ATOM     18  C   UNL     1       0.885   0.296  -0.984  0.00  0.00    +0.011 A 
ATOM     19  C   UNL     1       0.190  -0.070   0.153  0.00  0.00    -0.008 A 
BRANCH  16  20
ATOM     20  O   UNL     1       3.860   1.782   0.491  0.00  0.00    -0.507 OA
ATOM     21  H   UNL     1       4.609   1.170   0.513  0.00  0.00    +0.292 HD
ENDBRANCH  16  20
ENDBRANCH   1  19
BRANCH  11  22
ATOM     22  N   UNL     1      -0.720  -3.163  -0.272  0.00  0.00    -0.227 N 
ATOM     23  C   UNL     1       0.525  -3.679  -0.236  0.00  0.00    +0.267 C 
ATOM     24  O   UNL     1       1.320  -3.288   0.592  0.00  0.00    -0.271 OA
ATOM     25  H   UNL     1      -1.378  -3.526  -0.885  0.00  0.00    +0.173 HD
BRANCH  23  26
ATOM     26  C   UNL     1       0.929  -4.741  -1.226  0.00  0.00    +0.326 C 
BRANCH  26  27
ATOM     27  O   UNL     1       2.284  -5.124  -0.987  0.00  0.00    -0.483 OA
BRANCH  27  28
ATOM     28  C   UNL     1       2.808  -6.080  -1.799  0.00  0.00    +0.121 A 
ATOM     29  C   UNL     1       2.034  -6.634  -2.808  0.00  0.00    +0.047 A 
ATOM     30  C   UNL     1       2.568  -7.606  -3.632  0.00  0.00    +0.019 A 
ATOM     31  C   UNL     1       3.873  -8.027  -3.451  0.00  0.00    +0.018 A 
ATOM     32  C   UNL     1       4.646  -7.476  -2.445  0.00  0.00    +0.019 A 
ATOM     33  C   UNL     1       4.118  -6.500  -1.622  0.00  0.00    +0.047 A 
ATOM     34 BR   UNL     1       4.601  -9.357  -4.581  0.00  0.00    -0.050 Br
ENDBRANCH  27  28
ENDBRANCH  26  27
ENDBRANCH  23  26
ENDBRANCH  11  22
TORSDOF 6
