REMARK  Name = ZINC39918699
REMARK  9 active torsions:
REMARK  status: ('A' for Active; 'I' for Inactive)
REMARK    1  A    between atoms: C_1  and  C_2
REMARK    2  A    between atoms: C_2  and  C_3
REMARK    3  A    between atoms: C_3  and  C_4
REMARK    4  A    between atoms: C_4  and  N_5
REMARK    5  A    between atoms: C_18  and  C_29
REMARK    6  A    between atoms: N_19  and  C_22
REMARK    7  A    between atoms: C_22  and  C_23
REMARK    8  A    between atoms: C_31  and  N_35
REMARK    9  A    between atoms: C_32  and  C_33
REMARK                            x       y       z     vdW  Elec       q    Type
REMARK                         _______ _______ _______ _____ _____    ______ ____
ROOT
ATOM      1  N   UNL     1      -2.093  -1.609  -0.070  0.00  0.00    -0.270 N 
ATOM      2  C   UNL     1      -2.675  -1.954   1.137  0.00  0.00    +0.041 A 
ATOM      3  C   UNL     1      -2.258  -1.665   2.438  0.00  0.00    +0.024 A 
ATOM      4  C   UNL     1      -3.043  -2.141   3.476  0.00  0.00    +0.002 A 
ATOM      5  C   UNL     1      -4.192  -2.871   3.248  0.00  0.00    +0.000 A 
ATOM      6  C   UNL     1      -4.618  -3.166   1.958  0.00  0.00    +0.007 A 
ATOM      7  C   UNL     1      -3.842  -2.696   0.920  0.00  0.00    -0.001 A 
ATOM      8  C   UNL     1      -3.991  -2.822  -0.564  0.00  0.00    +0.147 C 
ATOM      9  C   UNL     1      -2.800  -2.070  -1.122  0.00  0.00    +0.240 C 
ATOM     10  O   UNL     1      -2.531  -1.914  -2.295  0.00  0.00    -0.274 OA
ATOM     11  C   UNL     1      -5.264  -2.179  -1.033  0.00  0.00    +0.084 A 
ATOM     12  C   UNL     1      -6.326  -2.952  -1.454  0.00  0.00    +0.142 A 
ATOM     13  C   UNL     1      -7.505  -2.314  -1.892  0.00  0.00    +0.068 A 
ATOM     14  C   UNL     1      -7.578  -0.965  -1.888  0.00  0.00    +0.023 A 
ATOM     15  N   UNL     1      -6.530  -0.210  -1.466  0.00  0.00    -0.308 N 
ATOM     16  C   UNL     1      -5.387  -0.783  -1.045  0.00  0.00    +0.260 A 
ATOM     17  O   UNL     1      -4.456  -0.086  -0.673  0.00  0.00    -0.267 OA
ATOM     18  C   UNL     1      -8.840  -0.288  -2.358  0.00  0.00    +0.064 C 
ATOM     19  O   UNL     1      -6.251  -4.300  -1.450  0.00  0.00    -0.441 OA
ATOM     20  C   UNL     1      -5.054  -4.910  -1.400  0.00  0.00    +0.199 C 
ATOM     21  C   UNL     1      -3.938  -4.262  -0.988  0.00  0.00    +0.110 C 
ENDROOT
BRANCH  20  22
ATOM     22  N   UNL     1      -4.960  -6.226  -1.777  0.00  0.00    -0.328 N 
ATOM     23  H   UNL     1      -5.750  -6.703  -2.075  0.00  0.00    +0.145 HD
ATOM     24  H   UNL     1      -4.103  -6.679  -1.746  0.00  0.00    +0.145 HD
ENDBRANCH  20  22
BRANCH  21  25
ATOM     25  C   UNL     1      -2.688  -4.961  -0.956  0.00  0.00    +0.102 C 
ATOM     26  N   UNL     1      -1.697  -5.515  -0.930  0.00  0.00    -0.191 NA
ENDBRANCH  21  25
BRANCH   1  27
ATOM     27  C   UNL     1      -0.859  -0.830  -0.190  0.00  0.00    +0.114 C 
BRANCH  27  28
ATOM     28  C   UNL     1      -1.200   0.661  -0.249  0.00  0.00    +0.019 C 
BRANCH  28  30
ATOM     29  C   UNL     1      -0.252   2.965  -0.434  0.00  0.00    +0.004 C 
ATOM     30  C   UNL     1       0.090   1.474  -0.375  0.00  0.00    -0.002 C 
ENDBRANCH  28  30
ENDBRANCH  27  28
ENDBRANCH   1  27
BRANCH  15  31
ATOM     31  C   UNL     1      -6.645   1.250  -1.471  0.00  0.00    +0.160 C 
BRANCH  31  32
ATOM     32  C   UNL     1      -7.080   1.723  -0.108  0.00  0.00    -0.028 A 
ATOM     33  C   UNL     1      -8.418   1.962   0.147  0.00  0.00    +0.005 A 
ATOM     34  C   UNL     1      -8.817   2.396   1.397  0.00  0.00    +0.000 A 
ATOM     35  C   UNL     1      -7.879   2.591   2.393  0.00  0.00    +0.000 A 
ATOM     36  C   UNL     1      -6.541   2.352   2.139  0.00  0.00    +0.000 A 
ATOM     37  C   UNL     1      -6.143   1.913   0.890  0.00  0.00    +0.005 A 
ENDBRANCH  31  32
ENDBRANCH  15  31
TORSDOF 7
