REMARK  Name = ZINC01993080
REMARK  7 active torsions:
REMARK  status: ('A' for Active; 'I' for Inactive)
REMARK    1  A    between atoms: C_1  and  C_2
REMARK    2  A    between atoms: C_2  and  O_3
REMARK    3  A    between atoms: O_3  and  C_4
REMARK    4  A    between atoms: N_11  and  C_12
REMARK    5  A    between atoms: C_21  and  C_23
REMARK    6  A    between atoms: C_26  and  O_29
REMARK    7  A    between atoms: O_29  and  C_30
REMARK                            x       y       z     vdW  Elec       q    Type
REMARK                         _______ _______ _______ _____ _____    ______ ____
ROOT
ATOM      1  C   UNL     1       1.331   6.261  -0.004  0.00  0.00    +0.121 A 
ATOM      2  C   UNL     1       2.500   5.508  -0.014  0.00  0.00    +0.049 A 
ATOM      3  C   UNL     1       2.448   4.130  -0.008  0.00  0.00    +0.050 A 
ATOM      4  C   UNL     1       1.220   3.482   0.009  0.00  0.00    +0.138 A 
ATOM      5  C   UNL     1       0.040   4.239   0.020  0.00  0.00    +0.044 A 
ATOM      6  C   UNL     1       0.099   5.630   0.013  0.00  0.00    +0.059 A 
ATOM      7  C   UNL     1      -1.255   3.526   0.038  0.00  0.00    +0.054 A 
ATOM      8  N   UNL     1      -2.405   4.184   0.048  0.00  0.00    -0.354 N 
ATOM      9  C   UNL     1      -1.218   2.107   0.037  0.00  0.00    +0.073 A 
ATOM     10  C   UNL     1      -0.018   1.470   0.031  0.00  0.00    +0.138 A 
ATOM     11  O   UNL     1       1.152   2.132   0.016  0.00  0.00    -0.455 OA
ATOM     12  H   UNL     1      -2.409   5.281   0.132  0.00  0.00    +0.166 HD
ENDROOT
BRANCH   8  13
ATOM     13  C   UNL     1      -3.582   3.503  -0.047  0.00  0.00    +0.042 A 
ATOM     14  C   UNL     1      -4.098   3.163  -1.302  0.00  0.00    +0.045 A 
ATOM     15  C   UNL     1      -5.287   2.468  -1.390  0.00  0.00    +0.044 A 
ATOM     16  C   UNL     1      -5.976   2.118  -0.240  0.00  0.00    +0.040 A 
ATOM     17  C   UNL     1      -5.473   2.456   1.006  0.00  0.00    +0.044 A 
ATOM     18  C   UNL     1      -4.282   3.146   1.109  0.00  0.00    +0.045 A 
ATOM     19 CL   UNL     1      -6.344   2.012   2.440  0.00  0.00    -0.083 Cl
ATOM     20 CL   UNL     1      -5.926   2.038  -2.946  0.00  0.00    -0.083 Cl
ENDBRANCH   8  13
BRANCH  10  21
ATOM     21  C   UNL     1       0.001  -0.005   0.037  0.00  0.00    +0.018 A 
ATOM     22  C   UNL     1      -1.198  -0.722   0.059  0.00  0.00    +0.015 A 
ATOM     23  C   UNL     1      -1.175  -2.099   0.060  0.00  0.00    +0.046 A 
ATOM     24  C   UNL     1       0.038  -2.776   0.049  0.00  0.00    +0.120 A 
ATOM     25  C   UNL     1       1.233  -2.067   0.032  0.00  0.00    +0.046 A 
ATOM     26  C   UNL     1       1.220  -0.690   0.026  0.00  0.00    +0.015 A 
BRANCH  24  27
ATOM     27  O   UNL     1       0.057  -4.133   0.055  0.00  0.00    -0.495 OA
ATOM     28  C   UNL     1      -1.208  -4.799   0.073  0.00  0.00    +0.277 C 
ENDBRANCH  24  27
ENDBRANCH  10  21
BRANCH   1  29
ATOM     29  O   UNL     1       1.397   7.619  -0.010  0.00  0.00    -0.492 OA
BRANCH  29  31
ATOM     30  C   UNL     1       2.575   9.729  -0.033  0.00  0.00    +0.048 C 
ATOM     31  C   UNL     1       2.701   8.204  -0.028  0.00  0.00    +0.225 C 
ENDBRANCH  29  31
ENDBRANCH   1  29
TORSDOF 5
