REMARK  Name = ZINC00906243
REMARK  11 active torsions:
REMARK  status: ('A' for Active; 'I' for Inactive)
REMARK    1  A    between atoms: C_1  and  O_2
REMARK    2  A    between atoms: O_2  and  C_3
REMARK    3  A    between atoms: C_6  and  C_10
REMARK    4  A    between atoms: C_8  and  O_9
REMARK    5  A    between atoms: C_10  and  C_12
REMARK    6  A    between atoms: C_10  and  N_21
REMARK    7  A    between atoms: N_14  and  C_15
REMARK    8  A    between atoms: N_21  and  C_22
REMARK    9  A    between atoms: C_22  and  C_23
REMARK   10  A    between atoms: C_28  and  C_30
REMARK   11  A    between atoms: C_30  and  N_31
REMARK                            x       y       z     vdW  Elec       q    Type
REMARK                         _______ _______ _______ _____ _____    ______ ____
ROOT
ATOM      1  C   UNL     1      -4.932  -2.381  -0.474  0.00  0.00    +0.193 C 
ENDROOT
BRANCH   1   5
ATOM      2  C   UNL     1      -2.521   0.410  -2.639  0.00  0.00    +0.161 A 
ATOM      3  C   UNL     1      -3.854   0.693  -2.384  0.00  0.00    +0.050 A 
ATOM      4  C   UNL     1      -4.630  -0.211  -1.684  0.00  0.00    +0.010 A 
ATOM      5  C   UNL     1      -4.081  -1.399  -1.236  0.00  0.00    -0.015 A 
ATOM      6  C   UNL     1      -2.752  -1.687  -1.487  0.00  0.00    +0.055 A 
ATOM      7  C   UNL     1      -1.970  -0.787  -2.193  0.00  0.00    +0.159 A 
BRANCH   2   9
ATOM      8  C   UNL     1      -2.389   2.507  -3.753  0.00  0.00    +0.277 C 
ATOM      9  O   UNL     1      -1.756   1.299  -3.327  0.00  0.00    -0.491 OA
ENDBRANCH   2   9
BRANCH   7  10
ATOM     10  O   UNL     1      -0.664  -1.072  -2.446  0.00  0.00    -0.503 OA
ATOM     11  H   UNL     1      -0.055  -0.765  -1.760  0.00  0.00    +0.292 HD
ENDBRANCH   7  10
ENDBRANCH   1   5
BRANCH   1  12
ATOM     12  C   UNL     1      -4.962  -1.994   0.983  0.00  0.00    +0.238 C 
ATOM     13  O   UNL     1      -5.972  -1.528   1.466  0.00  0.00    -0.273 OA
ATOM     14  N   UNL     1      -3.866  -2.167   1.748  0.00  0.00    -0.311 N 
ATOM     15  H   UNL     1      -3.059  -2.540   1.362  0.00  0.00    +0.149 HD
BRANCH  14  16
ATOM     16  C   UNL     1      -3.896  -1.792   3.164  0.00  0.00    +0.073 C 
ATOM     17  C   UNL     1      -3.578  -0.301   3.303  0.00  0.00    +0.022 C 
ATOM     18  C   UNL     1      -3.608   0.091   4.782  0.00  0.00    +0.002 C 
ATOM     19  C   UNL     1      -2.566  -0.726   5.547  0.00  0.00    +0.000 C 
ATOM     20  C   UNL     1      -2.883  -2.217   5.408  0.00  0.00    +0.002 C 
ATOM     21  C   UNL     1      -2.853  -2.609   3.930  0.00  0.00    +0.022 C 
ENDBRANCH  14  16
ENDBRANCH   1  12
BRANCH   1  22
ATOM     22  N   UNL     1      -6.295  -2.366  -1.011  0.00  0.00    -0.280 N 
ATOM     23  C   UNL     1      -6.538  -2.847  -2.246  0.00  0.00    +0.238 C 
ATOM     24  O   UNL     1      -5.628  -3.292  -2.913  0.00  0.00    -0.274 OA
BRANCH  22  25
ATOM     25  C   UNL     1      -7.394  -1.829  -0.205  0.00  0.00    +0.151 C 
BRANCH  25  26
ATOM     26  C   UNL     1      -7.276  -0.328  -0.131  0.00  0.00    +0.007 A 
ATOM     27  C   UNL     1      -7.696   0.606  -1.019  0.00  0.00    +0.013 A 
ATOM     28  C   UNL     1      -7.478   1.942  -0.739  0.00  0.00    +0.008 A 
ATOM     29  C   UNL     1      -6.851   2.279   0.414  0.00  0.00    +0.045 A 
ATOM     30  S   UNL     1      -6.553   0.681   1.152  0.00  0.00    -0.100 S 
ENDBRANCH  25  26
ENDBRANCH  22  25
BRANCH  23  31
ATOM     31  C   UNL     1      -7.940  -2.832  -2.799  0.00  0.00    +0.241 C 
BRANCH  31  32
ATOM     32  N   UNL     1      -7.939  -3.404  -4.147  0.00  0.00    -0.235 N 
ATOM     33  C   UNL     1      -7.755  -2.726  -5.329  0.00  0.00    +0.090 A 
ATOM     34  C   UNL     1      -7.527  -1.392  -5.652  0.00  0.00    +0.029 A 
ATOM     35  C   UNL     1      -7.384  -1.026  -6.961  0.00  0.00    +0.002 A 
ATOM     36  C   UNL     1      -7.465  -1.973  -7.973  0.00  0.00    +0.002 A 
ATOM     37  C   UNL     1      -7.688  -3.287  -7.683  0.00  0.00    +0.032 A 
ATOM     38  C   UNL     1      -7.838  -3.690  -6.349  0.00  0.00    +0.113 A 
ATOM     39  N   UNL     1      -8.062  -4.884  -5.766  0.00  0.00    -0.129 NA
ATOM     40  N   UNL     1      -8.120  -4.753  -4.487  0.00  0.00    -0.064 NA
ENDBRANCH  31  32
ENDBRANCH  23  31
ENDBRANCH   1  22
TORSDOF 10
