REMARK  Name = ZINC04293711
REMARK  15 active torsions:
REMARK  status: ('A' for Active; 'I' for Inactive)
REMARK    1  A    between atoms: C_2  and  C_3
REMARK    2  A    between atoms: C_3  and  O_4
REMARK    3  A    between atoms: O_4  and  C_5
REMARK    4  A    between atoms: N_7  and  C_8
REMARK    5  A    between atoms: C_10  and  O_39
REMARK    6  A    between atoms: C_12  and  O_22
REMARK    7  A    between atoms: C_14  and  C_20
REMARK    8  A    between atoms: C_17  and  O_19
REMARK    9  A    between atoms: C_20  and  O_21
REMARK   10  A    between atoms: O_22  and  C_23
REMARK   11  A    between atoms: C_25  and  O_38
REMARK   12  A    between atoms: C_27  and  O_37
REMARK   13  A    between atoms: C_29  and  O_36
REMARK   14  A    between atoms: C_31  and  C_34
REMARK   15  A    between atoms: C_34  and  O_35
REMARK                            x       y       z     vdW  Elec       q    Type
REMARK                         _______ _______ _______ _____ _____    ______ ____
ROOT
ATOM      1  C   UNL     1       3.743   7.721  -1.911  0.00  0.00    +0.163 C 
ATOM      2  C   UNL     1       2.310   7.181  -1.959  0.00  0.00    +0.171 C 
ATOM      3  C   UNL     1       2.289   5.768  -1.369  0.00  0.00    +0.183 C 
ATOM      4  C   UNL     1       2.846   5.809   0.057  0.00  0.00    +0.178 C 
ATOM      5  O   UNL     1       4.169   6.351   0.034  0.00  0.00    -0.341 OA
ATOM      6  C   UNL     1       4.244   7.688  -0.465  0.00  0.00    +0.271 C 
ENDROOT
BRANCH   1   9
ATOM      7  C   UNL     1       5.739   7.402  -3.271  0.00  0.00    +0.401 C 
ATOM      8  O   UNL     1       6.040   8.558  -3.049  0.00  0.00    -0.226 OA
ATOM      9  N   UNL     1       4.609   6.887  -2.748  0.00  0.00    -0.271 N 
ATOM     10  H   UNL     1       4.368   5.964  -2.926  0.00  0.00    +0.153 HD
BRANCH   7  11
ATOM     11  O   UNL     1       6.535   6.635  -4.041  0.00  0.00    -0.446 OA
BRANCH  11  12
ATOM     12  C   UNL     1       7.736   7.256  -4.571  0.00  0.00    +0.261 C 
BRANCH  12  14
ATOM     13  C   UNL     1       8.979   6.602  -6.568  0.00  0.00    +0.007 C 
ATOM     14  C   UNL     1       8.495   6.254  -5.401  0.00  0.00    +0.006 C 
ENDBRANCH  12  14
ENDBRANCH  11  12
ENDBRANCH   7  11
ENDBRANCH   1   9
BRANCH   6  15
ATOM     15  O   UNL     1       5.600   8.138  -0.420  0.00  0.00    -0.365 OA
ATOM     16  H   UNL     1       5.983   8.143   0.468  0.00  0.00    +0.213 HD
ENDBRANCH   6  15
BRANCH   2  17
ATOM     17  O   UNL     1       1.453   8.031  -1.195  0.00  0.00    -0.387 OA
ATOM     18  H   UNL     1       1.418   8.944  -1.514  0.00  0.00    +0.210 HD
ENDBRANCH   2  17
BRANCH   4  19
ATOM     19  C   UNL     1       2.885   4.391   0.630  0.00  0.00    +0.190 C 
BRANCH  19  20
ATOM     20  O   UNL     1       3.296   4.441   1.998  0.00  0.00    -0.392 OA
ATOM     21  H   UNL     1       3.343   3.576   2.427  0.00  0.00    +0.210 HD
ENDBRANCH  19  20
ENDBRANCH   4  19
BRANCH   3  22
ATOM     22  O   UNL     1       0.945   5.282  -1.342  0.00  0.00    -0.340 OA
BRANCH  22  23
ATOM     23  C   UNL     1       0.543   4.619  -2.542  0.00  0.00    +0.282 C 
ATOM     24  C   UNL     1      -0.968   4.376  -2.509  0.00  0.00    +0.201 C 
ATOM     25  C   UNL     1      -1.383   3.611  -3.770  0.00  0.00    +0.179 C 
ATOM     26  C   UNL     1      -0.585   2.306  -3.847  0.00  0.00    +0.177 C 
ATOM     27  C   UNL     1       0.911   2.629  -3.829  0.00  0.00    +0.178 C 
ATOM     28  O   UNL     1       1.223   3.366  -2.645  0.00  0.00    -0.341 OA
BRANCH  26  29
ATOM     29  O   UNL     1      -0.910   1.619  -5.057  0.00  0.00    -0.386 OA
ATOM     30  H   UNL     1      -1.845   1.382  -5.137  0.00  0.00    +0.210 HD
ENDBRANCH  26  29
BRANCH  25  31
ATOM     31  O   UNL     1      -2.779   3.316  -3.713  0.00  0.00    -0.386 OA
ATOM     32  H   UNL     1      -3.345   4.098  -3.662  0.00  0.00    +0.210 HD
ENDBRANCH  25  31
BRANCH  24  33
ATOM     33  O   UNL     1      -1.303   3.606  -1.352  0.00  0.00    -0.384 OA
ATOM     34  H   UNL     1      -1.064   4.028  -0.516  0.00  0.00    +0.210 HD
ENDBRANCH  24  33
BRANCH  27  35
ATOM     35  C   UNL     1       1.714   1.327  -3.845  0.00  0.00    +0.190 C 
BRANCH  35  36
ATOM     36  O   UNL     1       3.108   1.628  -3.945  0.00  0.00    -0.392 OA
ATOM     37  H   UNL     1       3.679   0.847  -3.961  0.00  0.00    +0.210 HD
ENDBRANCH  35  36
ENDBRANCH  27  35
ENDBRANCH  22  23
ENDBRANCH   3  22
TORSDOF 15
