REMARK  Name = ZINC63375223
REMARK  7 active torsions:
REMARK  status: ('A' for Active; 'I' for Inactive)
REMARK    1  A    between atoms: C_1  and  C_2
REMARK    2  A    between atoms: C_2  and  C_3
REMARK    3  A    between atoms: C_3  and  C_5
REMARK    4  A    between atoms: C_3  and  N_6
REMARK    5  A    between atoms: C_7  and  C_9
REMARK    6  A    between atoms: C_14  and  N_15
REMARK    7  A    between atoms: C_31  and  C_36
REMARK                            x       y       z     vdW  Elec       q    Type
REMARK                         _______ _______ _______ _____ _____    ______ ____
ROOT
ATOM      1  N   UNL     1       1.911   0.280   6.149  0.00  0.00    -0.192 N 
ATOM      2  C   UNL     1       2.842   1.242   5.982  0.00  0.00    +0.248 C 
ATOM      3  O   UNL     1       2.650   2.408   5.712  0.00  0.00    -0.273 OA
ATOM      4  C   UNL     1       4.177   0.564   6.204  0.00  0.00    +0.169 C 
ATOM      5  C   UNL     1       5.047   0.697   4.942  0.00  0.00    +0.065 C 
ATOM      6  C   UNL     1       6.029  -0.450   4.975  0.00  0.00    -0.034 C 
ATOM      7  C   UNL     1       6.902  -0.870   4.066  0.00  0.00    -0.001 A 
ATOM      8  C   UNL     1       7.287  -0.325   2.755  0.00  0.00    +0.010 A 
ATOM      9  C   UNL     1       8.221  -1.030   2.063  0.00  0.00    +0.001 A 
ATOM     10  C   UNL     1       8.802  -2.210   2.540  0.00  0.00    +0.002 A 
ATOM     11  C   UNL     1       8.511  -2.779   3.736  0.00  0.00    +0.026 A 
ATOM     12  C   UNL     1       7.547  -2.125   4.557  0.00  0.00    +0.043 A 
ATOM     13  N   UNL     1       7.099  -2.434   5.738  0.00  0.00    -0.375 N 
ATOM     14  C   UNL     1       6.161  -1.394   6.164  0.00  0.00    +0.131 C 
ATOM     15  C   UNL     1       4.766  -1.972   6.438  0.00  0.00    +0.135 C 
ATOM     16  N   UNL     1       3.808  -0.856   6.383  0.00  0.00    -0.264 N 
ATOM     17  C   UNL     1       2.471  -0.909   6.411  0.00  0.00    +0.317 C 
ATOM     18  O   UNL     1       1.837  -1.920   6.644  0.00  0.00    -0.252 OA
ATOM     19  H   UNL     1       7.345  -3.221   6.250  0.00  0.00    +0.160 HD
ENDROOT
BRANCH   1  25
ATOM     20  C   UNL     1      -0.126   0.362   4.835  0.00  0.00    +0.059 A 
ATOM     21  C   UNL     1      -1.504   0.578   4.764  0.00  0.00    +0.015 A 
ATOM     22  C   UNL     1      -2.204   0.926   5.899  0.00  0.00    +0.001 A 
ATOM     23  C   UNL     1      -1.548   1.064   7.111  0.00  0.00    +0.002 A 
ATOM     24  C   UNL     1      -0.185   0.855   7.196  0.00  0.00    +0.025 A 
ATOM     25  C   UNL     1       0.535   0.498   6.064  0.00  0.00    +0.058 A 
BRANCH  20  27
ATOM     26  N   UNL     1      -0.008  -0.140   2.444  0.00  0.00    -0.309 N 
ATOM     27  C   UNL     1       0.630  -0.011   3.624  0.00  0.00    +0.246 C 
ATOM     28  O   UNL     1       1.829  -0.202   3.690  0.00  0.00    -0.270 OA
ATOM     29  H   UNL     1      -0.965   0.013   2.391  0.00  0.00    +0.149 HD
BRANCH  26  30
ATOM     30  C   UNL     1       0.742  -0.511   1.242  0.00  0.00    +0.070 C 
ATOM     31  C   UNL     1       0.872  -2.034   1.171  0.00  0.00    +0.028 C 
BRANCH  30  33
ATOM     32  C   UNL     1      -0.019   1.526   0.010  0.00  0.00    +0.005 C 
ATOM     33  C   UNL     1       0.002  -0.004   0.002  0.00  0.00    +0.018 C 
ENDBRANCH  30  33
ENDBRANCH  26  30
ENDBRANCH  20  27
ENDBRANCH   1  25
BRANCH  15  34
ATOM     34  C   UNL     1       4.430  -3.014   5.403  0.00  0.00    -0.025 A 
ATOM     35  C   UNL     1       3.986  -2.627   4.152  0.00  0.00    +0.005 A 
ATOM     36  C   UNL     1       3.678  -3.583   3.202  0.00  0.00    +0.000 A 
ATOM     37  C   UNL     1       3.814  -4.925   3.503  0.00  0.00    +0.000 A 
ATOM     38  C   UNL     1       4.259  -5.312   4.753  0.00  0.00    +0.000 A 
ATOM     39  C   UNL     1       4.572  -4.356   5.702  0.00  0.00    +0.005 A 
ENDBRANCH  15  34
TORSDOF 5
