REMARK  Name = ZINC22030224
REMARK  7 active torsions:
REMARK  status: ('A' for Active; 'I' for Inactive)
REMARK    1  A    between atoms: C_4  and  C_7
REMARK    2  A    between atoms: C_7  and  C_8
REMARK    3  A    between atoms: C_7  and  N_14
REMARK    4  A    between atoms: N_17  and  C_20
REMARK    5  A    between atoms: C_20  and  C_21
REMARK    6  A    between atoms: N_23  and  C_24
REMARK    7  A    between atoms: C_25  and  C_32
REMARK                            x       y       z     vdW  Elec       q    Type
REMARK                         _______ _______ _______ _____ _____    ______ ____
ROOT
ATOM      1  N   UNL     1      -0.563   1.681  -1.162  0.00  0.00    -0.295 NA
ATOM      2  C   UNL     1       0.119   1.092  -0.001  0.00  0.00    +0.067 C 
ATOM      3  C   UNL     1      -0.437   1.712   1.283  0.00  0.00    -0.063 C 
ATOM      4  N   UNL     1      -0.244   3.168   1.245  0.00  0.00    +0.387 N 
ATOM      5  C   UNL     1      -0.925   3.757   0.084  0.00  0.00    -0.063 C 
ATOM      6  C   UNL     1      -0.369   3.137  -1.200  0.00  0.00    +0.067 C 
ATOM      7  H   UNL     1       0.834   3.365   1.142  0.00  0.00    -0.081 HD
ENDROOT
BRANCH   1   8
ATOM      8  C   UNL     1      -0.109   1.057  -2.412  0.00  0.00    +0.117 C 
BRANCH   8  12
ATOM      9  C   UNL     1      -0.785  -3.157  -2.226  0.00  0.00    +0.000 A 
ATOM     10  C   UNL     1       0.412  -2.670  -2.716  0.00  0.00    +0.000 A 
ATOM     11  C   UNL     1       0.631  -1.307  -2.776  0.00  0.00    +0.005 A 
ATOM     12  C   UNL     1      -0.347  -0.430  -2.346  0.00  0.00    -0.026 A 
ATOM     13  C   UNL     1      -1.542  -0.917  -1.851  0.00  0.00    +0.005 A 
ATOM     14  C   UNL     1      -1.763  -2.280  -1.795  0.00  0.00    +0.000 A 
ENDBRANCH   8  12
BRANCH   8  15
ATOM     15  C   UNL     1      -0.876   1.638  -3.571  0.00  0.00    -0.026 A 
ATOM     16  C   UNL     1      -2.244   1.810  -3.478  0.00  0.00    +0.005 A 
ATOM     17  C   UNL     1      -2.947   2.348  -4.540  0.00  0.00    +0.000 A 
ATOM     18  C   UNL     1      -2.284   2.704  -5.699  0.00  0.00    +0.000 A 
ATOM     19  C   UNL     1      -0.916   2.527  -5.794  0.00  0.00    +0.000 A 
ATOM     20  C   UNL     1      -0.212   1.994  -4.730  0.00  0.00    +0.005 A 
ENDBRANCH   8  15
ENDBRANCH   1   8
BRANCH   4  21
ATOM     21  C   UNL     1      -0.698   3.792   2.495  0.00  0.00    +0.019 C 
BRANCH  21  22
ATOM     22  C   UNL     1       0.187   3.345   3.630  0.00  0.00    +0.201 C 
ATOM     23  O   UNL     1       1.106   2.582   3.418  0.00  0.00    -0.278 OA
ATOM     24  N   UNL     1      -0.042   3.794   4.880  0.00  0.00    -0.281 N 
ATOM     25  H   UNL     1      -0.875   4.486   5.072  0.00  0.00    +0.155 HD
BRANCH  24  26
ATOM     26  C   UNL     1       0.773   3.382   5.925  0.00  0.00    +0.090 A 
ATOM     27  C   UNL     1       0.701   3.734   7.261  0.00  0.00    +0.084 A 
ATOM     28  C   UNL     1       1.687   3.152   8.170  0.00  0.00    -0.018 A 
ATOM     29  C   UNL     1       2.581   2.329   7.591  0.00  0.00    -0.004 A 
ATOM     30  S   UNL     1       2.131   2.311   5.873  0.00  0.00    -0.077 S 
ATOM     31  C   UNL     1       3.562   1.772   8.586  0.00  0.00    +0.043 C 
ATOM     32  C   UNL     1       2.904   2.019   9.962  0.00  0.00    +0.010 C 
ATOM     33  C   UNL     1       2.000   3.232   9.665  0.00  0.00    +0.037 C 
BRANCH  27  34
ATOM     34  C   UNL     1      -0.307   4.633   7.738  0.00  0.00    +0.102 C 
ATOM     35  N   UNL     1      -1.106   5.346   8.117  0.00  0.00    -0.191 NA
ENDBRANCH  27  34
ENDBRANCH  24  26
ENDBRANCH  21  22
ENDBRANCH   4  21
TORSDOF 7
