REMARK  Name = ZINC40322128
REMARK  10 active torsions:
REMARK  status: ('A' for Active; 'I' for Inactive)
REMARK    1  A    between atoms: C_1  and  C_2
REMARK    2  A    between atoms: C_2  and  C_3
REMARK    3  A    between atoms: C_2  and  C_4
REMARK    4  A    between atoms: C_7  and  C_10
REMARK    5  A    between atoms: C_10  and  C_12
REMARK    6  A    between atoms: C_10  and  N_31
REMARK    7  A    between atoms: C_12  and  N_13
REMARK    8  A    between atoms: C_14  and  C_16
REMARK    9  A    between atoms: C_19  and  S_21
REMARK   10  A    between atoms: S_21  and  C_24
REMARK                            x       y       z     vdW  Elec       q    Type
REMARK                         _______ _______ _______ _____ _____    ______ ____
ROOT
ATOM      1  N   UNL     1      -4.976  -3.430   1.992  0.00  0.00    -0.310 N 
ATOM      2  C   UNL     1      -4.876  -4.587   2.676  0.00  0.00    +0.279 C 
ATOM      3  O   UNL     1      -5.247  -5.628   2.167  0.00  0.00    -0.267 OA
ATOM      4  H   UNL     1      -4.680  -2.600   2.397  0.00  0.00    +0.149 HD
ENDROOT
BRANCH   2   5
ATOM      5  C   UNL     1      -4.319  -4.591   4.032  0.00  0.00    +0.192 A 
ATOM      6  C   UNL     1      -4.156  -5.688   4.829  0.00  0.00    +0.056 A 
ATOM      7  C   UNL     1      -3.592  -5.233   6.032  0.00  0.00    +0.070 A 
ATOM      8  C   UNL     1      -3.437  -3.895   5.917  0.00  0.00    +0.246 A 
ATOM      9  O   UNL     1      -3.872  -3.513   4.709  0.00  0.00    -0.433 OA
BRANCH   8  10
ATOM     10  S   UNL     1      -2.769  -2.830   7.151  0.00  0.00    +0.058 S 
ATOM     11  O   UNL     1      -3.283  -1.531   6.888  0.00  0.00    -0.161 OA
ATOM     12  O   UNL     1      -2.957  -3.485   8.398  0.00  0.00    -0.161 OA
BRANCH  10  13
ATOM     13  C   UNL     1      -1.030  -2.748   6.882  0.00  0.00    +0.097 A 
ATOM     14  C   UNL     1      -0.192  -3.658   7.498  0.00  0.00    +0.029 A 
ATOM     15  C   UNL     1       1.173  -3.594   7.288  0.00  0.00    +0.022 A 
ATOM     16  C   UNL     1       1.700  -2.619   6.460  0.00  0.00    +0.041 A 
ATOM     17  C   UNL     1       0.861  -1.708   5.844  0.00  0.00    +0.022 A 
ATOM     18  C   UNL     1      -0.504  -1.776   6.051  0.00  0.00    +0.029 A 
ATOM     19 CL   UNL     1       3.414  -2.537   6.196  0.00  0.00    -0.084 Cl
ENDBRANCH  10  13
ENDBRANCH   8  10
ENDBRANCH   2   5
BRANCH   1  20
ATOM     20  C   UNL     1      -5.533  -3.425   0.637  0.00  0.00    +0.094 C 
BRANCH  20  21
ATOM     21  C   UNL     1      -5.412  -2.022   0.040  0.00  0.00    -0.020 C 
BRANCH  21  25
ATOM     22  C   UNL     1      -1.284  -1.040  -0.457  0.00  0.00    -0.045 A 
ATOM     23  C   UNL     1      -1.984  -0.553   0.631  0.00  0.00    +0.004 A 
ATOM     24  C   UNL     1      -3.320  -0.871   0.792  0.00  0.00    +0.002 A 
ATOM     25  C   UNL     1      -3.956  -1.675  -0.136  0.00  0.00    -0.059 A 
ATOM     26  C   UNL     1      -3.256  -2.161  -1.224  0.00  0.00    +0.002 A 
ATOM     27  C   UNL     1      -1.921  -1.840  -1.387  0.00  0.00    +0.004 A 
BRANCH  22  29
ATOM     28  C   UNL     1       0.327   0.824  -0.736  0.00  0.00    +0.012 C 
ATOM     29  C   UNL     1       0.172  -0.694  -0.632  0.00  0.00    +0.013 C 
ATOM     30  C   UNL     1       0.966  -1.206   0.572  0.00  0.00    +0.012 C 
ENDBRANCH  22  29
ENDBRANCH  21  25
BRANCH  21  31
ATOM     31  N   UNL     1      -6.085  -1.985  -1.265  0.00  0.00    +0.385 N 
ATOM     32  C   UNL     1      -7.537  -2.249  -1.100  0.00  0.00    -0.078 C 
ATOM     33  C   UNL     1      -8.156  -1.636  -2.381  0.00  0.00    -0.020 C 
ATOM     34  C   UNL     1      -7.302  -0.367  -2.606  0.00  0.00    -0.020 C 
ATOM     35  C   UNL     1      -5.985  -0.631  -1.852  0.00  0.00    -0.078 C 
ATOM     36  H   UNL     1      -5.675  -2.665  -1.888  0.00  0.00    -0.081 HD
ENDBRANCH  21  31
ENDBRANCH  20  21
ENDBRANCH   1  20
TORSDOF 8
