REMARK  Name = ZINC43746936
REMARK  14 active torsions:
REMARK  status: ('A' for Active; 'I' for Inactive)
REMARK    1  A    between atoms: C_1  and  C_2
REMARK    2  A    between atoms: C_2  and  C_4
REMARK    3  A    between atoms: C_4  and  O_41
REMARK    4  A    between atoms: C_9  and  C_40
REMARK    5  A    between atoms: N_21  and  O_22
REMARK    6  A    between atoms: O_22  and  C_23
REMARK    7  A    between atoms: C_23  and  C_24
REMARK    8  A    between atoms: N_26  and  CA_27
REMARK    9  A    between atoms: CA_27  and  CB_29
REMARK   10  A    between atoms: CA_27  and  C_33
REMARK   11  A    between atoms: CB_29  and  CG_30
REMARK   12  A    between atoms: CG_30  and  SD_31
REMARK   13  A    between atoms: SD_31  and  CE_32
REMARK   14  A    between atoms: C_38  and  C_39
REMARK                            x       y       z     vdW  Elec       q    Type
REMARK                         _______ _______ _______ _____ _____    ______ ____
ROOT
ATOM      1  C   UNK A   0      -0.208  -0.905  -1.406  0.00  0.00    +0.129 C 
ATOM      2  C   UNK A   0      -1.533  -1.559  -1.872  0.00  0.00    +0.043 C 
ATOM      3  C   UNK A   0      -1.235  -3.073  -2.045  0.00  0.00    +0.008 C 
ATOM      4  C   UNK A   0       0.295  -3.088  -2.241  0.00  0.00    +0.002 C 
ATOM      5  C   UNK A   0       0.741  -2.087  -1.152  0.00  0.00    +0.007 C 
ATOM      6  C   UNK A   0       2.212  -1.775  -1.303  0.00  0.00    +0.010 C 
ATOM      7  C   UNK A   0       2.913  -2.922  -2.047  0.00  0.00    +0.005 C 
ATOM      8  C   UNK A   0       2.363  -4.265  -1.589  0.00  0.00    +0.002 C 
ATOM      9  C   UNK A   0       0.925  -4.456  -2.007  0.00  0.00    -0.003 C 
ATOM     10  C   UNK A   0       0.763  -5.270  -3.287  0.00  0.00    +0.008 C 
ATOM     11  C   UNK A   0       1.488  -6.607  -3.184  0.00  0.00    +0.031 C 
ATOM     12  C   UNK A   0       2.953  -6.324  -2.921  0.00  0.00    -0.062 C 
ATOM     13  C   UNK A   0       3.850  -6.894  -3.719  0.00  0.00    +0.026 C 
ATOM     14  C   UNK A   0       5.291  -6.689  -3.503  0.00  0.00    +0.080 C 
ATOM     15  N   UNK A   0       6.164  -7.051  -4.392  0.00  0.00    -0.089 NA
ATOM     16  C   UNK A   0       5.723  -6.062  -2.195  0.00  0.00    +0.059 C 
ATOM     17  C   UNK A   0       4.756  -4.928  -1.866  0.00  0.00    +0.017 C 
ATOM     18  C   UNK A   0       3.316  -5.413  -1.798  0.00  0.00    -0.007 C 
ATOM     19  C   UNK A   0       3.218  -6.258  -0.520  0.00  0.00    +0.016 C 
ATOM     20  C   UNK A   0       0.455  -2.621   0.254  0.00  0.00    +0.015 C 
ENDROOT
BRANCH   1  22
ATOM     21  C   UNK A   0       0.568   0.920   0.287  0.00  0.00    +0.089 C 
ATOM     22  C   UNK A   0      -0.424  -0.132  -0.134  0.00  0.00    +0.162 C 
ATOM     23  O   UNK A   0      -1.394  -0.356   0.551  0.00  0.00    -0.295 OA
ENDBRANCH   1  22
BRANCH   1  24
ATOM     24  O   UNK A   0       0.307  -0.057  -2.430  0.00  0.00    -0.381 OA
ATOM     25  H   UNK A   0      -0.267   0.690  -2.647  0.00  0.00    +0.211 HD
ENDBRANCH   1  24
BRANCH  15  26
ATOM     26  O   UNK A   0       7.544  -6.840  -4.156  0.00  0.00    -0.384 OA
BRANCH  26  27
ATOM     27  C   UNK A   0       8.390  -7.286  -5.218  0.00  0.00    +0.358 C 
BRANCH  27  28
ATOM     28  C   UNK A   0       9.829  -7.014  -4.861  0.00  0.00    +0.254 C 
ATOM     29  O   UNK A   0      10.103  -6.490  -3.802  0.00  0.00    -0.272 OA
ATOM     30  N   MET A   1      10.812  -7.354  -5.719  0.00  0.00    -0.299 N 
ATOM     31  H   MET A   1      10.593  -7.773  -6.566  0.00  0.00    +0.150 HD
BRANCH  30  32
ATOM     32  CA  MET A   1      12.210  -7.089  -5.373  0.00  0.00    +0.187 C 
BRANCH  32  33
ATOM     33  C   MET A   1      12.563  -5.675  -5.754  0.00  0.00    +0.376 C 
ATOM     34  O   MET A   1      13.407  -5.065  -5.119  0.00  0.00    -0.244 OA
ATOM     35  OXT MET A   1      12.006  -5.141  -6.697  0.00  0.00    -0.244 OA
ENDBRANCH  32  33
BRANCH  32  36
ATOM     36  CB  MET A   1      13.116  -8.063  -6.130  0.00  0.00    +0.044 C 
BRANCH  36  37
ATOM     37  CG  MET A   1      12.843  -9.490  -5.651  0.00  0.00    +0.071 C 
BRANCH  37  38
ATOM     38  SD  MET A   1      13.917 -10.645  -6.549  0.00  0.00    -0.164 S 
ATOM     39  CE  MET A   1      13.476 -12.270  -5.874  0.00  0.00    +0.084 C 
ENDBRANCH  37  38
ENDBRANCH  36  37
ENDBRANCH  32  36
ENDBRANCH  30  32
ENDBRANCH  27  28
ENDBRANCH  26  27
ENDBRANCH  15  26
TORSDOF 10
