REMARK  Name = ZINC35954286
REMARK  13 active torsions:
REMARK  status: ('A' for Active; 'I' for Inactive)
REMARK    1  A    between atoms: C_1  and  C_2
REMARK    2  A    between atoms: C_2  and  C_3
REMARK    3  A    between atoms: C_3  and  N_4
REMARK    4  A    between atoms: N_4  and  C_5
REMARK    5  A    between atoms: C_5  and  C_6
REMARK    6  A    between atoms: C_7  and  C_27
REMARK    7  A    between atoms: N_9  and  C_20
REMARK    8  A    between atoms: C_10  and  N_11
REMARK    9  A    between atoms: N_14  and  C_17
REMARK   10  A    between atoms: C_17  and  C_18
REMARK   11  A    between atoms: C_17  and  C_19
REMARK   12  A    between atoms: C_27  and  C_28
REMARK   13  A    between atoms: C_29  and  C_31
REMARK                            x       y       z     vdW  Elec       q    Type
REMARK                         _______ _______ _______ _____ _____    ______ ____
ROOT
ATOM      1  C   UNL     1      -2.272  -3.231   1.975  0.00  0.00    +0.033 A 
ATOM      2  C   UNL     1      -3.155  -2.236   2.405  0.00  0.00    +0.070 A 
ATOM      3  N   UNL     1      -4.346  -2.509   1.937  0.00  0.00    -0.169 NA
ATOM      4  N   UNL     1      -4.269  -3.691   1.189  0.00  0.00    -0.218 N 
ATOM      5  C   UNL     1      -2.978  -4.119   1.220  0.00  0.00    +0.130 A 
ENDROOT
BRANCH   5   6
ATOM      6  N   UNL     1      -2.472  -5.256   0.598  0.00  0.00    -0.318 N 
ATOM      7  C   UNL     1      -3.034  -6.586   0.879  0.00  0.00    +0.088 C 
ATOM      8  C   UNL     1      -3.347  -7.273  -0.454  0.00  0.00    -0.059 C 
ATOM      9  N   UNL     1      -2.140  -7.290  -1.290  0.00  0.00    +0.383 N 
ATOM     10  C   UNL     1      -1.751  -5.917  -1.634  0.00  0.00    -0.059 C 
ATOM     11  C   UNL     1      -1.363  -5.162  -0.364  0.00  0.00    +0.088 C 
ATOM     12  H   UNL     1      -1.389  -7.734  -0.784  0.00  0.00    -0.081 HD
BRANCH   9  13
ATOM     13  C   UNL     1      -2.410  -8.044  -2.521  0.00  0.00    -0.075 C 
ATOM     14  C   UNL     1      -1.153  -8.063  -3.393  0.00  0.00    -0.014 C 
ATOM     15  C   UNL     1      -2.805  -9.479  -2.164  0.00  0.00    -0.014 C 
ENDBRANCH   9  13
ENDBRANCH   5   6
BRANCH   4  16
ATOM     16  C   UNL     1      -5.332  -4.318   0.522  0.00  0.00    +0.068 A 
ATOM     17  C   UNL     1      -5.140  -4.846  -0.747  0.00  0.00    +0.030 A 
ATOM     18  C   UNL     1      -6.188  -5.464  -1.402  0.00  0.00    +0.040 A 
ATOM     19  C   UNL     1      -7.428  -5.555  -0.794  0.00  0.00    +0.124 A 
ATOM     20  C   UNL     1      -7.621  -5.028   0.472  0.00  0.00    +0.040 A 
ATOM     21  C   UNL     1      -6.574  -4.416   1.133  0.00  0.00    +0.030 A 
ATOM     22  F   UNL     1      -8.452  -6.160  -1.436  0.00  0.00    -0.205 F 
ENDBRANCH   4  16
BRANCH   2  23
ATOM     23  C   UNL     1      -2.796  -1.051   3.263  0.00  0.00    +0.054 C 
ATOM     24  C   UNL     1      -2.526   0.162   2.370  0.00  0.00    +0.010 C 
ENDBRANCH   2  23
BRANCH   1  25
ATOM     25  C   UNL     1      -0.800  -3.306   2.287  0.00  0.00    +0.148 C 
BRANCH  25  26
ATOM     26  N   UNL     1      -0.581  -4.239   3.394  0.00  0.00    -0.291 N 
ATOM     27  C   UNL     1      -0.495  -3.777   4.658  0.00  0.00    +0.282 C 
ATOM     28  O   UNL     1      -0.667  -2.594   4.886  0.00  0.00    -0.267 OA
BRANCH  27  29
ATOM     29  C   UNL     1      -0.193  -4.700   5.757  0.00  0.00    +0.189 A 
ATOM     30  C   UNL     1      -0.170  -4.385   7.085  0.00  0.00    +0.054 A 
ATOM     31  C   UNL     1       0.162  -5.563   7.773  0.00  0.00    +0.042 A 
ATOM     32  C   UNL     1       0.324  -6.533   6.846  0.00  0.00    +0.196 A 
ATOM     33  O   UNL     1       0.105  -6.010   5.633  0.00  0.00    -0.458 OA
ENDBRANCH  27  29
BRANCH  26  34
ATOM     34  C   UNL     1      -0.457  -5.674   3.129  0.00  0.00    +0.108 C 
BRANCH  34  36
ATOM     35  C   UNL     1       1.153  -7.545   2.743  0.00  0.00    +0.005 C 
ATOM     36  C   UNL     1       1.023  -6.046   3.020  0.00  0.00    +0.016 C 
ENDBRANCH  34  36
ENDBRANCH  26  34
ENDBRANCH  25  26
ENDBRANCH   1  25
TORSDOF 9
