REMARK  Name = ZINC22775891
REMARK  8 active torsions:
REMARK  status: ('A' for Active; 'I' for Inactive)
REMARK    1  A    between atoms: C_1  and  C_2
REMARK    2  A    between atoms: C_2  and  C_4
REMARK    3  A    between atoms: C_2  and  N_19
REMARK    4  A    between atoms: N_6  and  C_7
REMARK    5  A    between atoms: C_8  and  C_17
REMARK    6  A    between atoms: N_22  and  C_25
REMARK    7  A    between atoms: C_25  and  C_26
REMARK    8  A    between atoms: N_28  and  C_29
REMARK                            x       y       z     vdW  Elec       q    Type
REMARK                         _______ _______ _______ _____ _____    ______ ____
ROOT
ATOM      1  C   UNL     1      -2.764   2.905   2.685  0.00  0.00    +0.034 C 
ATOM      2  C   UNL     1      -1.399   3.565   2.482  0.00  0.00    +0.140 C 
ENDROOT
BRANCH   2   3
ATOM      3  N   UNL     1      -0.783   3.048   1.252  0.00  0.00    -0.295 NA
ATOM      4  C   UNL     1      -0.730   1.580   1.267  0.00  0.00    +0.066 C 
ATOM      5  C   UNL     1      -0.013   1.086   0.008  0.00  0.00    -0.063 C 
ATOM      6  N   UNL     1      -0.724   1.573  -1.182  0.00  0.00    +0.387 N 
ATOM      7  C   UNL     1      -0.777   3.042  -1.196  0.00  0.00    -0.063 C 
ATOM      8  C   UNL     1      -1.495   3.536   0.062  0.00  0.00    +0.066 C 
ATOM      9  H   UNL     1      -1.757   1.196  -1.138  0.00  0.00    -0.081 HD
BRANCH   6  10
ATOM     10  C   UNL     1      -0.109   1.057  -2.412  0.00  0.00    +0.019 C 
BRANCH  10  11
ATOM     11  C   UNL     1      -0.998   1.369  -3.588  0.00  0.00    +0.197 C 
ATOM     12  O   UNL     1      -2.041   1.963  -3.418  0.00  0.00    -0.278 OA
ATOM     13  N   UNL     1      -0.633   0.988  -4.828  0.00  0.00    -0.314 N 
ATOM     14  H   UNL     1       0.314   0.449  -4.982  0.00  0.00    +0.149 HD
BRANCH  13  15
ATOM     15  C   UNL     1      -1.497   1.292  -5.971  0.00  0.00    +0.073 C 
ATOM     16  C   UNL     1      -1.719   0.184  -7.003  0.00  0.00    +0.024 C 
ATOM     17  C   UNL     1      -0.838   1.387  -7.349  0.00  0.00    +0.024 C 
ENDBRANCH  13  15
ENDBRANCH  10  11
ENDBRANCH   6  10
ENDBRANCH   2   3
BRANCH   2  18
ATOM     18  C   UNL     1      -0.510   3.252   3.658  0.00  0.00    +0.235 C 
ATOM     19  O   UNL     1       0.534   2.658   3.489  0.00  0.00    -0.274 OA
ATOM     20  N   UNL     1      -0.875   3.634   4.899  0.00  0.00    -0.278 N 
ATOM     21  H   UNL     1      -1.821   4.173   5.052  0.00  0.00    +0.155 HD
BRANCH  20  22
ATOM     22  C   UNL     1      -0.056   3.346   5.982  0.00  0.00    +0.090 A 
ATOM     23  C   UNL     1      -0.257   3.651   7.318  0.00  0.00    +0.084 A 
ATOM     24  C   UNL     1       0.762   3.232   8.270  0.00  0.00    -0.018 A 
ATOM     25  C   UNL     1       1.817   2.586   7.727  0.00  0.00    -0.004 A 
ATOM     26  S   UNL     1       1.461   2.511   5.993  0.00  0.00    -0.077 S 
ATOM     27  C   UNL     1       3.023   2.048   8.432  0.00  0.00    +0.043 C 
ATOM     28  C   UNL     1       2.573   1.225   9.646  0.00  0.00    +0.005 C 
ATOM     29  C   UNL     1       2.466   2.156  10.849  0.00  0.00    +0.001 C 
ATOM     30  C   UNL     1       2.025   3.548  10.399  0.00  0.00    +0.005 C 
ATOM     31  C   UNL     1       0.639   3.490   9.767  0.00  0.00    +0.037 C 
BRANCH  23  32
ATOM     32  C   UNL     1      -1.427   4.355   7.748  0.00  0.00    +0.102 C 
ATOM     33  N   UNL     1      -2.356   4.914   8.090  0.00  0.00    -0.191 NA
ENDBRANCH  23  32
ENDBRANCH  20  22
ENDBRANCH   2  18
TORSDOF 7
