REMARK  Name = ZINC06014864
REMARK  10 active torsions:
REMARK  status: ('A' for Active; 'I' for Inactive)
REMARK    1  A    between atoms: C_1  and  C_2
REMARK    2  A    between atoms: C_2  and  C_3
REMARK    3  A    between atoms: C_2  and  C_4
REMARK    4  A    between atoms: C_2  and  O_5
REMARK    5  A    between atoms: O_5  and  C_6
REMARK    6  A    between atoms: C_15  and  C_27
REMARK    7  A    between atoms: C_17  and  C_23
REMARK    8  A    between atoms: C_17  and  C_25
REMARK    9  A    between atoms: C_18  and  N_22
REMARK   10  A    between atoms: C_19  and  C_20
REMARK                            x       y       z     vdW  Elec       q    Type
REMARK                         _______ _______ _______ _____ _____    ______ ____
ROOT
ATOM      1  C   UNL     1       0.605  -0.330  -3.691  0.00  0.00    +0.404 C 
ATOM      2  O   UNL     1      -0.547  -0.310  -3.305  0.00  0.00    -0.226 OA
ATOM      3  N   UNL     1       1.413  -1.352  -3.348  0.00  0.00    -0.263 N 
ATOM      4  C   UNL     1       2.816  -1.407  -3.799  0.00  0.00    +0.138 C 
ATOM      5  C   UNL     1       3.673  -1.520  -2.563  0.00  0.00    -0.003 C 
ATOM      6  C   UNL     1       3.213  -2.082  -1.463  0.00  0.00    -0.026 C 
ATOM      7  C   UNL     1       1.846  -2.684  -1.328  0.00  0.00    +0.048 C 
ATOM      8  C   UNL     1       0.935  -2.457  -2.511  0.00  0.00    +0.120 C 
ATOM      9  C   UNL     1       1.228  -2.186  -0.020  0.00  0.00    +0.068 C 
ATOM     10  C   UNL     1       2.072  -2.694   1.149  0.00  0.00    +0.188 C 
ATOM     11  C   UNL     1       3.528  -2.401   0.951  0.00  0.00    +0.054 C 
ATOM     12  C   UNL     1       4.083  -2.126  -0.256  0.00  0.00    +0.074 C 
ENDROOT
BRANCH   9  13
ATOM     13  C   UNL     1       1.208  -0.680  -0.013  0.00  0.00    -0.039 A 
ATOM     14  C   UNL     1       0.057  -0.001  -0.368  0.00  0.00    +0.004 A 
ATOM     15  C   UNL     1       0.038   1.381  -0.360  0.00  0.00    +0.002 A 
ATOM     16  C   UNL     1       1.171   2.086   0.002  0.00  0.00    +0.020 A 
ATOM     17  C   UNL     1       2.323   1.408   0.356  0.00  0.00    +0.041 A 
ATOM     18  C   UNL     1       2.341   0.024   0.349  0.00  0.00    +0.024 A 
ATOM     19 CL   UNL     1       3.746   2.292   0.811  0.00  0.00    -0.084 Cl
ENDBRANCH   9  13
BRANCH  11  20
ATOM     20  N   UNL     1       4.344  -2.411   2.048  0.00  0.00    -0.358 N 
ATOM     21  H   UNL     1       5.417  -2.200   1.937  0.00  0.00    +0.142 HD
ATOM     22  H   UNL     1       3.926  -2.631   3.041  0.00  0.00    +0.142 HD
ENDBRANCH  11  20
BRANCH  12  23
ATOM     23  C   UNL     1       5.489  -1.880  -0.368  0.00  0.00    +0.101 C 
ATOM     24  N   UNL     1       6.605  -1.685  -0.457  0.00  0.00    -0.191 NA
ENDBRANCH  12  23
BRANCH  10  25
ATOM     25  C   UNL     1       1.616  -2.043   2.389  0.00  0.00    +0.091 C 
ATOM     26  N   UNL     1       1.264  -1.541   3.345  0.00  0.00    -0.194 NA
ENDBRANCH  10  25
BRANCH  10  27
ATOM     27  C   UNL     1       1.889  -4.149   1.278  0.00  0.00    +0.091 C 
ATOM     28  N   UNL     1       1.747  -5.272   1.377  0.00  0.00    -0.194 NA
ENDBRANCH  10  27
BRANCH   1  29
ATOM     29  O   UNL     1       1.075   0.671  -4.460  0.00  0.00    -0.445 OA
BRANCH  29  31
ATOM     30  C   UNL     1      -0.341   2.406  -3.503  0.00  0.00    +0.055 C 
ATOM     31  C   UNL     1       0.148   1.739  -4.790  0.00  0.00    +0.107 C 
ATOM     32  C   UNL     1       0.856   2.776  -5.664  0.00  0.00    +0.055 C 
ATOM     33  C   UNL     1      -1.047   1.161  -5.551  0.00  0.00    +0.055 C 
ENDBRANCH  29  31
ENDBRANCH   1  29
TORSDOF 7
