REMARK  Name = ZINC09252399
REMARK  4 active torsions:
REMARK  status: ('A' for Active; 'I' for Inactive)
REMARK    1  A    between atoms: C_4  and  N_7
REMARK    2  A    between atoms: C_22  and  C_24
REMARK    3  A    between atoms: C_24  and  C_25
REMARK    4  A    between atoms: N_27  and  C_28
REMARK                            x       y       z     vdW  Elec       q    Type
REMARK                         _______ _______ _______ _____ _____    ______ ____
ROOT
ATOM      1  N   UNL     1       2.932   3.849  -0.718  0.00  0.00    -0.269 N 
ATOM      2  C   UNL     1       3.522   5.059  -0.783  0.00  0.00    +0.307 C 
ATOM      3  O   UNL     1       2.848   6.055  -0.962  0.00  0.00    -0.252 OA
ATOM      4  N   UNL     1       4.859   5.166  -0.648  0.00  0.00    -0.269 N 
ATOM      5  C   UNL     1       5.539   6.475  -0.714  0.00  0.00    +0.099 C 
ATOM      6  C   UNL     1       6.596   6.402  -1.820  0.00  0.00    +0.024 C 
ATOM      7  C   UNL     1       7.417   7.690  -1.842  0.00  0.00    +0.002 C 
ATOM      8  C   UNL     1       8.127   7.857  -0.496  0.00  0.00    +0.002 C 
ATOM      9  C   UNL     1       7.077   7.961   0.612  0.00  0.00    +0.024 C 
ATOM     10  C   UNL     1       6.214   6.707   0.636  0.00  0.00    +0.093 C 
ATOM     11  N   UNL     1       6.993   5.550   1.040  0.00  0.00    -0.309 N 
ATOM     12  C   UNL     1       6.770   4.308   0.599  0.00  0.00    +0.234 C 
ATOM     13  O   UNL     1       7.428   3.401   1.064  0.00  0.00    -0.274 OA
ATOM     14  C   UNL     1       5.705   3.984  -0.425  0.00  0.00    +0.172 C 
ATOM     15  H   UNL     1       3.451   3.070  -0.463  0.00  0.00    +0.156 HD
ATOM     16  H   UNL     1       7.720   5.686   1.668  0.00  0.00    +0.149 HD
ENDROOT
BRANCH   1  20
ATOM     17  C   UNL     1      -1.117   3.454  -1.615  0.00  0.00    +0.000 A 
ATOM     18  C   UNL     1      -0.572   2.746  -0.560  0.00  0.00    +0.002 A 
ATOM     19  C   UNL     1       0.770   2.875  -0.260  0.00  0.00    +0.023 A 
ATOM     20  C   UNL     1       1.572   3.716  -1.020  0.00  0.00    +0.035 A 
ATOM     21  C   UNL     1       1.022   4.425  -2.079  0.00  0.00    +0.023 A 
ATOM     22  C   UNL     1      -0.321   4.292  -2.374  0.00  0.00    +0.002 A 
ENDBRANCH   1  20
BRANCH  14  23
ATOM     23  C   UNL     1       6.404   3.602  -1.731  0.00  0.00    +0.128 C 
BRANCH  23  24
ATOM     24  C   UNL     1       5.432   2.878  -2.627  0.00  0.00    +0.219 C 
ATOM     25  O   UNL     1       4.293   2.687  -2.257  0.00  0.00    -0.275 OA
ATOM     26  N   UNL     1       5.829   2.442  -3.839  0.00  0.00    -0.285 N 
ATOM     27  H   UNL     1       6.708   2.679  -4.175  0.00  0.00    +0.155 HD
BRANCH  26  28
ATOM     28  C   UNL     1       4.974   1.650  -4.613  0.00  0.00    +0.033 A 
ATOM     29  C   UNL     1       4.207   0.662  -4.010  0.00  0.00    +0.025 A 
ATOM     30  C   UNL     1       3.359  -0.116  -4.775  0.00  0.00    +0.022 A 
ATOM     31  C   UNL     1       3.283   0.082  -6.143  0.00  0.00    +0.041 A 
ATOM     32  C   UNL     1       4.050   1.062  -6.746  0.00  0.00    +0.022 A 
ATOM     33  C   UNL     1       4.895   1.846  -5.985  0.00  0.00    +0.025 A 
ATOM     34 CL   UNL     1       2.222  -0.902  -7.102  0.00  0.00    -0.084 Cl
ENDBRANCH  26  28
ENDBRANCH  23  24
ENDBRANCH  14  23
TORSDOF 4
