REMARK  Name = ZINC53341158
REMARK  4 active torsions:
REMARK  status: ('A' for Active; 'I' for Inactive)
REMARK    1  A    between atoms: C_5  and  N_8
REMARK    2  A    between atoms: C_9  and  C_11
REMARK    3  A    between atoms: C_11  and  N_12
REMARK    4  A    between atoms: N_12  and  C_13
REMARK                            x       y       z     vdW  Elec       q    Type
REMARK                         _______ _______ _______ _____ _____    ______ ____
ROOT
ATOM      1  C   UNL     1       3.005  -3.138  -3.812  0.00  0.00    +0.015 C 
ENDROOT
BRANCH   1   3
ATOM      2  N   UNL     1       1.976  -1.046  -2.987  0.00  0.00    -0.314 N 
ATOM      3  C   UNL     1       2.617  -2.197  -2.702  0.00  0.00    +0.196 C 
ATOM      4  O   UNL     1       2.881  -2.474  -1.551  0.00  0.00    -0.278 OA
ATOM      5  H   UNL     1       1.764  -0.824  -3.907  0.00  0.00    +0.149 HD
BRANCH   2  10
ATOM      6  C   UNL     1      -0.019   1.538   0.011  0.00  0.00    +0.000 C 
ATOM      7  C   UNL     1       1.401   2.036  -0.000  0.00  0.00    +0.000 C 
ATOM      8  C   UNL     1       1.910   2.335  -1.423  0.00  0.00    +0.002 C 
ATOM      9  C   UNL     1       1.480   1.268  -2.449  0.00  0.00    +0.022 C 
ATOM     10  C   UNL     1       1.598  -0.131  -1.907  0.00  0.00    +0.073 C 
ATOM     11  C   UNL     1       0.231  -0.548  -1.328  0.00  0.00    +0.022 C 
ATOM     12  C   UNL     1       0.002  -0.004   0.002  0.00  0.00    +0.002 C 
ENDBRANCH   2  10
ENDBRANCH   1   3
BRANCH   1  13
ATOM     13  N   UNL     1       3.686  -4.310  -3.245  0.00  0.00    +0.387 N 
ATOM     14  H   UNL     1       4.514  -4.012  -2.752  0.00  0.00    -0.085 HD
ATOM     15  H   UNL     1       3.065  -4.783  -2.606  0.00  0.00    -0.085 HD
BRANCH  13  16
ATOM     16  C   UNL     1       4.064  -5.228  -4.328  0.00  0.00    -0.068 C 
ATOM     17  C   UNL     1       5.076  -4.539  -5.240  0.00  0.00    +0.007 C 
ATOM     18  C   UNL     1       5.279  -5.365  -6.513  0.00  0.00    +0.164 C 
ATOM     19  S   UNL     1       5.985  -6.977  -6.061  0.00  0.00    -0.031 S 
ATOM     20  O   UNL     1       5.912  -7.835  -7.191  0.00  0.00    -0.174 OA
ATOM     21  O   UNL     1       7.243  -6.760  -5.436  0.00  0.00    -0.174 OA
ATOM     22  C   UNL     1       4.809  -7.569  -4.809  0.00  0.00    +0.164 C 
ATOM     23  C   UNL     1       4.658  -6.498  -3.726  0.00  0.00    +0.007 C 
ENDBRANCH  13  16
ENDBRANCH   1  13
TORSDOF 4
