REMARK  Name = ZINC63772578
REMARK  8 active torsions:
REMARK  status: ('A' for Active; 'I' for Inactive)
REMARK    1  A    between atoms: C_1  and  C_2
REMARK    2  A    between atoms: C_7  and  S_12
REMARK    3  A    between atoms: S_12  and  C_13
REMARK    4  A    between atoms: C_13  and  C_14
REMARK    5  A    between atoms: N_16  and  C_17
REMARK    6  A    between atoms: C_19  and  C_32
REMARK    7  A    between atoms: C_32  and  O_34
REMARK    8  A    between atoms: O_34  and  C_35
REMARK                            x       y       z     vdW  Elec       q    Type
REMARK                         _______ _______ _______ _____ _____    ______ ____
ROOT
ATOM      1  C   UNL     1       4.331  -4.674   2.024  0.00  0.00    +0.224 C 
ATOM      2  O   UNL     1       4.356  -5.740   2.600  0.00  0.00    -0.275 OA
ATOM      3  N   UNL     1       5.481  -4.101   1.616  0.00  0.00    -0.302 N 
ATOM      4  H   UNL     1       5.461  -3.248   1.155  0.00  0.00    +0.150 HD
ENDROOT
BRANCH   3   5
ATOM      5  C   UNL     1       6.758  -4.765   1.869  0.00  0.00    +0.145 C 
ATOM      6  C   UNL     1       7.628  -4.817   0.602  0.00  0.00    +0.132 C 
ATOM      7  C   UNL     1       7.295  -6.016  -0.291  0.00  0.00    +0.018 C 
ATOM      8  C   UNL     1       5.970  -5.771  -1.029  0.00  0.00    +0.005 C 
ATOM      9  C   UNL     1       5.951  -6.444  -2.415  0.00  0.00    +0.000 C 
ATOM     10  C   UNL     1       5.968  -7.932  -2.296  0.00  0.00    +0.000 C 
ATOM     11  C   UNL     1       7.329  -8.479  -1.969  0.00  0.00    +0.000 C 
ATOM     12  C   UNL     1       7.236  -9.362  -0.717  0.00  0.00    +0.001 C 
ATOM     13  C   UNL     1       6.407  -8.469   0.250  0.00  0.00    +0.014 C 
ATOM     14  C   UNL     1       7.171  -7.244   0.633  0.00  0.00    +0.052 C 
ATOM     15  S   UNL     1       6.520  -6.557   2.206  0.00  0.00    -0.134 S 
BRANCH   6  16
ATOM     16  C   UNL     1       7.571  -3.516  -0.135  0.00  0.00    +0.313 C 
ATOM     17  O   UNL     1       7.232  -2.510   0.441  0.00  0.00    -0.250 OA
BRANCH  16  18
ATOM     18  O   UNL     1       7.898  -3.467  -1.436  0.00  0.00    -0.468 OA
ATOM     19  C   UNL     1       7.822  -2.191  -2.077  0.00  0.00    +0.280 C 
ENDBRANCH  16  18
ENDBRANCH   6  16
ENDBRANCH   3   5
BRANCH   1  20
ATOM     20  C   UNL     1       3.014  -3.989   1.763  0.00  0.00    +0.168 C 
BRANCH  20  21
ATOM     21  S   UNL     1       1.663  -5.002   2.426  0.00  0.00    -0.106 S 
BRANCH  21  28
ATOM     22  C   UNL     1       0.200   1.784   0.489  0.00  0.00    +0.044 C 
ATOM     23  C   UNL     1       0.164   0.277   0.486  0.00  0.00    -0.048 A 
ATOM     24  C   UNL     1       0.060  -0.393  -0.746  0.00  0.00    +0.005 A 
ATOM     25  C   UNL     1       0.021  -1.737  -0.841  0.00  0.00    +0.028 A 
ATOM     26  C   UNL     1       0.088  -2.553   0.379  0.00  0.00    +0.061 A 
ATOM     27  N   UNL     1       0.071  -3.838   0.587  0.00  0.00    -0.355 N 
ATOM     28  C   UNL     1       0.169  -4.051   2.036  0.00  0.00    +0.236 C 
ATOM     29  N   UNL     1       0.245  -2.717   2.647  0.00  0.00    -0.355 N 
ATOM     30  C   UNL     1       0.198  -1.844   1.683  0.00  0.00    +0.061 A 
ATOM     31  C   UNL     1       0.237  -0.375   1.664  0.00  0.00    +0.030 A 
ATOM     32  H   UNL     1       0.006  -4.528  -0.092  0.00  0.00    +0.162 HD
ATOM     33  H   UNL     1       0.317  -2.523   3.594  0.00  0.00    +0.162 HD
ENDBRANCH  21  28
ENDBRANCH  20  21
ENDBRANCH   1  20
TORSDOF 6
