REMARK  Name = ZINC20702407
REMARK  6 active torsions:
REMARK  status: ('A' for Active; 'I' for Inactive)
REMARK    1  A    between atoms: C_1  and  C_2
REMARK    2  A    between atoms: C_2  and  O_4
REMARK    3  A    between atoms: O_4  and  C_5
REMARK    4  A    between atoms: C_8  and  C_13
REMARK    5  A    between atoms: C_10  and  O_11
REMARK    6  A    between atoms: O_11  and  C_12
REMARK                            x       y       z     vdW  Elec       q    Type
REMARK                         _______ _______ _______ _____ _____    ______ ____
ROOT
ATOM      1  C   UNL     1       3.698  -0.732  -0.043  0.00  0.00    +0.105 C 
ATOM      2  C   UNL     1       4.270  -0.735  -1.446  0.00  0.00    +0.029 C 
ATOM      3  C   UNL     1       3.487  -1.470  -2.540  0.00  0.00    +0.033 C 
ATOM      4  C   UNL     1       4.615  -1.905  -3.480  0.00  0.00    -0.030 C 
ATOM      5  C   UNL     1       5.751  -2.021  -2.801  0.00  0.00    -0.023 C 
ATOM      6  C   UNL     1       5.481  -1.716  -1.374  0.00  0.00    +0.050 C 
ATOM      7  C   UNL     1       6.486  -1.087  -0.489  0.00  0.00    +0.002 A 
ATOM      8  C   UNL     1       6.021  -0.306   0.572  0.00  0.00    +0.051 A 
ATOM      9  C   UNL     1       6.959   0.276   1.429  0.00  0.00    +0.064 A 
ATOM     10  C   UNL     1       8.310   0.094   1.225  0.00  0.00    +0.043 A 
ATOM     11  C   UNL     1       8.757  -0.671   0.163  0.00  0.00    +0.061 A 
ATOM     12  C   UNL     1       7.840  -1.260  -0.690  0.00  0.00    +0.065 A 
ATOM     13 CL   UNL     1       8.397  -2.223  -2.023  0.00  0.00    -0.082 Cl
ATOM     14 CL   UNL     1      10.459  -0.893  -0.098  0.00  0.00    -0.082 Cl
ATOM     15 CL   UNL     1       6.415   1.239   2.767  0.00  0.00    -0.082 Cl
ATOM     16  N   UNL     1       4.673  -0.047   0.820  0.00  0.00    -0.335 N 
ATOM     17  H   UNL     1       4.325   0.630   1.614  0.00  0.00    +0.147 HD
ENDROOT
BRANCH   1  21
ATOM     18  C   UNL     1      -0.021   1.380   0.008  0.00  0.00    +0.173 A 
ATOM     19  C   UNL     1       1.176   2.078   0.027  0.00  0.00    +0.050 A 
ATOM     20  C   UNL     1       2.376   1.393   0.011  0.00  0.00    +0.009 A 
ATOM     21  C   UNL     1       2.386   0.011  -0.025  0.00  0.00    -0.023 A 
ATOM     22  C   UNL     1       1.196  -0.692  -0.044  0.00  0.00    +0.055 A 
ATOM     23  C   UNL     1      -0.011  -0.011  -0.028  0.00  0.00    +0.163 A 
BRANCH  23  24
ATOM     24  O   UNL     1      -1.183  -0.701  -0.046  0.00  0.00    -0.491 OA
ATOM     25  C   UNL     1      -1.096  -2.127  -0.083  0.00  0.00    +0.277 C 
ENDBRANCH  23  24
BRANCH  18  26
ATOM     26  O   UNL     1      -1.203   2.053   0.019  0.00  0.00    -0.422 OA
BRANCH  26  28
ATOM     27  C   UNL     1      -3.197   2.793   1.272  0.00  0.00    +0.136 C 
ATOM     28  C   UNL     1      -1.827   2.168   1.201  0.00  0.00    +0.309 C 
ATOM     29  O   UNL     1      -1.292   1.772   2.209  0.00  0.00    -0.251 OA
ENDBRANCH  26  28
ENDBRANCH  18  26
ENDBRANCH   1  21
TORSDOF 4
