REMARK  Name = ZINC36370518
REMARK  13 active torsions:
REMARK  status: ('A' for Active; 'I' for Inactive)
REMARK    1  A    between atoms: C_1  and  C_2
REMARK    2  A    between atoms: C_2  and  C_3
REMARK    3  A    between atoms: C_7  and  O_9
REMARK    4  A    between atoms: O_9  and  C_10
REMARK    5  A    between atoms: C_10  and  C_11
REMARK    6  A    between atoms: C_11  and  C_13
REMARK    7  A    between atoms: C_11  and  O_38
REMARK    8  A    between atoms: C_13  and  N_14
REMARK    9  A    between atoms: N_22  and  C_37
REMARK   10  A    between atoms: N_26  and  N_27
REMARK   11  A    between atoms: C_28  and  C_29
REMARK   12  A    between atoms: C_32  and  O_36
REMARK   13  A    between atoms: C_34  and  O_35
REMARK                            x       y       z     vdW  Elec       q    Type
REMARK                         _______ _______ _______ _____ _____    ______ ____
ROOT
ATOM      1  N   UNL     1      -1.686  -2.758   8.235  0.00  0.00    -0.302 N 
ATOM      2  C   UNL     1      -2.046  -1.872   9.240  0.00  0.00    +0.153 A 
ATOM      3  C   UNL     1      -2.059  -0.471   9.358  0.00  0.00    +0.280 A 
ATOM      4  O   UNL     1      -1.694   0.229   8.430  0.00  0.00    -0.265 OA
ATOM      5  N   UNL     1      -2.481   0.091  10.510  0.00  0.00    -0.273 N 
ATOM      6  H   UNL     1      -2.492   1.057  10.595  0.00  0.00    +0.173 HD
ATOM      7  C   UNL     1      -2.888  -0.668  11.542  0.00  0.00    +0.331 A 
ATOM      8  O   UNL     1      -3.262  -0.128  12.565  0.00  0.00    -0.246 OA
ATOM      9  N   UNL     1      -2.892  -2.013  11.471  0.00  0.00    -0.280 N 
ATOM     10  C   UNL     1      -2.469  -2.648  10.314  0.00  0.00    +0.170 A 
ATOM     11  N   UNL     1      -2.361  -3.927   9.954  0.00  0.00    -0.195 NA
ATOM     12  C   UNL     1      -1.902  -4.011   8.721  0.00  0.00    +0.218 A 
ATOM     13  N   UNL     1      -1.675  -5.181   8.034  0.00  0.00    -0.206 N 
ATOM     14  C   UNL     1      -3.342  -2.805  12.618  0.00  0.00    +0.155 C 
ATOM     15  H   UNL     1      -1.333  -5.152   7.127  0.00  0.00    +0.177 HD
ENDROOT
BRANCH  13  16
ATOM     16  N   UNL     1      -1.938  -6.414   8.645  0.00  0.00    -0.187 NA
ATOM     17  C   UNL     1      -1.624  -7.518   8.039  0.00  0.00    +0.142 C 
BRANCH  17  18
ATOM     18  C   UNL     1      -0.768  -7.483   6.840  0.00  0.00    +0.036 A 
ATOM     19  C   UNL     1       0.127  -6.428   6.648  0.00  0.00    +0.016 A 
ATOM     20  C   UNL     1       0.925  -6.399   5.525  0.00  0.00    +0.046 A 
ATOM     21  C   UNL     1       0.843  -7.416   4.582  0.00  0.00    +0.120 A 
ATOM     22  C   UNL     1      -0.043  -8.468   4.763  0.00  0.00    +0.091 A 
ATOM     23  C   UNL     1      -0.846  -8.512   5.890  0.00  0.00    +0.129 A 
BRANCH  23  24
ATOM     24  O   UNL     1      -1.709  -9.544   6.072  0.00  0.00    -0.506 OA
ATOM     25  H   UNL     1      -2.606  -9.366   5.759  0.00  0.00    +0.292 HD
ENDBRANCH  23  24
BRANCH  21  26
ATOM     26  O   UNL     1       1.633  -7.380   3.477  0.00  0.00    -0.507 OA
ATOM     27  H   UNL     1       2.486  -7.821   3.589  0.00  0.00    +0.292 HD
ENDBRANCH  21  26
ENDBRANCH  17  18
ENDBRANCH  13  16
BRANCH   1  28
ATOM     28  C   UNL     1      -1.177  -2.413   6.905  0.00  0.00    +0.160 C 
BRANCH  28  29
ATOM     29  C   UNL     1      -2.350  -2.256   5.935  0.00  0.00    +0.172 C 
BRANCH  29  30
ATOM     30  O   UNL     1      -3.153  -1.143   6.334  0.00  0.00    -0.387 OA
ATOM     31  H   UNL     1      -2.679  -0.301   6.346  0.00  0.00    +0.210 HD
ENDBRANCH  29  30
BRANCH  29  32
ATOM     32  C   UNL     1      -1.814  -2.019   4.522  0.00  0.00    +0.262 C 
BRANCH  32  33
ATOM     33  O   UNL     1      -2.904  -1.989   3.598  0.00  0.00    -0.489 OA
BRANCH  33  38
ATOM     34  C   UNL     1      -3.295  -1.538   0.009  0.00  0.00    -0.044 A 
ATOM     35  C   UNL     1      -1.977  -1.371  -0.374  0.00  0.00    +0.004 A 
ATOM     36  C   UNL     1      -0.969  -1.411   0.572  0.00  0.00    +0.004 A 
ATOM     37  C   UNL     1      -1.277  -1.618   1.903  0.00  0.00    +0.045 A 
ATOM     38  C   UNL     1      -2.599  -1.785   2.290  0.00  0.00    +0.121 A 
ATOM     39  C   UNL     1      -3.609  -1.739   1.339  0.00  0.00    +0.049 A 
BRANCH  34  41
ATOM     40  C   UNL     1      -4.881  -0.054  -1.187  0.00  0.00    +0.009 C 
ATOM     41  C   UNL     1      -4.391  -1.494  -1.024  0.00  0.00    +0.032 C 
ENDBRANCH  34  41
ENDBRANCH  33  38
ENDBRANCH  32  33
ENDBRANCH  29  32
ENDBRANCH  28  29
ENDBRANCH   1  28
TORSDOF 11
