REMARK  Name = ZINC13064773
REMARK  14 active torsions:
REMARK  status: ('A' for Active; 'I' for Inactive)
REMARK    1  A    between atoms: C_1  and  C_2
REMARK    2  A    between atoms: C_2  and  C_3
REMARK    3  A    between atoms: C_3  and  C_5
REMARK    4  A    between atoms: C_3  and  N_71
REMARK    5  A    between atoms: N_9  and  C_10
REMARK    6  A    between atoms: C_10  and  C_11
REMARK    7  A    between atoms: C_10  and  C_12
REMARK    8  A    between atoms: C_10  and  C_13
REMARK    9  A    between atoms: C_14  and  C_15
REMARK   10  A    between atoms: C_14  and  N_71
REMARK   11  A    between atoms: C_24  and  C_25
REMARK   12  A    between atoms: C_24  and  N_71
REMARK   13  A    between atoms: C_28  and  C_38
REMARK   14  A    between atoms: C_30  and  C_37
REMARK                            x       y       z     vdW  Elec       q    Type
REMARK                         _______ _______ _______ _____ _____    ______ ____
ROOT
ATOM      1  N   UNL     1       0.343   0.161   0.438  0.00  0.00    +0.392 N 
ATOM      2  H   UNL     1      -0.665  -0.032   0.389  0.00  0.00    -0.080 HD
ENDROOT
BRANCH   1   3
ATOM      3  C   UNL     1       0.980  -0.834   1.326  0.00  0.00    +0.003 C 
BRANCH   3   4
ATOM      4  C   UNL     1      -0.006  -1.221   2.398  0.00  0.00    +0.139 A 
ATOM      5  N   UNL     1      -0.898  -0.442   2.960  0.00  0.00    -0.115 NA
ATOM      6  N   UNL     1      -1.549  -1.140   3.825  0.00  0.00    -0.023 NA
ATOM      7  N   UNL     1      -1.090  -2.343   3.835  0.00  0.00    -0.043 NA
ATOM      8  N   UNL     1      -0.138  -2.433   2.969  0.00  0.00    -0.226 N 
BRANCH   8   9
ATOM      9  C   UNL     1       0.651  -3.629   2.664  0.00  0.00    +0.059 C 
ATOM     10  C   UNL     1       2.141  -3.293   2.755  0.00  0.00    +0.036 C 
ATOM     11  C   UNL     1       0.315  -4.732   3.670  0.00  0.00    +0.036 C 
ATOM     12  C   UNL     1       0.322  -4.110   1.250  0.00  0.00    +0.036 C 
ENDBRANCH   8   9
ENDBRANCH   3   4
BRANCH   3  14
ATOM     13  C   UNL     1       3.277   0.048   0.895  0.00  0.00    +0.002 C 
ATOM     14  C   UNL     1       2.233  -0.245   1.975  0.00  0.00    -0.011 C 
ENDBRANCH   3  14
ENDBRANCH   1   3
BRANCH   1  15
ATOM     15  C   UNL     1       0.544   1.522   0.978  0.00  0.00    -0.041 C 
BRANCH  15  16
ATOM     16  C   UNL     1      -0.404   1.730   2.131  0.00  0.00    -0.060 A 
ATOM     17  C   UNL     1      -1.744   1.967   1.887  0.00  0.00    +0.005 A 
ATOM     18  C   UNL     1      -2.619   2.152   2.942  0.00  0.00    +0.050 A 
ATOM     19  C   UNL     1      -2.151   2.114   4.245  0.00  0.00    +0.166 A 
ATOM     20  C   UNL     1      -0.800   1.881   4.490  0.00  0.00    +0.166 A 
ATOM     21  C   UNL     1       0.070   1.690   3.429  0.00  0.00    +0.051 A 
ATOM     22  O   UNL     1      -0.593   1.891   5.840  0.00  0.00    -0.453 OA
ATOM     23  C   UNL     1      -1.751   2.536   6.402  0.00  0.00    +0.466 C 
ATOM     24  O   UNL     1      -2.791   2.269   5.441  0.00  0.00    -0.453 OA
ENDBRANCH  15  16
ENDBRANCH   1  15
BRANCH   1  25
ATOM     25  C   UNL     1       0.917   0.067  -0.921  0.00  0.00    -0.036 C 
BRANCH  25  26
ATOM     26  C   UNL     1       0.351  -1.154  -1.600  0.00  0.00    +0.001 A 
ATOM     27  C   UNL     1      -0.762  -1.045  -2.367  0.00  0.00    +0.017 A 
ATOM     28  C   UNL     1      -1.286  -2.249  -3.014  0.00  0.00    +0.002 A 
ATOM     29  C   UNL     1      -2.430  -2.200  -3.817  0.00  0.00    -0.041 A 
ATOM     30  C   UNL     1      -2.893  -3.342  -4.407  0.00  0.00    +0.007 A 
ATOM     31  C   UNL     1      -2.239  -4.551  -4.216  0.00  0.00    -0.048 A 
ATOM     32  C   UNL     1      -1.110  -4.624  -3.429  0.00  0.00    +0.029 A 
ATOM     33  C   UNL     1      -0.620  -3.474  -2.818  0.00  0.00    +0.050 A 
ATOM     34  N   UNL     1       0.508  -3.517  -2.026  0.00  0.00    -0.322 N 
ATOM     35  H   UNL     1       0.966  -4.362  -1.893  0.00  0.00    +0.169 HD
ATOM     36  C   UNL     1       0.985  -2.405  -1.441  0.00  0.00    +0.251 A 
ATOM     37  O   UNL     1       1.987  -2.479  -0.751  0.00  0.00    -0.268 OA
ATOM     38  C   UNL     1      -2.768  -5.798  -4.877  0.00  0.00    +0.044 C 
ATOM     39  C   UNL     1      -3.148  -0.893  -4.031  0.00  0.00    +0.044 C 
ENDBRANCH  25  26
ENDBRANCH   1  25
TORSDOF 8
