REMARK  Name = ZINC40397509
REMARK  6 active torsions:
REMARK  status: ('A' for Active; 'I' for Inactive)
REMARK    1  A    between atoms: C_1  and  C_2
REMARK    2  A    between atoms: C_2  and  C_3
REMARK    3  A    between atoms: C_4  and  C_25
REMARK    4  A    between atoms: N_14  and  C_17
REMARK    5  A    between atoms: C_17  and  C_18
REMARK    6  A    between atoms: C_18  and  C_19
REMARK                            x       y       z     vdW  Elec       q    Type
REMARK                         _______ _______ _______ _____ _____    ______ ____
ROOT
ATOM      1  C   UNL     1      -1.412  -0.526   0.013  0.00  0.00    +0.073 A 
ATOM      2  C   UNL     1      -2.168  -0.809   1.158  0.00  0.00    +0.049 A 
ATOM      3  C   UNL     1      -3.417  -1.268   0.729  0.00  0.00    +0.164 A 
ATOM      4  N   UNL     1      -4.503  -1.671   1.402  0.00  0.00    -0.235 NA
ATOM      5  C   UNL     1      -5.593  -2.070   0.789  0.00  0.00    +0.128 A 
ATOM      6  C   UNL     1      -5.634  -2.080  -0.619  0.00  0.00    +0.083 A 
ATOM      7  C   UNL     1      -4.502  -1.660  -1.340  0.00  0.00    +0.083 A 
ATOM      8  N   UNL     1      -3.391  -1.253  -0.643  0.00  0.00    -0.213 N 
ATOM      9  N   UNL     1      -2.137  -0.783  -1.046  0.00  0.00    -0.169 NA
ATOM     10  C   UNL     1      -4.548  -1.671  -2.742  0.00  0.00    +0.046 A 
ATOM     11  C   UNL     1      -5.666  -2.079  -3.380  0.00  0.00    +0.091 A 
ATOM     12  N   UNL     1      -6.776  -2.491  -2.712  0.00  0.00    -0.314 N 
ATOM     13  C   UNL     1      -6.816  -2.513  -1.362  0.00  0.00    +0.262 A 
ATOM     14  O   UNL     1      -7.817  -2.885  -0.776  0.00  0.00    -0.267 OA
ENDROOT
BRANCH   2  15
ATOM     15  C   UNL     1      -1.725  -0.652   2.563  0.00  0.00    -0.012 A 
ATOM     16  C   UNL     1      -0.681  -1.432   3.059  0.00  0.00    +0.010 A 
ATOM     17  C   UNL     1      -0.273  -1.282   4.369  0.00  0.00    +0.020 A 
ATOM     18  C   UNL     1      -0.898  -0.358   5.189  0.00  0.00    +0.041 A 
ATOM     19  C   UNL     1      -1.935   0.419   4.702  0.00  0.00    +0.020 A 
ATOM     20  C   UNL     1      -2.348   0.281   3.393  0.00  0.00    +0.010 A 
ATOM     21 CL   UNL     1      -0.379  -0.174   6.836  0.00  0.00    -0.084 Cl
ENDBRANCH   2  15
BRANCH   1  23
ATOM     22  C   UNL     1      -0.019   1.526   0.010  0.00  0.00    +0.010 C 
ATOM     23  C   UNL     1       0.002  -0.004   0.002  0.00  0.00    +0.054 C 
ENDBRANCH   1  23
BRANCH  12  24
ATOM     24  C   UNL     1      -7.952  -2.920  -3.471  0.00  0.00    +0.131 C 
BRANCH  24  25
ATOM     25  C   UNL     1      -7.864  -4.423  -3.742  0.00  0.00    +0.076 C 
BRANCH  25  26
ATOM     26  C   UNL     1      -9.074  -4.865  -4.524  0.00  0.00    +0.035 A 
ATOM     27  C   UNL     1     -10.276  -5.204  -4.019  0.00  0.00    +0.105 A 
ATOM     28  N   UNL     1     -11.077  -5.536  -5.042  0.00  0.00    -0.352 N 
ATOM     29  C   UNL     1     -10.418  -5.416  -6.161  0.00  0.00    +0.171 A 
ATOM     30  N   UNL     1      -9.165  -4.994  -5.883  0.00  0.00    -0.350 N 
ATOM     31  H   UNL     1      -8.461  -4.818  -6.527  0.00  0.00    +0.166 HD
ATOM     32  H   UNL     1     -12.001  -5.820  -4.962  0.00  0.00    +0.166 HD
ENDBRANCH  25  26
ENDBRANCH  24  25
ENDBRANCH  12  24
TORSDOF 5
