REMARK  Name = ZINC02652050
REMARK  15 active torsions:
REMARK  status: ('A' for Active; 'I' for Inactive)
REMARK    1  A    between atoms: C_1  and  C_2
REMARK    2  A    between atoms: C_2  and  N_3
REMARK    3  A    between atoms: C_6  and  C_19
REMARK    4  A    between atoms: C_7  and  N_18
REMARK    5  A    between atoms: N_8  and  C_11
REMARK    6  A    between atoms: C_11  and  C_12
REMARK    7  A    between atoms: C_19  and  C_21
REMARK    8  A    between atoms: C_21  and  N_68
REMARK    9  A    between atoms: C_22  and  N_68
REMARK   10  A    between atoms: C_23  and  C_24
REMARK   11  A    between atoms: C_23  and  N_68
REMARK   12  A    between atoms: C_27  and  C_30
REMARK   13  A    between atoms: C_30  and  C_31
REMARK   14  A    between atoms: C_30  and  C_32
REMARK   15  A    between atoms: C_30  and  C_33
REMARK                            x       y       z     vdW  Elec       q    Type
REMARK                         _______ _______ _______ _____ _____    ______ ____
ROOT
ATOM      1  N   UNL     1       0.377  -8.218  -2.497  0.00  0.00    -0.260 N 
ATOM      2  C   UNL     1       0.607  -6.935  -2.150  0.00  0.00    +0.269 A 
ATOM      3  O   UNL     1       0.887  -6.642  -1.002  0.00  0.00    -0.267 OA
ATOM      4  C   UNL     1       0.506  -5.898  -3.185  0.00  0.00    +0.118 A 
ATOM      5  C   UNL     1       0.185  -6.303  -4.492  0.00  0.00    +0.116 A 
ATOM      6  N   UNL     1      -0.023  -7.630  -4.740  0.00  0.00    -0.277 N 
ATOM      7  C   UNL     1       0.073  -8.546  -3.763  0.00  0.00    +0.334 A 
ATOM      8  O   UNL     1      -0.121  -9.714  -4.035  0.00  0.00    -0.246 OA
ENDROOT
BRANCH   5   9
ATOM      9  N   UNL     1       0.084  -5.389  -5.495  0.00  0.00    -0.344 N 
ATOM     10  H   UNL     1       0.313  -4.461  -5.329  0.00  0.00    +0.144 HD
ATOM     11  H   UNL     1      -0.218  -5.665  -6.374  0.00  0.00    +0.144 HD
ENDBRANCH   5   9
BRANCH   1  13
ATOM     12  C   UNL     1       1.899  -9.800  -1.419  0.00  0.00    +0.027 C 
ATOM     13  C   UNL     1       0.466  -9.269  -1.480  0.00  0.00    +0.126 C 
ENDBRANCH   1  13
BRANCH   4  14
ATOM     14  C   UNL     1       0.730  -4.539  -2.879  0.00  0.00    +0.155 C 
ATOM     15  O   UNL     1       0.753  -3.711  -3.768  0.00  0.00    -0.294 OA
BRANCH  14  16
ATOM     16  C   UNL     1       0.941  -4.114  -1.448  0.00  0.00    +0.002 C 
BRANCH  16  18
ATOM     17  C   UNL     1       2.407  -2.286  -2.059  0.00  0.00    -0.095 C 
ATOM     18  N   UNL     1       1.130  -2.648  -1.409  0.00  0.00    +0.385 N 
ATOM     19  H   UNL     1       0.358  -2.199  -1.916  0.00  0.00    -0.081 HD
BRANCH  18  20
ATOM     20  C   UNL     1       1.124  -2.175  -0.009  0.00  0.00    -0.043 C 
BRANCH  20  21
ATOM     21  C   UNL     1       1.096  -0.668  -0.005  0.00  0.00    -0.064 A 
ATOM     22  C   UNL     1      -0.114   0.000  -0.019  0.00  0.00    +0.002 A 
ATOM     23  C   UNL     1      -0.140   1.383  -0.014  0.00  0.00    +0.004 A 
ATOM     24  C   UNL     1       1.044   2.096   0.004  0.00  0.00    -0.042 A 
ATOM     25  C   UNL     1       2.254   1.427   0.017  0.00  0.00    +0.004 A 
ATOM     26  C   UNL     1       2.280   0.045   0.013  0.00  0.00    +0.002 A 
BRANCH  24  27
ATOM     27  C   UNL     1       1.016   3.603   0.009  0.00  0.00    -0.013 C 
ATOM     28  C   UNL     1       0.269   4.095   1.250  0.00  0.00    +0.015 C 
ATOM     29  C   UNL     1       2.449   4.139   0.030  0.00  0.00    +0.015 C 
ATOM     30  C   UNL     1       0.303   4.103  -1.248  0.00  0.00    +0.015 C 
ENDBRANCH  24  27
ENDBRANCH  20  21
ENDBRANCH  18  20
ENDBRANCH  16  18
ENDBRANCH  14  16
ENDBRANCH   4  14
BRANCH   6  31
ATOM     31  C   UNL     1      -0.359  -8.063  -6.099  0.00  0.00    +0.163 C 
BRANCH  31  32
ATOM     32  C   UNL     1       0.908  -8.374  -6.854  0.00  0.00    -0.028 A 
ATOM     33  C   UNL     1       1.541  -7.382  -7.580  0.00  0.00    +0.005 A 
ATOM     34  C   UNL     1       2.705  -7.666  -8.269  0.00  0.00    +0.000 A 
ATOM     35  C   UNL     1       3.231  -8.944  -8.240  0.00  0.00    +0.000 A 
ATOM     36  C   UNL     1       2.595  -9.937  -7.518  0.00  0.00    +0.000 A 
ATOM     37  C   UNL     1       1.434  -9.652  -6.825  0.00  0.00    +0.005 A 
ENDBRANCH  31  32
ENDBRANCH   6  31
TORSDOF 10
