REMARK  Name = ZINC59879699
REMARK  8 active torsions:
REMARK  status: ('A' for Active; 'I' for Inactive)
REMARK    1  A    between atoms: C_1  and  C_2
REMARK    2  A    between atoms: C_2  and  C_4
REMARK    3  A    between atoms: C_2  and  S_11
REMARK    4  A    between atoms: N_6  and  N_7
REMARK    5  A    between atoms: C_8  and  C_10
REMARK    6  A    between atoms: S_11  and  C_12
REMARK    7  A    between atoms: N_17  and  N_18
REMARK    8  A    between atoms: C_19  and  C_20
REMARK                            x       y       z     vdW  Elec       q    Type
REMARK                         _______ _______ _______ _____ _____    ______ ____
ROOT
ATOM      1  C   UNL     1      -0.107  -0.037   2.819  0.00  0.00    +0.211 A 
ATOM      2  N   UNL     1       0.141  -0.266   4.112  0.00  0.00    -0.186 NA
ATOM      3  C   UNL     1      -0.828   0.241   4.846  0.00  0.00    +0.232 A 
ATOM      4  N   UNL     1      -1.726   0.811   4.013  0.00  0.00    -0.245 N 
ATOM      5  N   UNL     1      -1.235   0.624   2.711  0.00  0.00    -0.144 NA
ATOM      6  N   UNL     1      -0.912   0.197   6.225  0.00  0.00    -0.205 N 
ATOM      7  H   UNL     1      -1.669   0.600   6.678  0.00  0.00    +0.177 HD
ATOM      8  H   UNL     1      -2.545   1.264   4.266  0.00  0.00    +0.192 HD
ENDROOT
BRANCH   6   9
ATOM      9  N   UNL     1       0.096  -0.430   6.968  0.00  0.00    -0.188 NA
ATOM     10  C   UNL     1       0.017  -0.472   8.268  0.00  0.00    +0.139 C 
BRANCH  10  11
ATOM     11  C   UNL     1       1.072  -1.128   9.045  0.00  0.00    +0.010 A 
ATOM     12  C   UNL     1       1.055  -1.078  10.454  0.00  0.00    -0.009 A 
ATOM     13  C   UNL     1       0.033  -0.404  11.145  0.00  0.00    +0.009 A 
ATOM     14  C   UNL     1       0.045  -0.375  12.504  0.00  0.00    +0.001 A 
ATOM     15  C   UNL     1       1.051  -1.001  13.240  0.00  0.00    +0.001 A 
ATOM     16  C   UNL     1       2.067  -1.669  12.634  0.00  0.00    +0.008 A 
ATOM     17  C   UNL     1       2.112  -1.737  11.225  0.00  0.00    -0.017 A 
ATOM     18  C   UNL     1       3.141  -2.416  10.571  0.00  0.00    +0.017 A 
ATOM     19  C   UNL     1       3.166  -2.470   9.177  0.00  0.00    -0.017 A 
ATOM     20  C   UNL     1       2.113  -1.821   8.393  0.00  0.00    -0.009 A 
ATOM     21  C   UNL     1       2.166  -1.899   6.991  0.00  0.00    +0.009 A 
ATOM     22  C   UNL     1       3.183  -2.576   6.393  0.00  0.00    +0.001 A 
ATOM     23  C   UNL     1       4.184  -3.198   7.137  0.00  0.00    +0.001 A 
ATOM     24  C   UNL     1       4.197  -3.150   8.495  0.00  0.00    +0.008 A 
ENDBRANCH  10  11
ENDBRANCH   6   9
BRANCH   1  25
ATOM     25  S   UNL     1       0.919  -0.536   1.476  0.00  0.00    -0.072 S 
BRANCH  25  27
ATOM     26  C   UNL     1       0.015   1.603   0.029  0.00  0.00    +0.029 C 
ATOM     27  C   UNL     1       0.046   0.073   0.007  0.00  0.00    +0.138 C 
BRANCH  27  28
ATOM     28  C   UNL     1       0.762  -0.397  -1.233  0.00  0.00    +0.242 C 
ATOM     29  O   UNL     1       1.921  -0.748  -1.168  0.00  0.00    -0.273 OA
ATOM     30  N   UNL     1       0.115  -0.426  -2.415  0.00  0.00    -0.233 N 
ATOM     31  H   UNL     1      -0.812  -0.145  -2.467  0.00  0.00    +0.173 HD
BRANCH  30  32
ATOM     32  N   UNL     1       0.780  -0.863  -3.568  0.00  0.00    -0.235 N 
ATOM     33  C   UNL     1       0.132  -0.892  -4.750  0.00  0.00    +0.226 C 
ATOM     34  O   UNL     1      -1.026  -0.540  -4.815  0.00  0.00    -0.275 OA
ATOM     35  C   UNL     1       0.848  -1.361  -5.990  0.00  0.00    +0.110 C 
ATOM     36  H   UNL     1       1.707  -1.143  -3.516  0.00  0.00    +0.173 HD
ENDBRANCH  30  32
ENDBRANCH  27  28
ENDBRANCH  25  27
ENDBRANCH   1  25
TORSDOF 6
