REMARK  Name = ZINC24976702
REMARK  5 active torsions:
REMARK  status: ('A' for Active; 'I' for Inactive)
REMARK    1  A    between atoms: C_1  and  C_2
REMARK    2  A    between atoms: C_15  and  C_17
REMARK    3  A    between atoms: C_17  and  N_18
REMARK    4  A    between atoms: N_18  and  C_19
REMARK    5  A    between atoms: C_23  and  C_25
REMARK                            x       y       z     vdW  Elec       q    Type
REMARK                         _______ _______ _______ _____ _____    ______ ____
ROOT
ATOM      1  C   UNL     1       1.395   3.522   0.409  0.00  0.00    +0.029 C 
ATOM      2  C   UNL     1       1.411   2.047  -0.000  0.00  0.00    +0.087 C 
ATOM      3  C   UNL     1      -0.018   1.502   0.010  0.00  0.00    +0.118 C 
ATOM      4  C   UNL     1       0.002  -0.004   0.002  0.00  0.00    +0.219 C 
ATOM      5  O   UNL     1      -0.266  -0.604  -1.018  0.00  0.00    -0.275 OA
ATOM      6  N   UNL     1       0.316  -0.692   1.122  0.00  0.00    -0.284 N 
ATOM      7  C   UNL     1       0.715  -0.018   2.283  0.00  0.00    +0.055 A 
ATOM      8  C   UNL     1       0.145  -0.315   3.509  0.00  0.00    +0.025 A 
ATOM      9  C   UNL     1       0.574   0.347   4.645  0.00  0.00    +0.002 A 
ATOM     10  C   UNL     1       1.571   1.302   4.559  0.00  0.00    +0.002 A 
ATOM     11  C   UNL     1       2.138   1.611   3.337  0.00  0.00    +0.025 A 
ATOM     12  C   UNL     1       1.704   0.961   2.192  0.00  0.00    +0.058 A 
ATOM     13  N   UNL     1       2.239   1.290   0.939  0.00  0.00    -0.265 N 
ATOM     14  C   UNL     1       3.490   0.916   0.606  0.00  0.00    +0.237 C 
ATOM     15  O   UNL     1       3.940   1.208  -0.482  0.00  0.00    -0.274 OA
ATOM     16  H   UNL     1       0.261  -1.790   1.127  0.00  0.00    +0.155 HD
ENDROOT
BRANCH  14  17
ATOM     17  C   UNL     1       4.329   0.136   1.585  0.00  0.00    +0.198 C 
BRANCH  17  18
ATOM     18  N   UNL     1       5.638  -0.146   0.990  0.00  0.00    -0.335 N 
ATOM     19  H   UNL     1       5.867   0.206  -0.027  0.00  0.00    +0.147 HD
BRANCH  18  20
ATOM     20  C   UNL     1       6.595  -0.863   1.713  0.00  0.00    +0.029 A 
ATOM     21  C   UNL     1       6.304  -1.308   2.998  0.00  0.00    +0.024 A 
ATOM     22  C   UNL     1       7.246  -2.017   3.719  0.00  0.00    +0.023 A 
ATOM     23  C   UNL     1       8.484  -2.289   3.167  0.00  0.00    +0.058 A 
ATOM     24  C   UNL     1       8.785  -1.846   1.876  0.00  0.00    +0.072 A 
ATOM     25  C   UNL     1       7.830  -1.135   1.148  0.00  0.00    +0.043 A 
ATOM     26 CL   UNL     1       9.663  -3.180   4.077  0.00  0.00    -0.082 Cl
BRANCH  24  27
ATOM     27  C   UNL     1      10.066  -2.127   1.301  0.00  0.00    +0.101 C 
ATOM     28  N   UNL     1      11.082  -2.349   0.845  0.00  0.00    -0.191 NA
ENDBRANCH  24  27
ENDBRANCH  18  20
ENDBRANCH  17  18
ENDBRANCH  14  17
TORSDOF 4
