REMARK  Name = ZINC22681460
REMARK  11 active torsions:
REMARK  status: ('A' for Active; 'I' for Inactive)
REMARK    1  A    between atoms: C_1  and  C_2
REMARK    2  A    between atoms: N_5  and  C_8
REMARK    3  A    between atoms: C_8  and  C_10
REMARK    4  A    between atoms: C_8  and  C_31
REMARK    5  A    between atoms: C_10  and  N_11
REMARK    6  A    between atoms: C_12  and  C_14
REMARK    7  A    between atoms: C_17  and  N_20
REMARK    8  A    between atoms: C_21  and  C_23
REMARK    9  A    between atoms: C_23  and  S_24
REMARK   10  A    between atoms: S_24  and  C_25
REMARK   11  A    between atoms: N_29  and  C_30
REMARK                            x       y       z     vdW  Elec       q    Type
REMARK                         _______ _______ _______ _____ _____    ______ ____
ROOT
ATOM      1  N   UNL     1       1.380   3.908  -0.133  0.00  0.00    -0.313 N 
ATOM      2  C   UNL     1       0.168   3.369  -0.372  0.00  0.00    +0.244 C 
ATOM      3  O   UNL     1      -0.824   4.072  -0.352  0.00  0.00    -0.270 OA
ATOM      4  H   UNL     1       2.277   3.272  -0.151  0.00  0.00    +0.149 HD
ENDROOT
BRANCH   2   5
ATOM      5  C   UNL     1       0.044   1.926  -0.657  0.00  0.00    +0.037 A 
ATOM      6  C   UNL     1      -1.212   1.367  -0.905  0.00  0.00    +0.015 A 
ATOM      7  C   UNL     1      -1.324   0.021  -1.171  0.00  0.00    +0.024 A 
ATOM      8  C   UNL     1      -0.188  -0.782  -1.194  0.00  0.00    +0.033 A 
ATOM      9  C   UNL     1       1.065  -0.228  -0.948  0.00  0.00    +0.024 A 
ATOM     10  C   UNL     1       1.183   1.117  -0.680  0.00  0.00    +0.015 A 
BRANCH   8  11
ATOM     11  N   UNL     1      -0.304  -2.146  -1.463  0.00  0.00    -0.285 N 
ATOM     12  C   UNL     1      -1.397  -2.822  -1.056  0.00  0.00    +0.227 C 
ATOM     13  O   UNL     1      -2.233  -2.269  -0.374  0.00  0.00    -0.275 OA
ATOM     14  H   UNL     1       0.495  -2.669  -2.008  0.00  0.00    +0.155 HD
BRANCH  12  15
ATOM     15  C   UNL     1      -1.579  -4.266  -1.448  0.00  0.00    +0.173 C 
BRANCH  15  16
ATOM     16  S   UNL     1      -3.130  -4.888  -0.753  0.00  0.00    -0.078 S 
BRANCH  16  17
ATOM     17  C   UNL     1      -3.088  -6.546  -1.350  0.00  0.00    +0.169 A 
ATOM     18  N   UNL     1      -2.143  -7.071  -2.093  0.00  0.00    -0.230 NA
ATOM     19  C   UNL     1      -2.443  -8.354  -2.353  0.00  0.00    +0.131 A 
ATOM     20  C   UNL     1      -3.616  -8.642  -1.764  0.00  0.00    +0.107 A 
ATOM     21  N   UNL     1      -4.035  -7.497  -1.123  0.00  0.00    -0.329 N 
ATOM     22  C   UNL     1      -5.265  -7.335  -0.344  0.00  0.00    +0.151 C 
ENDBRANCH  16  17
ENDBRANCH  15  16
ENDBRANCH  12  15
ENDBRANCH   8  11
ENDBRANCH   2   5
BRANCH   1  23
ATOM     23  C   UNL     1       1.503   5.340   0.150  0.00  0.00    +0.094 C 
BRANCH  23  24
ATOM     24  C   UNL     1       2.974   5.689   0.382  0.00  0.00    -0.013 C 
BRANCH  24  29
ATOM     25  C   UNL     1       6.160   4.911  -4.299  0.00  0.00    +0.007 C 
ATOM     26  C   UNL     1       5.365   5.552  -3.160  0.00  0.00    -0.018 C 
ATOM     27  C   UNL     1       5.983   5.154  -1.817  0.00  0.00    -0.015 C 
ATOM     28  C   UNL     1       5.148   5.748  -0.680  0.00  0.00    -0.078 C 
ATOM     29  N   UNL     1       3.770   5.250  -0.771  0.00  0.00    +0.386 N 
ATOM     30  C   UNL     1       3.139   5.661  -2.033  0.00  0.00    -0.078 C 
ATOM     31  C   UNL     1       3.914   5.064  -3.210  0.00  0.00    -0.015 C 
ATOM     32  H   UNL     1       3.809   4.151  -0.758  0.00  0.00    -0.081 HD
ENDBRANCH  24  29
BRANCH  24  33
ATOM     33  C   UNL     1       3.115   7.180   0.552  0.00  0.00    -0.022 A 
ATOM     34  C   UNL     1       3.374   7.891   1.677  0.00  0.00    +0.009 A 
ATOM     35  C   UNL     1       3.462   9.268   1.595  0.00  0.00    +0.008 A 
ATOM     36  C   UNL     1       3.285   9.867   0.392  0.00  0.00    +0.045 A 
ATOM     37  S   UNL     1       2.992   8.468  -0.678  0.00  0.00    -0.103 S 
ENDBRANCH  24  33
ENDBRANCH  23  24
ENDBRANCH   1  23
TORSDOF 9
