REMARK  Name = ZINC13348027
REMARK  15 active torsions:
REMARK  status: ('A' for Active; 'I' for Inactive)
REMARK    1  A    between atoms: C_1  and  C_2
REMARK    2  A    between atoms: N_4  and  C_5
REMARK    3  A    between atoms: C_7  and  O_40
REMARK    4  A    between atoms: C_9  and  O_39
REMARK    5  A    between atoms: C_11  and  C_37
REMARK    6  A    between atoms: C_14  and  O_16
REMARK    7  A    between atoms: O_16  and  C_17
REMARK    8  A    between atoms: C_19  and  C_35
REMARK    9  A    between atoms: C_22  and  O_33
REMARK   10  A    between atoms: C_24  and  N_29
REMARK   11  A    between atoms: C_26  and  O_28
REMARK   12  A    between atoms: C_30  and  C_32
REMARK   13  A    between atoms: O_33  and  C_34
REMARK   14  A    between atoms: C_35  and  O_36
REMARK   15  A    between atoms: C_37  and  O_38
REMARK                            x       y       z     vdW  Elec       q    Type
REMARK                         _______ _______ _______ _____ _____    ______ ____
ROOT
ATOM      1  O   UNL     1       2.051   0.289   1.100  0.00  0.00    -0.341 OA
ENDROOT
BRANCH   1   7
ATOM      2  C   UNL     1       3.297  -1.503   0.060  0.00  0.00    +0.160 C 
ATOM      3  C   UNL     1       4.642  -1.841  -0.589  0.00  0.00    +0.171 C 
ATOM      4  C   UNL     1       5.771  -1.479   0.381  0.00  0.00    +0.176 C 
ATOM      5  C   UNL     1       5.660   0.003   0.751  0.00  0.00    +0.178 C 
ATOM      6  O   UNL     1       4.374   0.255   1.321  0.00  0.00    -0.341 OA
ATOM      7  C   UNL     1       3.282  -0.020   0.442  0.00  0.00    +0.274 C 
BRANCH   2  11
ATOM      8  C   UNL     1       2.341  -4.376   2.400  0.00  0.00    +0.109 C 
ATOM      9  C   UNL     1       2.639  -3.577   1.157  0.00  0.00    +0.210 C 
ATOM     10  O   UNL     1       2.452  -4.065   0.063  0.00  0.00    -0.276 OA
ATOM     11  N   UNL     1       3.115  -2.320   1.263  0.00  0.00    -0.305 N 
ATOM     12  H   UNL     1       3.337  -1.957   2.134  0.00  0.00    +0.149 HD
ENDBRANCH   2  11
BRANCH   4  13
ATOM     13  O   UNL     1       5.660  -2.275   1.562  0.00  0.00    -0.387 OA
ATOM     14  H   UNL     1       6.342  -2.095   2.224  0.00  0.00    +0.210 HD
ENDBRANCH   4  13
BRANCH   3  15
ATOM     15  O   UNL     1       4.792  -1.091  -1.797  0.00  0.00    -0.387 OA
ATOM     16  H   UNL     1       5.626  -1.251  -2.259  0.00  0.00    +0.210 HD
ENDBRANCH   3  15
BRANCH   5  17
ATOM     17  C   UNL     1       6.747   0.358   1.766  0.00  0.00    +0.190 C 
BRANCH  17  18
ATOM     18  O   UNL     1       6.718   1.763   2.024  0.00  0.00    -0.392 OA
ATOM     19  H   UNL     1       7.382   2.061   2.661  0.00  0.00    +0.210 HD
ENDBRANCH  17  18
ENDBRANCH   5  17
ENDBRANCH   1   7
BRANCH   1  20
ATOM     20  C   UNL     1       1.843   1.687   1.315  0.00  0.00    +0.183 C 
ATOM     21  C   UNL     1       1.124   1.897   2.651  0.00  0.00    +0.178 C 
ATOM     22  O   UNL     1      -0.160   1.272   2.602  0.00  0.00    -0.341 OA
ATOM     23  C   UNL     1      -1.027   1.797   1.595  0.00  0.00    +0.273 C 
ATOM     24  C   UNL     1      -0.394   1.583   0.217  0.00  0.00    +0.160 C 
ATOM     25  C   UNL     1       0.981   2.256   0.185  0.00  0.00    +0.171 C 
BRANCH  24  26
ATOM     26  N   UNL     1      -0.242   0.147  -0.034  0.00  0.00    -0.305 N 
ATOM     27  C   UNL     1      -0.325  -0.330  -1.292  0.00  0.00    +0.210 C 
ATOM     28  O   UNL     1      -0.431   0.437  -2.225  0.00  0.00    -0.276 OA
ATOM     29  C   UNL     1      -0.286  -1.816  -1.538  0.00  0.00    +0.109 C 
ATOM     30  H   UNL     1      -0.081  -0.460   0.705  0.00  0.00    +0.149 HD
ENDBRANCH  24  26
BRANCH  25  31
ATOM     31  O   UNL     1       1.610   1.999  -1.072  0.00  0.00    -0.387 OA
ATOM     32  H   UNL     1       1.115   2.328  -1.835  0.00  0.00    +0.210 HD
ENDBRANCH  25  31
BRANCH  23  33
ATOM     33  O   UNL     1      -2.285   1.123   1.651  0.00  0.00    -0.353 OA
ATOM     34  C   UNL     1      -3.064   1.441   2.806  0.00  0.00    +0.197 C 
ENDBRANCH  23  33
BRANCH  21  35
ATOM     35  C   UNL     1       1.952   1.277   3.779  0.00  0.00    +0.190 C 
BRANCH  35  36
ATOM     36  O   UNL     1       1.332   1.560   5.035  0.00  0.00    -0.392 OA
ATOM     37  H   UNL     1       1.803   1.197   5.797  0.00  0.00    +0.210 HD
ENDBRANCH  35  36
ENDBRANCH  21  35
ENDBRANCH   1  20
TORSDOF 12
