REMARK  Name = ZINC35372615
REMARK  9 active torsions:
REMARK  status: ('A' for Active; 'I' for Inactive)
REMARK    1  A    between atoms: C_1  and  C_2
REMARK    2  A    between atoms: C_2  and  N_3
REMARK    3  A    between atoms: C_10  and  C_26
REMARK    4  A    between atoms: C_11  and  S_13
REMARK    5  A    between atoms: S_13  and  C_14
REMARK    6  A    between atoms: C_14  and  C_15
REMARK    7  A    between atoms: N_17  and  C_18
REMARK    8  A    between atoms: C_20  and  C_25
REMARK    9  A    between atoms: C_22  and  C_24
REMARK                            x       y       z     vdW  Elec       q    Type
REMARK                         _______ _______ _______ _____ _____    ______ ____
ROOT
ATOM      1  N   UNL     1       0.663  -0.404   1.028  0.00  0.00    +0.380 N 
ATOM      2  C   UNL     1       2.070   0.009   0.967  0.00  0.00    -0.075 C 
ATOM      3  C   UNL     1       2.789  -0.423   2.247  0.00  0.00    +0.035 C 
ATOM      4  C   UNL     1       2.697  -1.943   2.387  0.00  0.00    +0.150 C 
ATOM      5  C   UNL     1       1.232  -2.378   2.365  0.00  0.00    +0.035 C 
ATOM      6  C   UNL     1       0.574  -1.869   1.079  0.00  0.00    -0.075 C 
ATOM      7  N   UNL     1       3.432  -2.594   1.299  0.00  0.00    -0.251 NA
ATOM      8  C   UNL     1       4.372  -3.310   1.843  0.00  0.00    +0.100 C 
ATOM      9  C   UNL     1       4.309  -3.171   3.317  0.00  0.00    +0.120 C 
ATOM     10  N   UNL     1       3.332  -2.374   3.636  0.00  0.00    -0.246 NA
ATOM     11  H   UNL     1       0.236  -0.013   1.855  0.00  0.00    -0.082 HD
ENDROOT
BRANCH   8  12
ATOM     12  C   UNL     1       5.352  -4.136   1.103  0.00  0.00    +0.003 A 
ATOM     13  C   UNL     1       5.949  -5.236   1.722  0.00  0.00    +0.013 A 
ATOM     14  C   UNL     1       6.862  -6.002   1.029  0.00  0.00    +0.039 A 
ATOM     15  C   UNL     1       7.188  -5.681  -0.280  0.00  0.00    +0.123 A 
ATOM     16  C   UNL     1       6.598  -4.590  -0.899  0.00  0.00    +0.039 A 
ATOM     17  C   UNL     1       5.679  -3.821  -0.217  0.00  0.00    +0.013 A 
ATOM     18  F   UNL     1       8.084  -6.435  -0.955  0.00  0.00    -0.205 F 
ENDBRANCH   8  12
BRANCH   1  20
ATOM     19  C   UNL     1      -0.058   1.616  -0.154  0.00  0.00    -0.017 C 
ATOM     20  C   UNL     1      -0.042   0.086  -0.164  0.00  0.00    -0.082 C 
ENDBRANCH   1  20
BRANCH   9  21
ATOM     21  S   UNL     1       5.390  -3.964   4.460  0.00  0.00    -0.095 S 
BRANCH  21  22
ATOM     22  C   UNL     1       4.804  -3.400   6.082  0.00  0.00    +0.172 C 
BRANCH  22  23
ATOM     23  C   UNL     1       5.655  -4.013   7.164  0.00  0.00    +0.227 C 
ATOM     24  O   UNL     1       6.567  -4.757   6.870  0.00  0.00    -0.275 OA
ATOM     25  N   UNL     1       5.403  -3.734   8.458  0.00  0.00    -0.285 N 
ATOM     26  H   UNL     1       4.628  -3.202   8.698  0.00  0.00    +0.155 HD
BRANCH  25  27
ATOM     27  C   UNL     1       6.259  -4.212   9.457  0.00  0.00    +0.034 A 
ATOM     28  C   UNL     1       5.745  -4.595  10.689  0.00  0.00    +0.026 A 
ATOM     29  C   UNL     1       6.593  -5.066  11.672  0.00  0.00    -0.048 A 
ATOM     30  C   UNL     1       7.952  -5.156  11.431  0.00  0.00    +0.006 A 
ATOM     31  C   UNL     1       8.466  -4.775  10.205  0.00  0.00    -0.048 A 
ATOM     32  C   UNL     1       7.623  -4.309   9.216  0.00  0.00    +0.026 A 
ATOM     33  C   UNL     1       9.948  -4.875   9.947  0.00  0.00    +0.044 C 
ATOM     34  C   UNL     1       6.037  -5.482  13.009  0.00  0.00    +0.044 C 
ENDBRANCH  25  27
ENDBRANCH  22  23
ENDBRANCH  21  22
ENDBRANCH   9  21
TORSDOF 6
