REMARK  Name = ZINC12009331
REMARK  6 active torsions:
REMARK  status: ('A' for Active; 'I' for Inactive)
REMARK    1  A    between atoms: C_4  and  C_7
REMARK    2  A    between atoms: C_16  and  N_25
REMARK    3  A    between atoms: C_18  and  C_20
REMARK    4  A    between atoms: C_26  and  C_28
REMARK    5  A    between atoms: C_31  and  S_34
REMARK    6  A    between atoms: S_34  and  N_37
REMARK                            x       y       z     vdW  Elec       q    Type
REMARK                         _______ _______ _______ _____ _____    ______ ____
ROOT
ATOM      1  C   UNL     1      -2.389   8.772   5.716  0.00  0.00    +0.080 A 
ATOM      2  C   UNL     1      -1.109   8.964   6.213  0.00  0.00    +0.098 A 
ATOM      3  C   UNL     1      -0.593   8.029   7.124  0.00  0.00    +0.253 A 
ATOM      4  O   UNL     1       0.529   8.163   7.584  0.00  0.00    -0.268 OA
ATOM      5  N   UNL     1      -1.364   6.982   7.488  0.00  0.00    -0.291 N 
ATOM      6  H   UNL     1      -1.026   6.328   8.119  0.00  0.00    +0.172 HD
ATOM      7  C   UNL     1      -2.612   6.839   6.966  0.00  0.00    +0.234 A 
ATOM      8  N   UNL     1      -3.102   7.708   6.113  0.00  0.00    -0.212 NA
ATOM      9  N   UNL     1      -3.383   5.757   7.346  0.00  0.00    -0.184 N 
ATOM     10  C   UNL     1      -3.490   4.572   6.675  0.00  0.00    +0.133 A 
ATOM     11  C   UNL     1      -4.336   3.776   7.377  0.00  0.00    +0.077 A 
ATOM     12  C   UNL     1      -4.766   4.497   8.512  0.00  0.00    +0.130 A 
ATOM     13  N   UNL     1      -4.194   5.684   8.486  0.00  0.00    -0.159 NA
ENDROOT
BRANCH   1  17
ATOM     14  C   UNL     1      -4.046  11.545   2.954  0.00  0.00    +0.000 A 
ATOM     15  C   UNL     1      -4.823  10.508   3.439  0.00  0.00    +0.001 A 
ATOM     16  C   UNL     1      -4.291   9.605   4.336  0.00  0.00    +0.010 A 
ATOM     17  C   UNL     1      -2.967   9.739   4.753  0.00  0.00    +0.001 A 
ATOM     18  C   UNL     1      -2.190  10.789   4.264  0.00  0.00    +0.010 A 
ATOM     19  C   UNL     1      -2.732  11.683   3.364  0.00  0.00    +0.001 A 
ENDBRANCH   1  17
BRANCH  12  20
ATOM     20  C   UNL     1      -5.697   4.006   9.549  0.00  0.00    +0.155 A 
ATOM     21  C   UNL     1      -6.107   4.698  10.645  0.00  0.00    +0.051 A 
ATOM     22  C   UNL     1      -6.987   3.855  11.352  0.00  0.00    +0.042 A 
ATOM     23  C   UNL     1      -7.063   2.699  10.664  0.00  0.00    +0.196 A 
ATOM     24  O   UNL     1      -6.282   2.794   9.576  0.00  0.00    -0.461 OA
ENDBRANCH  12  20
BRANCH  10  25
ATOM     25  N   UNL     1      -2.843   4.238   5.489  0.00  0.00    -0.266 N 
ATOM     26  C   UNL     1      -3.120   3.070   4.876  0.00  0.00    +0.249 C 
ATOM     27  O   UNL     1      -4.004   2.353   5.304  0.00  0.00    -0.270 OA
ATOM     28  H   UNL     1      -2.193   4.846   5.103  0.00  0.00    +0.157 HD
BRANCH  26  29
ATOM     29  C   UNL     1      -2.349   2.660   3.683  0.00  0.00    +0.037 A 
ATOM     30  C   UNL     1      -2.560   1.406   3.109  0.00  0.00    +0.015 A 
ATOM     31  C   UNL     1      -1.837   1.030   1.995  0.00  0.00    +0.029 A 
ATOM     32  C   UNL     1      -0.905   1.893   1.448  0.00  0.00    +0.106 A 
ATOM     33  C   UNL     1      -0.687   3.136   2.016  0.00  0.00    +0.029 A 
ATOM     34  C   UNL     1      -1.407   3.527   3.126  0.00  0.00    +0.015 A 
BRANCH  32  35
ATOM     35  S   UNL     1       0.014   1.405   0.026  0.00  0.00    +0.061 S 
ATOM     36  O   UNL     1       0.020  -0.016   0.014  0.00  0.00    -0.153 OA
ATOM     37  O   UNL     1       1.210   2.172   0.032  0.00  0.00    -0.153 OA
BRANCH  35  38
ATOM     38  N   UNL     1      -0.850   1.885  -1.303  0.00  0.00    -0.177 NA
ATOM     39  C   UNL     1      -1.863   1.082  -2.003  0.00  0.00    +0.109 C 
ATOM     40  C   UNL     1      -2.378   1.925  -3.188  0.00  0.00    +0.018 C 
ATOM     41  C   UNL     1      -1.217   2.927  -3.430  0.00  0.00    +0.018 C 
ATOM     42  C   UNL     1      -0.725   3.187  -1.984  0.00  0.00    +0.109 C 
ENDBRANCH  35  38
ENDBRANCH  32  35
ENDBRANCH  26  29
ENDBRANCH  10  25
TORSDOF 6
