REMARK  Name = ZINC06321186
REMARK  14 active torsions:
REMARK  status: ('A' for Active; 'I' for Inactive)
REMARK    1  A    between atoms: C_1  and  C_2
REMARK    2  A    between atoms: C_6  and  C_15
REMARK    3  A    between atoms: C_13  and  C_14
REMARK    4  A    between atoms: C_15  and  C_17
REMARK    5  A    between atoms: C_15  and  N_72
REMARK    6  A    between atoms: N_21  and  C_22
REMARK    7  A    between atoms: C_22  and  C_23
REMARK    8  A    between atoms: C_22  and  C_24
REMARK    9  A    between atoms: C_22  and  C_25
REMARK   10  A    between atoms: C_26  and  C_27
REMARK   11  A    between atoms: C_26  and  N_72
REMARK   12  A    between atoms: C_27  and  C_28
REMARK   13  A    between atoms: C_34  and  C_35
REMARK   14  A    between atoms: C_34  and  N_72
REMARK                            x       y       z     vdW  Elec       q    Type
REMARK                         _______ _______ _______ _____ _____    ______ ____
ROOT
ATOM      1  C   UNL     1      -4.570   3.626   0.315  0.00  0.00    +0.039 C 
ENDROOT
BRANCH   1   7
ATOM      2  C   UNL     1      -0.427  -1.827   3.268  0.00  0.00    +0.044 C 
ATOM      3  C   UNL     1      -0.550  -0.562   2.458  0.00  0.00    -0.047 A 
ATOM      4  C   UNL     1      -1.780  -0.000   2.264  0.00  0.00    +0.013 A 
ATOM      5  C   UNL     1      -1.895   1.174   1.513  0.00  0.00    -0.001 A 
ATOM      6  C   UNL     1      -3.198   1.803   1.286  0.00  0.00    +0.017 A 
ATOM      7  C   UNL     1      -3.246   2.950   0.564  0.00  0.00    +0.011 A 
ATOM      8  C   UNL     1      -2.062   3.507   0.034  0.00  0.00    +0.251 A 
ATOM      9  O   UNL     1      -2.129   4.533  -0.620  0.00  0.00    -0.268 OA
ATOM     10  N   UNL     1      -0.862   2.934   0.234  0.00  0.00    -0.322 N 
ATOM     11  H   UNL     1      -0.068   3.343  -0.144  0.00  0.00    +0.169 HD
ATOM     12  C   UNL     1      -0.744   1.773   0.968  0.00  0.00    +0.049 A 
ATOM     13  C   UNL     1       0.497   1.180   1.175  0.00  0.00    +0.030 A 
ATOM     14  C   UNL     1       0.587   0.022   1.917  0.00  0.00    -0.046 A 
ATOM     15  C   UNL     1       1.933  -0.616   2.145  0.00  0.00    +0.044 C 
ENDBRANCH   1   7
BRANCH   1  16
ATOM     16  C   UNL     1      -5.476   3.405   1.499  0.00  0.00    +0.143 A 
ATOM     17  N   UNL     1      -6.101   2.295   1.809  0.00  0.00    -0.115 NA
ATOM     18  N   UNL     1      -6.773   2.506   2.888  0.00  0.00    -0.023 NA
ATOM     19  N   UNL     1      -6.600   3.723   3.269  0.00  0.00    -0.043 NA
ATOM     20  N   UNL     1      -5.806   4.310   2.438  0.00  0.00    -0.225 N 
BRANCH  20  21
ATOM     21  C   UNL     1      -5.350   5.701   2.505  0.00  0.00    +0.059 C 
ATOM     22  C   UNL     1      -5.891   6.474   1.301  0.00  0.00    +0.036 C 
ATOM     23  C   UNL     1      -5.862   6.344   3.796  0.00  0.00    +0.036 C 
ATOM     24  C   UNL     1      -3.821   5.737   2.489  0.00  0.00    +0.036 C 
ENDBRANCH  20  21
ENDBRANCH   1  16
BRANCH   1  25
ATOM     25  N   UNL     1      -5.217   3.068  -0.890  0.00  0.00    +0.392 N 
ATOM     26  H   UNL     1      -6.198   3.372  -0.913  0.00  0.00    -0.080 HD
BRANCH  25  27
ATOM     27  C   UNL     1      -5.173   1.591  -0.850  0.00  0.00    -0.072 C 
BRANCH  27  28
ATOM     28  C   UNL     1      -6.057   1.040  -1.970  0.00  0.00    +0.016 C 
BRANCH  28  29
ATOM     29  C   UNL     1      -6.145  -0.460  -1.849  0.00  0.00    -0.049 A 
ATOM     30  C   UNL     1      -5.227  -1.261  -2.502  0.00  0.00    +0.003 A 
ATOM     31  C   UNL     1      -5.304  -2.636  -2.387  0.00  0.00    +0.000 A 
ATOM     32  C   UNL     1      -6.307  -3.211  -1.628  0.00  0.00    +0.000 A 
ATOM     33  C   UNL     1      -7.229  -2.410  -0.980  0.00  0.00    +0.000 A 
ATOM     34  C   UNL     1      -7.148  -1.034  -1.091  0.00  0.00    +0.003 A 
ENDBRANCH  28  29
ENDBRANCH  27  28
ENDBRANCH  25  27
BRANCH  25  35
ATOM     35  C   UNL     1      -4.534   3.560  -2.105  0.00  0.00    -0.034 C 
BRANCH  35  36
ATOM     36  C   UNL     1      -4.967   4.981  -2.360  0.00  0.00    -0.027 A 
ATOM     37  C   UNL     1      -4.353   6.137  -2.008  0.00  0.00    +0.009 A 
ATOM     38  C   UNL     1      -4.940   7.340  -2.353  0.00  0.00    +0.008 A 
ATOM     39  C   UNL     1      -6.113   7.328  -3.033  0.00  0.00    +0.045 A 
ATOM     40  S   UNL     1      -6.418   5.578  -3.212  0.00  0.00    -0.103 S 
ENDBRANCH  35  36
ENDBRANCH  25  35
ENDBRANCH   1  25
TORSDOF 9
