REMARK  Name = ZINC43285719
REMARK  11 active torsions:
REMARK  status: ('A' for Active; 'I' for Inactive)
REMARK    1  A    between atoms: C_1  and  C_2
REMARK    2  A    between atoms: C_2  and  C_3
REMARK    3  A    between atoms: C_3  and  C_5
REMARK    4  A    between atoms: C_3  and  N_21
REMARK    5  A    between atoms: C_5  and  C_7
REMARK    6  A    between atoms: C_5  and  N_13
REMARK    7  A    between atoms: N_13  and  C_14
REMARK    8  A    between atoms: N_13  and  C_16
REMARK    9  A    between atoms: C_14  and  C_15
REMARK   10  A    between atoms: C_16  and  C_17
REMARK   11  A    between atoms: N_19  and  C_20
REMARK                            x       y       z     vdW  Elec       q    Type
REMARK                         _______ _______ _______ _____ _____    ______ ____
ROOT
ATOM      1  C   UNL     1       0.662  -2.150   1.137  0.00  0.00    -0.045 C 
ENDROOT
BRANCH   1   2
ATOM      2  C   UNL     1       0.872  -2.816   2.472  0.00  0.00    -0.024 A 
ATOM      3  C   UNL     1      -0.046  -3.364   3.306  0.00  0.00    +0.024 A 
ATOM      4  C   UNL     1       0.381  -3.927   4.495  0.00  0.00    +0.025 A 
ATOM      5  C   UNL     1       1.704  -3.915   4.791  0.00  0.00    +0.060 A 
ATOM      6  S   UNL     1       2.394  -3.096   3.362  0.00  0.00    -0.102 S 
ATOM      7 BR   UNL     1      -0.863  -4.702   5.690  0.00  0.00    -0.050 Br
ENDBRANCH   1   2
BRANCH   1   8
ATOM      8  N   UNL     1       1.535  -2.775   0.135  0.00  0.00    +0.389 N 
ATOM      9  H   UNL     1       1.335  -2.387  -0.775  0.00  0.00    -0.080 HD
BRANCH   8  10
ATOM     10  C   UNL     1       1.295  -4.224   0.113  0.00  0.00    -0.081 C 
ATOM     11  C   UNL     1      -0.129  -4.498  -0.373  0.00  0.00    -0.017 C 
ENDBRANCH   8  10
BRANCH   8  12
ATOM     12  C   UNL     1       2.940  -2.517   0.479  0.00  0.00    +0.019 C 
BRANCH  12  13
ATOM     13  C   UNL     1       3.829  -3.021  -0.627  0.00  0.00    +0.196 C 
ATOM     14  O   UNL     1       3.342  -3.545  -1.607  0.00  0.00    -0.278 OA
ATOM     15  N   UNL     1       5.167  -2.891  -0.529  0.00  0.00    -0.320 N 
ATOM     16  C   UNL     1       6.032  -3.381  -1.605  0.00  0.00    +0.128 C 
ATOM     17  H   UNL     1       5.558  -2.472   0.254  0.00  0.00    +0.148 HD
ENDBRANCH  12  13
ENDBRANCH   8  12
ENDBRANCH   1   8
BRANCH   1  18
ATOM     18  C   UNL     1       1.001  -0.662   1.251  0.00  0.00    -0.085 C 
BRANCH  18  19
ATOM     19  N   UNL     1       0.137  -0.039   2.263  0.00  0.00    +0.379 N 
ATOM     20  H   UNL     1       0.285  -0.487   3.154  0.00  0.00    -0.090 HD
ATOM     21  H   UNL     1       0.360   0.942   2.338  0.00  0.00    -0.090 HD
ATOM     22  H   UNL     1      -0.829  -0.144   1.990  0.00  0.00    -0.090 HD
ENDBRANCH  18  19
BRANCH  18  24
ATOM     23  C   UNL     1       1.225   1.478  -0.019  0.00  0.00    +0.002 C 
ATOM     24  C   UNL     1       0.775   0.018  -0.101  0.00  0.00    -0.021 C 
ENDBRANCH  18  24
ENDBRANCH   1  18
TORSDOF 8
