REMARK  Name = ZINC34771287
REMARK  12 active torsions:
REMARK  status: ('A' for Active; 'I' for Inactive)
REMARK    1  A    between atoms: C_1  and  C_2
REMARK    2  A    between atoms: C_2  and  O_3
REMARK    3  A    between atoms: O_3  and  C_4
REMARK    4  A    between atoms: C_12  and  C_14
REMARK    5  A    between atoms: C_17  and  C_19
REMARK    6  A    between atoms: C_19  and  N_20
REMARK    7  A    between atoms: N_20  and  C_21
REMARK    8  A    between atoms: N_20  and  C_30
REMARK    9  A    between atoms: C_21  and  C_22
REMARK   10  A    between atoms: C_26  and  O_28
REMARK   11  A    between atoms: O_28  and  C_29
REMARK   12  A    between atoms: C_30  and  C_31
REMARK                            x       y       z     vdW  Elec       q    Type
REMARK                         _______ _______ _______ _____ _____    ______ ____
ROOT
ATOM      1  C   UNL     1       5.302  -8.639  -3.855  0.00  0.00    -0.002 C 
ENDROOT
BRANCH   1   5
ATOM      2  C   UNL     1       5.713  -5.010  -3.913  0.00  0.00    +0.190 A 
ATOM      3  C   UNL     1       6.884  -5.378  -4.512  0.00  0.00    +0.055 A 
ATOM      4  C   UNL     1       6.885  -6.780  -4.569  0.00  0.00    +0.043 A 
ATOM      5  C   UNL     1       5.729  -7.202  -4.010  0.00  0.00    +0.090 A 
ATOM      6  O   UNL     1       5.028  -6.132  -3.611  0.00  0.00    -0.457 OA
BRANCH   2  15
ATOM      7  C   UNL     1       0.156  -2.513  -2.948  0.00  0.00    +0.403 C 
ATOM      8  O   UNL     1      -0.642  -3.425  -2.858  0.00  0.00    -0.226 OA
ATOM      9  N   UNL     1       1.397  -2.747  -3.419  0.00  0.00    -0.264 N 
ATOM     10  C   UNL     1       2.374  -1.654  -3.527  0.00  0.00    +0.130 C 
ATOM     11  C   UNL     1       3.639  -2.050  -2.754  0.00  0.00    +0.127 C 
ATOM     12  N   UNL     1       4.038  -3.402  -3.169  0.00  0.00    -0.292 N 
ATOM     13  C   UNL     1       3.061  -4.494  -3.062  0.00  0.00    +0.127 C 
ATOM     14  C   UNL     1       1.799  -4.100  -3.829  0.00  0.00    +0.130 C 
ATOM     15  C   UNL     1       5.279  -3.636  -3.641  0.00  0.00    +0.282 C 
ATOM     16  O   UNL     1       6.040  -2.707  -3.840  0.00  0.00    -0.267 OA
BRANCH   7  17
ATOM     17  O   UNL     1      -0.199  -1.268  -2.576  0.00  0.00    -0.451 OA
BRANCH  17  19
ATOM     18  C   UNL     1      -1.748   0.375  -1.715  0.00  0.00    +0.048 C 
ATOM     19  C   UNL     1      -1.530  -1.093  -2.085  0.00  0.00    +0.230 C 
ENDBRANCH  17  19
ENDBRANCH   7  17
ENDBRANCH   2  15
ENDBRANCH   1   5
BRANCH   1  20
ATOM     20  N   UNL     1       5.781  -9.156  -2.567  0.00  0.00    +0.390 N 
ATOM     21  H   UNL     1       6.779  -9.024  -2.501  0.00  0.00    -0.080 HD
BRANCH  20  22
ATOM     22  C   UNL     1       5.469 -10.588  -2.468  0.00  0.00    -0.042 C 
BRANCH  22  23
ATOM     23  C   UNL     1       6.289 -11.352  -3.475  0.00  0.00    -0.060 A 
ATOM     24  C   UNL     1       5.747 -11.674  -4.706  0.00  0.00    +0.002 A 
ATOM     25  C   UNL     1       6.497 -12.374  -5.632  0.00  0.00    +0.004 A 
ATOM     26  C   UNL     1       7.790 -12.755  -5.330  0.00  0.00    +0.045 A 
ATOM     27  C   UNL     1       8.336 -12.434  -4.096  0.00  0.00    +0.120 A 
ATOM     28  C   UNL     1       7.584 -11.725  -3.171  0.00  0.00    +0.047 A 
BRANCH  27  29
ATOM     29  O   UNL     1       9.608 -12.807  -3.797  0.00  0.00    -0.495 OA
ATOM     30  C   UNL     1      10.366 -13.424  -4.840  0.00  0.00    +0.277 C 
ENDBRANCH  27  29
ENDBRANCH  22  23
ENDBRANCH  20  22
BRANCH  20  31
ATOM     31  C   UNL     1       5.119  -8.434  -1.472  0.00  0.00    -0.042 C 
BRANCH  31  32
ATOM     32  C   UNL     1       5.777  -8.791  -0.164  0.00  0.00    -0.061 A 
ATOM     33  C   UNL     1       5.238  -9.785   0.632  0.00  0.00    +0.002 A 
ATOM     34  C   UNL     1       5.840 -10.114   1.831  0.00  0.00    +0.003 A 
ATOM     35  C   UNL     1       6.982  -9.450   2.237  0.00  0.00    +0.038 A 
ATOM     36  C   UNL     1       7.522  -8.454   1.441  0.00  0.00    +0.124 A 
ATOM     37  C   UNL     1       6.922  -8.130   0.236  0.00  0.00    +0.040 A 
ATOM     38  F   UNL     1       8.638  -7.804   1.837  0.00  0.00    -0.205 F 
ENDBRANCH  31  32
ENDBRANCH  20  31
ENDBRANCH   1  20
TORSDOF 10
