REMARK  Name = ZINC05808996
REMARK  13 active torsions:
REMARK  status: ('A' for Active; 'I' for Inactive)
REMARK    1  A    between atoms: C_1  and  C_2
REMARK    2  A    between atoms: C_11  and  C_12
REMARK    3  A    between atoms: C_11  and  O_37
REMARK    4  A    between atoms: C_12  and  C_14
REMARK    5  A    between atoms: C_12  and  C_22
REMARK    6  A    between atoms: C_17  and  O_20
REMARK    7  A    between atoms: O_20  and  C_21
REMARK    8  A    between atoms: C_22  and  C_29
REMARK    9  A    between atoms: N_23  and  N_24
REMARK   10  A    between atoms: C_25  and  O_27
REMARK   11  A    between atoms: O_27  and  C_28
REMARK   12  A    between atoms: C_32  and  O_35
REMARK   13  A    between atoms: O_35  and  C_36
REMARK                            x       y       z     vdW  Elec       q    Type
REMARK                         _______ _______ _______ _____ _____    ______ ____
ROOT
ATOM      1  C   UNL     1       0.867  -2.446  -1.257  0.00  0.00    +0.115 C 
ENDROOT
BRANCH   1  12
ATOM      2  C   UNL     1      -0.937  -0.523   3.922  0.00  0.00    +0.046 C 
ATOM      3  C   UNL     1      -0.495  -1.709   3.103  0.00  0.00    -0.027 A 
ATOM      4  C   UNL     1      -0.873  -2.982   3.476  0.00  0.00    +0.025 A 
ATOM      5  C   UNL     1      -0.473  -4.077   2.730  0.00  0.00    +0.042 A 
ATOM      6  C   UNL     1       0.311  -3.893   1.603  0.00  0.00    +0.028 A 
ATOM      7  C   UNL     1       0.688  -2.623   1.229  0.00  0.00    +0.017 A 
ATOM      8  C   UNL     1       0.292  -1.516   1.970  0.00  0.00    +0.043 A 
ATOM      9  N   UNL     1       0.795  -0.347   1.396  0.00  0.00    -0.282 N 
ATOM     10  C   UNL     1       1.520  -0.594   0.292  0.00  0.00    +0.255 C 
ATOM     11  O   UNL     1       2.073   0.230  -0.406  0.00  0.00    -0.272 OA
ATOM     12  C   UNL     1       1.517  -2.093   0.082  0.00  0.00    +0.181 C 
ATOM     13 CL   UNL     1      -0.957  -5.676   3.202  0.00  0.00    -0.084 Cl
ATOM     14  H   UNL     1       0.638   0.541   1.753  0.00  0.00    +0.155 HD
BRANCH  12  15
ATOM     15  O   UNL     1       2.848  -2.610   0.146  0.00  0.00    -0.374 OA
ATOM     16  H   UNL     1       3.317  -2.389   0.962  0.00  0.00    +0.211 HD
ENDBRANCH  12  15
ENDBRANCH   1  12
BRANCH   1  17
ATOM     17  C   UNL     1       0.654  -3.936  -1.335  0.00  0.00    -0.035 A 
ATOM     18  C   UNL     1       1.742  -4.786  -1.399  0.00  0.00    +0.008 A 
ATOM     19  C   UNL     1       1.549  -6.153  -1.464  0.00  0.00    +0.046 A 
ATOM     20  C   UNL     1       0.262  -6.670  -1.478  0.00  0.00    +0.120 A 
ATOM     21  C   UNL     1      -0.828  -5.814  -1.421  0.00  0.00    +0.046 A 
ATOM     22  C   UNL     1      -0.630  -4.449  -1.349  0.00  0.00    +0.008 A 
BRANCH  20  23
ATOM     23  O   UNL     1       0.070  -8.014  -1.548  0.00  0.00    -0.495 OA
ATOM     24  C   UNL     1       1.238  -8.835  -1.605  0.00  0.00    +0.277 C 
ENDBRANCH  20  23
ENDBRANCH   1  17
BRANCH   1  25
ATOM     25  C   UNL     1       1.768  -2.008  -2.383  0.00  0.00    +0.077 C 
ATOM     26  N   UNL     1       2.940  -1.516  -2.123  0.00  0.00    -0.181 NA
BRANCH  25  27
ATOM     27  C   UNL     1       1.317  -2.137  -3.781  0.00  0.00    -0.001 A 
ATOM     28  C   UNL     1      -0.016  -1.882  -4.114  0.00  0.00    +0.013 A 
ATOM     29  C   UNL     1      -0.432  -2.000  -5.422  0.00  0.00    +0.046 A 
ATOM     30  C   UNL     1       0.469  -2.381  -6.408  0.00  0.00    +0.120 A 
ATOM     31  C   UNL     1       1.793  -2.641  -6.081  0.00  0.00    +0.046 A 
ATOM     32  C   UNL     1       2.220  -2.522  -4.776  0.00  0.00    +0.013 A 
BRANCH  30  33
ATOM     33  O   UNL     1       0.053  -2.501  -7.696  0.00  0.00    -0.495 OA
ATOM     34  C   UNL     1      -1.322  -2.219  -7.963  0.00  0.00    +0.277 C 
ENDBRANCH  30  33
ENDBRANCH  25  27
BRANCH  26  35
ATOM     35  N   UNL     1       3.718  -0.976  -3.155  0.00  0.00    -0.172 N 
ATOM     36  C   UNL     1       4.977  -0.565  -2.905  0.00  0.00    +0.420 C 
ATOM     37  O   UNL     1       5.652  -0.096  -3.801  0.00  0.00    -0.225 OA
ATOM     38  H   UNL     1       3.350  -0.897  -4.049  0.00  0.00    +0.181 HD
BRANCH  36  39
ATOM     39  O   UNL     1       5.488  -0.675  -1.664  0.00  0.00    -0.453 OA
ATOM     40  C   UNL     1       6.850  -0.213  -1.468  0.00  0.00    +0.282 C 
ENDBRANCH  36  39
ENDBRANCH  26  35
ENDBRANCH   1  25
TORSDOF 9
