REMARK  Name = ZINC08791655
REMARK  10 active torsions:
REMARK  status: ('A' for Active; 'I' for Inactive)
REMARK    1  A    between atoms: C_1  and  C_2
REMARK    2  A    between atoms: C_2  and  C_3
REMARK    3  A    between atoms: C_3  and  C_4
REMARK    4  A    between atoms: C_4  and  C_5
REMARK    5  A    between atoms: C_5  and  C_6
REMARK    6  A    between atoms: C_6  and  N_7
REMARK    7  A    between atoms: C_8  and  C_10
REMARK    8  A    between atoms: C_10  and  C_12
REMARK    9  A    between atoms: C_10  and  N_13
REMARK   10  A    between atoms: C_14  and  C_16
REMARK                            x       y       z     vdW  Elec       q    Type
REMARK                         _______ _______ _______ _____ _____    ______ ____
ROOT
ATOM      1  C   UNL     1      -0.013   1.086   0.008  0.00  0.00    +0.167 C 
ATOM      2  C   UNL     1      -0.772   1.603  -1.223  0.00  0.00    +0.069 C 
ATOM      3  C   UNL     1      -1.241   3.016  -0.991  0.00  0.00    -0.015 A 
ATOM      4  C   UNL     1      -1.718   3.958  -1.987  0.00  0.00    +0.003 A 
ATOM      5  C   UNL     1      -1.875   3.866  -3.373  0.00  0.00    +0.010 A 
ATOM      6  C   UNL     1      -2.366   4.976  -4.017  0.00  0.00    +0.001 A 
ATOM      7  C   UNL     1      -2.692   6.137  -3.336  0.00  0.00    +0.002 A 
ATOM      8  C   UNL     1      -2.546   6.255  -1.964  0.00  0.00    +0.026 A 
ATOM      9  C   UNL     1      -2.050   5.144  -1.285  0.00  0.00    +0.047 A 
ATOM     10  N   UNL     1      -1.789   4.920   0.036  0.00  0.00    -0.356 N 
ATOM     11  H   UNL     1      -1.927   5.563   0.749  0.00  0.00    +0.166 HD
ATOM     12  C   UNL     1      -1.300   3.652   0.201  0.00  0.00    +0.046 A 
ATOM     13  C   UNL     1      -0.873   3.010   1.498  0.00  0.00    +0.155 C 
ATOM     14  N   UNL     1      -0.715   1.567   1.202  0.00  0.00    -0.273 N 
ATOM     15  C   UNL     1      -1.370   0.877   2.172  0.00  0.00    +0.248 C 
ATOM     16  O   UNL     1      -1.280  -0.322   2.351  0.00  0.00    -0.270 OA
ATOM     17  C   UNL     1      -2.182   1.793   2.979  0.00  0.00    +0.042 A 
ATOM     18  C   UNL     1      -1.916   3.112   2.558  0.00  0.00    -0.009 A 
ATOM     19  C   UNL     1      -2.570   4.190   3.110  0.00  0.00    +0.006 A 
ATOM     20  C   UNL     1      -3.498   3.923   4.113  0.00  0.00    +0.000 A 
ATOM     21  C   UNL     1      -3.755   2.636   4.541  0.00  0.00    +0.001 A 
ATOM     22  C   UNL     1      -3.110   1.538   3.991  0.00  0.00    +0.013 A 
ENDROOT
BRANCH   1  24
ATOM     23  N   UNL     1       2.224   1.311  -1.023  0.00  0.00    -0.303 N 
ATOM     24  C   UNL     1       1.398   1.615  -0.003  0.00  0.00    +0.235 C 
ATOM     25  O   UNL     1       1.790   2.315   0.907  0.00  0.00    -0.274 OA
ATOM     26  H   UNL     1       1.911   0.752  -1.751  0.00  0.00    +0.149 HD
BRANCH  23  27
ATOM     27  C   UNL     1       3.596   1.826  -1.033  0.00  0.00    +0.156 C 
ATOM     28  C   UNL     1       4.497   0.895  -0.220  0.00  0.00    +0.038 C 
BRANCH  27  30
ATOM     29  N   UNL     1       5.342   2.341  -2.708  0.00  0.00    -0.314 N 
ATOM     30  C   UNL     1       4.096   1.894  -2.453  0.00  0.00    +0.233 C 
ATOM     31  O   UNL     1       3.378   1.547  -3.367  0.00  0.00    -0.274 OA
ATOM     32  H   UNL     1       5.917   2.619  -1.978  0.00  0.00    +0.149 HD
BRANCH  29  33
ATOM     33  C   UNL     1       5.828   2.408  -4.088  0.00  0.00    +0.104 C 
BRANCH  33  34
ATOM     34  C   UNL     1       7.261   2.945  -4.099  0.00  0.00    +0.019 C 
BRANCH  34  35
ATOM     35  C   UNL     1       7.769   3.015  -5.541  0.00  0.00    +0.002 C 
BRANCH  35  36
ATOM     36  C   UNL     1       9.201   3.552  -5.552  0.00  0.00    -0.000 C 
BRANCH  36  38
ATOM     37  C   UNL     1      11.141   4.159  -7.004  0.00  0.00    +0.004 C 
ATOM     38  C   UNL     1       9.709   3.622  -6.993  0.00  0.00    -0.003 C 
ENDBRANCH  36  38
ENDBRANCH  35  36
ENDBRANCH  34  35
ENDBRANCH  33  34
ENDBRANCH  29  33
ENDBRANCH  27  30
ENDBRANCH  23  27
ENDBRANCH   1  24
TORSDOF 8
