REMARK  Name = ZINC27099996
REMARK  9 active torsions:
REMARK  status: ('A' for Active; 'I' for Inactive)
REMARK    1  A    between atoms: C_1  and  C_2
REMARK    2  A    between atoms: C_2  and  O_3
REMARK    3  A    between atoms: O_3  and  C_4
REMARK    4  A    between atoms: C_4  and  C_6
REMARK    5  A    between atoms: C_9  and  O_12
REMARK    6  A    between atoms: O_12  and  C_13
REMARK    7  A    between atoms: C_22  and  O_37
REMARK    8  A    between atoms: C_23  and  C_24
REMARK    9  A    between atoms: C_24  and  N_25
REMARK                            x       y       z     vdW  Elec       q    Type
REMARK                         _______ _______ _______ _____ _____    ______ ____
ROOT
ATOM      1  C   UNL     1       2.342   4.101   0.106  0.00  0.00    +0.210 A 
ATOM      2  C   UNL     1       3.502   3.414   0.090  0.00  0.00    +0.245 A 
ATOM      3  O   UNL     1       4.697   4.010   0.182  0.00  0.00    -0.459 OA
ATOM      4  C   UNL     1       4.832   5.347   0.298  0.00  0.00    +0.147 A 
ATOM      5  C   UNL     1       3.688   6.164   0.324  0.00  0.00    +0.068 A 
ATOM      6  C   UNL     1       2.367   5.520   0.219  0.00  0.00    +0.235 A 
ATOM      7  O   UNL     1       1.338   6.175   0.232  0.00  0.00    -0.283 OA
ATOM      8  C   UNL     1       3.814   7.548   0.443  0.00  0.00    +0.019 A 
ATOM      9  C   UNL     1       5.056   8.110   0.534  0.00  0.00    +0.046 A 
ATOM     10  C   UNL     1       6.195   7.308   0.508  0.00  0.00    +0.125 A 
ATOM     11  C   UNL     1       6.087   5.932   0.391  0.00  0.00    +0.051 A 
ENDROOT
BRANCH  10  12
ATOM     12  O   UNL     1       7.423   7.880   0.599  0.00  0.00    -0.506 OA
ATOM     13  H   UNL     1       8.326   7.252   0.578  0.00  0.00    +0.292 HD
ENDBRANCH  10  12
BRANCH   1  14
ATOM     14  O   UNL     1       1.154   3.442   0.009  0.00  0.00    -0.449 OA
BRANCH  14  18
ATOM     15  C   UNL     1       1.216  -0.684   0.067  0.00  0.00    +0.059 A 
ATOM     16  C   UNL     1       1.567   0.038   1.211  0.00  0.00    +0.018 A 
ATOM     17  C   UNL     1       1.546   1.414   1.188  0.00  0.00    +0.047 A 
ATOM     18  C   UNL     1       1.175   2.086   0.028  0.00  0.00    +0.129 A 
ATOM     19  C   UNL     1       0.824   1.371  -1.112  0.00  0.00    +0.047 A 
ATOM     20  C   UNL     1       0.844  -0.005  -1.097  0.00  0.00    +0.018 A 
BRANCH  15  21
ATOM     21  C   UNL     1       1.238  -2.159   0.087  0.00  0.00    +0.339 C 
ATOM     22  O   UNL     1       1.562  -2.747   1.099  0.00  0.00    -0.245 OA
BRANCH  21  23
ATOM     23  O   UNL     1       0.899  -2.853  -1.017  0.00  0.00    -0.461 OA
BRANCH  23  25
ATOM     24  C   UNL     1       0.529  -4.911  -2.265  0.00  0.00    +0.048 C 
ATOM     25  C   UNL     1       0.944  -4.301  -0.924  0.00  0.00    +0.229 C 
ENDBRANCH  23  25
ENDBRANCH  21  23
ENDBRANCH  15  21
ENDBRANCH  14  18
ENDBRANCH   1  14
BRANCH  11  26
ATOM     26  C   UNL     1       7.326   5.075   0.363  0.00  0.00    +0.127 C 
BRANCH  26  27
ATOM     27  N   UNL     1       7.777   4.911  -1.025  0.00  0.00    -0.295 NA
ATOM     28  C   UNL     1       6.803   4.137  -1.807  0.00  0.00    +0.103 C 
ATOM     29  C   UNL     1       7.270   4.056  -3.262  0.00  0.00    +0.122 C 
ATOM     30  N   UNL     1       8.599   3.430  -3.313  0.00  0.00    -0.314 N 
ATOM     31  C   UNL     1       9.573   4.204  -2.531  0.00  0.00    +0.122 C 
ATOM     32  C   UNL     1       9.106   4.285  -1.076  0.00  0.00    +0.103 C 
ATOM     33  C   UNL     1       9.026   3.275  -4.627  0.00  0.00    +0.099 A 
ATOM     34  C   UNL     1       8.238   2.568  -5.529  0.00  0.00    +0.042 A 
ATOM     35  C   UNL     1       8.675   2.420  -6.833  0.00  0.00    +0.005 A 
ATOM     36  C   UNL     1       9.890   2.987  -7.193  0.00  0.00    +0.018 A 
ATOM     37  C   UNL     1      10.622   3.676  -6.246  0.00  0.00    +0.084 A 
ATOM     38  N   UNL     1      10.177   3.805  -5.010  0.00  0.00    -0.350 N 
ATOM     39  H   UNL     1      10.789   4.370  -4.291  0.00  0.00    +0.166 HD
ENDBRANCH  26  27
ENDBRANCH  11  26
TORSDOF 8
