REMARK  Name = ZINC06883592
REMARK  5 active torsions:
REMARK  status: ('A' for Active; 'I' for Inactive)
REMARK    1  A    between atoms: C_3  and  N_26
REMARK    2  A    between atoms: C_6  and  C_7
REMARK    3  A    between atoms: C_10  and  C_12
REMARK    4  A    between atoms: N_14  and  C_15
REMARK    5  A    between atoms: C_16  and  C_24
REMARK                            x       y       z     vdW  Elec       q    Type
REMARK                         _______ _______ _______ _____ _____    ______ ____
ROOT
ATOM      1  C   UNL     1      -2.276   7.221  -2.923  0.00  0.00    +0.284 C 
ATOM      2  O   UNL     1      -2.257   6.336  -3.759  0.00  0.00    -0.266 OA
ATOM      3  N   UNL     1      -1.963   6.945  -1.642  0.00  0.00    -0.272 N 
ATOM      4  H   UNL     1      -1.978   7.651  -0.976  0.00  0.00    +0.156 HD
ENDROOT
BRANCH   3   5
ATOM      5  C   UNL     1      -1.619   5.653  -1.275  0.00  0.00    +0.090 A 
ATOM      6  C   UNL     1      -1.270   5.178  -0.019  0.00  0.00    +0.084 A 
ATOM      7  C   UNL     1      -0.951   3.765   0.100  0.00  0.00    -0.018 A 
ATOM      8  C   UNL     1      -1.032   3.059  -1.049  0.00  0.00    -0.004 A 
ATOM      9  S   UNL     1      -1.523   4.240  -2.273  0.00  0.00    -0.077 S 
ATOM     10  C   UNL     1      -0.761   1.597  -1.232  0.00  0.00    +0.043 C 
ATOM     11  C   UNL     1      -0.013   1.086   0.008  0.00  0.00    +0.005 C 
ATOM     12  C   UNL     1      -0.735   1.583   1.264  0.00  0.00    +0.005 C 
ATOM     13  C   UNL     1      -0.552   3.093   1.408  0.00  0.00    +0.037 C 
BRANCH   6  14
ATOM     14  C   UNL     1      -1.225   6.047   1.118  0.00  0.00    +0.102 C 
ATOM     15  N   UNL     1      -1.189   6.737   2.020  0.00  0.00    -0.191 NA
ENDBRANCH   6  14
ENDBRANCH   3   5
BRANCH   1  19
ATOM     16  C   UNL     1      -3.064  10.739  -3.191  0.00  0.00    +0.136 A 
ATOM     17  C   UNL     1      -3.248  10.373  -4.494  0.00  0.00    +0.050 A 
ATOM     18  C   UNL     1      -2.973   9.005  -4.580  0.00  0.00    +0.055 A 
ATOM     19  C   UNL     1      -2.638   8.586  -3.311  0.00  0.00    +0.190 A 
ATOM     20  O   UNL     1      -2.697   9.655  -2.488  0.00  0.00    -0.450 OA
BRANCH  16  26
ATOM     21  C   UNL     1      -3.619  13.149  -3.486  0.00  0.00    +0.014 A 
ATOM     22  C   UNL     1      -3.785  14.417  -2.970  0.00  0.00    +0.033 A 
ATOM     23  C   UNL     1      -3.566  14.653  -1.624  0.00  0.00    +0.126 A 
ATOM     24  C   UNL     1      -3.184  13.620  -0.787  0.00  0.00    +0.033 A 
ATOM     25  C   UNL     1      -3.019  12.346  -1.289  0.00  0.00    +0.014 A 
ATOM     26  C   UNL     1      -3.239  12.100  -2.646  0.00  0.00    +0.017 A 
BRANCH  23  27
ATOM     27  N   UNL     1      -3.741  16.018  -1.077  0.00  0.00    +0.056 N 
ATOM     28  O   UNL     1      -3.549  16.229   0.107  0.00  0.00    -0.126 OA
ATOM     29  O   UNL     1      -4.077  16.929  -1.812  0.00  0.00    -0.126 OA
ENDBRANCH  23  27
ENDBRANCH  16  26
ENDBRANCH   1  19
TORSDOF 5
