REMARK  Name = ZINC12183496
REMARK  2 active torsions:
REMARK  status: ('A' for Active; 'I' for Inactive)
REMARK    1  A    between atoms: C_4  and  C_7
REMARK    2  A    between atoms: C_7  and  C_10
REMARK                            x       y       z     vdW  Elec       q    Type
REMARK                         _______ _______ _______ _____ _____    ______ ____
ROOT
ATOM      1  C   UNL     1      -4.342   7.381   3.545  0.00  0.00    +0.226 C 
ATOM      2  O   UNL     1      -4.207   7.073   4.710  0.00  0.00    -0.275 OA
ATOM      3  N   UNL     1      -3.478   6.918   2.620  0.00  0.00    -0.300 N 
ATOM      4  C   UNL     1      -2.313   6.117   3.019  0.00  0.00    +0.113 C 
ATOM      5  C   UNL     1      -2.319   4.809   2.224  0.00  0.00    +0.088 C 
ATOM      6  C   UNL     1      -2.377   5.127   0.726  0.00  0.00    +0.181 C 
ATOM      7  C   UNL     1      -3.673   5.883   0.419  0.00  0.00    +0.088 C 
ATOM      8  C   UNL     1      -3.684   7.205   1.194  0.00  0.00    +0.113 C 
ATOM      9  N   UNL     1      -1.231   5.965   0.366  0.00  0.00    -0.274 N 
ATOM     10  C   UNL     1      -0.048   5.393   0.043  0.00  0.00    +0.250 C 
ATOM     11  O   UNL     1       0.932   6.071  -0.202  0.00  0.00    -0.270 OA
ATOM     12  C   UNL     1       0.013   3.918  -0.001  0.00  0.00    +0.078 A 
ATOM     13  C   UNL     1       1.225   3.234  -0.014  0.00  0.00    +0.017 A 
ATOM     14  C   UNL     1       1.225   1.854  -0.055  0.00  0.00    +0.001 A 
ATOM     15  C   UNL     1       0.029   1.154  -0.083  0.00  0.00    +0.004 A 
ATOM     16  C   UNL     1      -1.179   1.825  -0.075  0.00  0.00    +0.046 A 
ATOM     17  C   UNL     1      -1.197   3.207  -0.029  0.00  0.00    +0.135 A 
ATOM     18  O   UNL     1      -2.360   3.904  -0.014  0.00  0.00    -0.468 OA
ATOM     19  H   UNL     1      -1.321   6.930   0.358  0.00  0.00    +0.153 HD
ENDROOT
BRANCH   1  20
ATOM     20  C   UNL     1      -5.477   8.283   3.131  0.00  0.00    +0.072 C 
ATOM     21  C   UNL     1      -6.862   7.985   3.710  0.00  0.00    +0.022 C 
ATOM     22  C   UNL     1      -6.566   7.683   2.239  0.00  0.00    +0.022 C 
BRANCH  20  26
ATOM     23  C   UNL     1      -4.440  12.378   2.497  0.00  0.00    +0.000 A 
ATOM     24  C   UNL     1      -3.732  11.619   3.410  0.00  0.00    +0.000 A 
ATOM     25  C   UNL     1      -4.068  10.294   3.615  0.00  0.00    +0.004 A 
ATOM     26  C   UNL     1      -5.112   9.727   2.908  0.00  0.00    -0.032 A 
ATOM     27  C   UNL     1      -5.816  10.485   1.991  0.00  0.00    +0.004 A 
ATOM     28  C   UNL     1      -5.484  11.812   1.790  0.00  0.00    +0.000 A 
ENDBRANCH  20  26
ENDBRANCH   1  20
TORSDOF 2
