REMARK  Name = ZINC09162975
REMARK  14 active torsions:
REMARK  status: ('A' for Active; 'I' for Inactive)
REMARK    1  A    between atoms: C_1  and  C_2
REMARK    2  A    between atoms: C_2  and  C_4
REMARK    3  A    between atoms: C_2  and  S_16
REMARK    4  A    between atoms: N_6  and  C_7
REMARK    5  A    between atoms: C_10  and  N_13
REMARK    6  A    between atoms: N_13  and  C_14
REMARK    7  A    between atoms: N_13  and  C_15
REMARK    8  A    between atoms: S_16  and  C_17
REMARK    9  A    between atoms: C_20  and  C_23
REMARK   10  A    between atoms: N_21  and  N_22
REMARK   11  A    between atoms: C_26  and  C_29
REMARK   12  A    between atoms: C_29  and  C_30
REMARK   13  A    between atoms: C_29  and  C_31
REMARK   14  A    between atoms: C_29  and  C_32
REMARK                            x       y       z     vdW  Elec       q    Type
REMARK                         _______ _______ _______ _____ _____    ______ ____
ROOT
ATOM      1  C   UNL     1       2.647  -0.095  -0.882  0.00  0.00    +0.209 A 
ATOM      2  N   UNL     1       2.066  -1.100  -1.497  0.00  0.00    -0.121 NA
ATOM      3  N   UNL     1       2.878  -1.632  -2.339  0.00  0.00    -0.127 NA
ATOM      4  C   UNL     1       4.028  -0.999  -2.313  0.00  0.00    +0.182 A 
ATOM      5  N   UNL     1       3.913   0.009  -1.383  0.00  0.00    -0.224 N 
ENDROOT
BRANCH   4   6
ATOM      6  C   UNL     1       5.219  -1.306  -3.133  0.00  0.00    +0.021 A 
ATOM      7  C   UNL     1       6.460  -0.764  -2.797  0.00  0.00    +0.012 A 
ATOM      8  C   UNL     1       7.569  -1.059  -3.563  0.00  0.00    +0.005 A 
ATOM      9  C   UNL     1       7.450  -1.883  -4.669  0.00  0.00    -0.042 A 
ATOM     10  C   UNL     1       6.222  -2.419  -5.011  0.00  0.00    +0.005 A 
ATOM     11  C   UNL     1       5.106  -2.136  -4.250  0.00  0.00    +0.012 A 
BRANCH   9  12
ATOM     12  C   UNL     1       8.665  -2.196  -5.505  0.00  0.00    -0.013 C 
ATOM     13  C   UNL     1       8.435  -1.715  -6.939  0.00  0.00    +0.015 C 
ATOM     14  C   UNL     1       9.885  -1.485  -4.917  0.00  0.00    +0.015 C 
ATOM     15  C   UNL     1       8.906  -3.707  -5.506  0.00  0.00    +0.015 C 
ENDBRANCH   9  12
ENDBRANCH   4   6
BRANCH   5  16
ATOM     16  N   UNL     1       4.868   0.920  -1.032  0.00  0.00    -0.295 N 
ATOM     17  H   UNL     1       5.434   0.577  -0.271  0.00  0.00    +0.163 HD
ATOM     18  H   UNL     1       5.441   1.168  -1.825  0.00  0.00    +0.163 HD
ENDBRANCH   5  16
BRANCH   1  19
ATOM     19  S   UNL     1       1.925   0.932   0.354  0.00  0.00    -0.072 S 
BRANCH  19  21
ATOM     20  C   UNL     1      -0.457   0.388  -0.866  0.00  0.00    +0.029 C 
ATOM     21  C   UNL     1       0.279   0.188   0.460  0.00  0.00    +0.137 C 
BRANCH  21  22
ATOM     22  C   UNL     1      -0.499   0.844   1.571  0.00  0.00    +0.230 C 
ATOM     23  O   UNL     1      -0.222   1.972   1.921  0.00  0.00    -0.274 OA
ATOM     24  N   UNL     1      -1.502   0.178   2.176  0.00  0.00    -0.285 N 
ATOM     25  H   UNL     1      -1.771  -0.695   1.849  0.00  0.00    +0.155 HD
BRANCH  24  26
ATOM     26  C   UNL     1      -2.157   0.747   3.277  0.00  0.00    +0.034 A 
ATOM     27  C   UNL     1      -1.446   1.524   4.182  0.00  0.00    +0.025 A 
ATOM     28  C   UNL     1      -2.091   2.088   5.264  0.00  0.00    +0.025 A 
ATOM     29  C   UNL     1      -3.450   1.870   5.453  0.00  0.00    +0.029 A 
ATOM     30  C   UNL     1      -4.160   1.088   4.551  0.00  0.00    +0.025 A 
ATOM     31  C   UNL     1      -3.515   0.528   3.467  0.00  0.00    +0.025 A 
BRANCH  29  32
ATOM     32  N   UNL     1      -4.103   2.438   6.552  0.00  0.00    -0.336 N 
ATOM     33  C   UNL     1      -5.530   2.183   6.768  0.00  0.00    +0.129 C 
ATOM     34  C   UNL     1      -3.361   3.288   7.487  0.00  0.00    +0.129 C 
ENDBRANCH  29  32
ENDBRANCH  24  26
ENDBRANCH  21  22
ENDBRANCH  19  21
ENDBRANCH   1  19
TORSDOF 8
