REMARK  Name = ZINC15387747
REMARK  7 active torsions:
REMARK  status: ('A' for Active; 'I' for Inactive)
REMARK    1  A    between atoms: C_3  and  S_6
REMARK    2  A    between atoms: S_6  and  N_9
REMARK    3  A    between atoms: N_9  and  C_10
REMARK    4  A    between atoms: C_13  and  C_16
REMARK    5  A    between atoms: N_18  and  C_19
REMARK    6  A    between atoms: C_19  and  C_20
REMARK    7  A    between atoms: C_20  and  N_62
REMARK                            x       y       z     vdW  Elec       q    Type
REMARK                         _______ _______ _______ _____ _____    ______ ____
ROOT
ATOM      1  C   UNL     1       1.570   3.080   0.216  0.00  0.00    +0.244 C 
ATOM      2  O   UNL     1       0.579   3.782   0.156  0.00  0.00    -0.270 OA
ATOM      3  N   UNL     1       2.796   3.641   0.199  0.00  0.00    -0.313 N 
ATOM      4  H   UNL     1       3.586   3.081   0.247  0.00  0.00    +0.149 HD
ENDROOT
BRANCH   1   8
ATOM      5  C   UNL     1       1.171  -1.139   0.481  0.00  0.00    +0.048 A 
ATOM      6  C   UNL     1       0.035  -0.337   0.412  0.00  0.00    +0.025 A 
ATOM      7  C   UNL     1       0.162   1.030   0.326  0.00  0.00    +0.015 A 
ATOM      8  C   UNL     1       1.432   1.614   0.308  0.00  0.00    +0.037 A 
ATOM      9  C   UNL     1       2.570   0.806   0.377  0.00  0.00    +0.015 A 
ATOM     10  C   UNL     1       2.438  -0.561   0.463  0.00  0.00    +0.025 A 
BRANCH   5  11
ATOM     11  N   UNL     1       1.040  -2.521   0.568  0.00  0.00    -0.216 N 
ATOM     12  H   UNL     1       1.195  -2.970   1.414  0.00  0.00    +0.174 HD
BRANCH  11  13
ATOM     13  S   UNL     1       0.621  -3.399  -0.772  0.00  0.00    +0.079 S 
ATOM     14  O   UNL     1       0.606  -4.763  -0.374  0.00  0.00    -0.149 OA
ATOM     15  O   UNL     1      -0.513  -2.758  -1.339  0.00  0.00    -0.149 OA
BRANCH  13  18
ATOM     16  C   UNL     1       3.908  -3.708  -3.134  0.00  0.00    +0.010 A 
ATOM     17  C   UNL     1       2.993  -4.044  -2.153  0.00  0.00    +0.036 A 
ATOM     18  C   UNL     1       1.932  -3.229  -1.937  0.00  0.00    +0.146 A 
ATOM     19  S   UNL     1       2.202  -1.943  -3.145  0.00  0.00    -0.077 S 
ATOM     20  C   UNL     1       3.716  -2.573  -3.850  0.00  0.00    +0.047 A 
ENDBRANCH  13  18
ENDBRANCH  11  13
ENDBRANCH   5  11
ENDBRANCH   1   8
BRANCH   3  21
ATOM     21  C   UNL     1       2.933   5.097   0.107  0.00  0.00    +0.092 C 
BRANCH  21  22
ATOM     22  C   UNL     1       4.410   5.460  -0.064  0.00  0.00    -0.050 C 
ATOM     23  C   UNL     1       5.231   4.793   1.042  0.00  0.00    -0.010 C 
ATOM     24  C   UNL     1       4.740   5.281   2.406  0.00  0.00    -0.001 C 
ATOM     25  C   UNL     1       4.906   6.800   2.494  0.00  0.00    -0.000 C 
ATOM     26  C   UNL     1       4.085   7.467   1.388  0.00  0.00    -0.001 C 
ATOM     27  C   UNL     1       4.575   6.978   0.024  0.00  0.00    -0.010 C 
BRANCH  22  33
ATOM     28  C   UNL     1       4.090   5.582  -2.461  0.00  0.00    -0.078 C 
ATOM     29  C   UNL     1       4.697   5.188  -3.809  0.00  0.00    -0.019 C 
ATOM     30  C   UNL     1       4.707   3.662  -3.932  0.00  0.00    -0.004 C 
ATOM     31  C   UNL     1       5.496   3.068  -2.762  0.00  0.00    -0.019 C 
ATOM     32  C   UNL     1       4.865   3.524  -1.444  0.00  0.00    -0.078 C 
ATOM     33  N   UNL     1       4.909   5.000  -1.376  0.00  0.00    +0.384 N 
ATOM     34  H   UNL     1       5.881   5.310  -1.491  0.00  0.00    -0.081 HD
ENDBRANCH  22  33
ENDBRANCH  21  22
ENDBRANCH   3  21
TORSDOF 7
