REMARK  Name = ZINC09510701
REMARK  13 active torsions:
REMARK  status: ('A' for Active; 'I' for Inactive)
REMARK    1  A    between atoms: C_1  and  C_2
REMARK    2  A    between atoms: C_2  and  O_3
REMARK    3  A    between atoms: O_3  and  C_4
REMARK    4  A    between atoms: C_4  and  C_5
REMARK    5  A    between atoms: C_5  and  N_6
REMARK    6  A    between atoms: C_9  and  C_36
REMARK    7  A    between atoms: C_10  and  C_35
REMARK    8  A    between atoms: N_15  and  C_16
REMARK    9  A    between atoms: C_16  and  C_18
REMARK   10  A    between atoms: C_21  and  S_24
REMARK   11  A    between atoms: S_24  and  N_27
REMARK   12  A    between atoms: N_27  and  C_28
REMARK   13  A    between atoms: N_27  and  C_29
REMARK                            x       y       z     vdW  Elec       q    Type
REMARK                         _______ _______ _______ _____ _____    ______ ____
ROOT
ATOM      1  C   UNL     1      -3.146  -4.615  -3.565  0.00  0.00    +0.269 C 
ATOM      2  O   UNL     1      -3.714  -4.109  -4.518  0.00  0.00    -0.268 OA
ENDROOT
BRANCH   1  12
ATOM      3  N   UNL     1      -3.545  -1.903  -1.226  0.00  0.00    -0.319 N 
ATOM      4  C   UNL     1      -4.132  -0.654  -1.302  0.00  0.00    +0.058 A 
ATOM      5  C   UNL     1      -4.227   0.341  -0.320  0.00  0.00    +0.030 A 
ATOM      6  C   UNL     1      -4.858   1.533  -0.589  0.00  0.00    -0.046 A 
ATOM      7  C   UNL     1      -5.415   1.786  -1.832  0.00  0.00    -0.046 A 
ATOM      8  C   UNL     1      -5.334   0.820  -2.819  0.00  0.00    +0.020 A 
ATOM      9  C   UNL     1      -4.704  -0.373  -2.551  0.00  0.00    +0.039 A 
ATOM     10  S   UNL     1      -4.378  -1.845  -3.486  0.00  0.00    -0.052 S 
ATOM     11  C   UNL     1      -3.558  -2.722  -2.309  0.00  0.00    +0.167 A 
ATOM     12  N   UNL     1      -3.042  -3.942  -2.415  0.00  0.00    -0.152 NA
ATOM     13  C   UNL     1      -6.101   3.099  -2.105  0.00  0.00    +0.044 C 
ATOM     14  C   UNL     1      -4.945   2.584   0.488  0.00  0.00    +0.044 C 
BRANCH   3  15
ATOM     15  C   UNL     1      -2.905  -2.339   0.017  0.00  0.00    +0.152 C 
BRANCH  15  16
ATOM     16  C   UNL     1      -1.432  -1.925   0.005  0.00  0.00    +0.181 C 
BRANCH  16  17
ATOM     17  O   UNL     1      -1.339  -0.499   0.012  0.00  0.00    -0.378 OA
BRANCH  17  19
ATOM     18  C   UNL     1      -0.019   1.526   0.010  0.00  0.00    +0.034 C 
ATOM     19  C   UNL     1       0.002  -0.004   0.002  0.00  0.00    +0.156 C 
ENDBRANCH  17  19
ENDBRANCH  16  17
ENDBRANCH  15  16
ENDBRANCH   3  15
ENDBRANCH   1  12
BRANCH   1  20
ATOM     20  C   UNL     1      -2.571  -5.975  -3.683  0.00  0.00    +0.039 A 
ATOM     21  C   UNL     1      -1.925  -6.558  -2.593  0.00  0.00    +0.015 A 
ATOM     22  C   UNL     1      -1.391  -7.825  -2.708  0.00  0.00    +0.029 A 
ATOM     23  C   UNL     1      -1.495  -8.517  -3.902  0.00  0.00    +0.106 A 
ATOM     24  C   UNL     1      -2.134  -7.943  -4.987  0.00  0.00    +0.029 A 
ATOM     25  C   UNL     1      -2.678  -6.679  -4.882  0.00  0.00    +0.015 A 
BRANCH  23  26
ATOM     26  S   UNL     1      -0.810 -10.134  -4.042  0.00  0.00    +0.061 S 
ATOM     27  O   UNL     1      -0.560 -10.351  -5.424  0.00  0.00    -0.153 OA
ATOM     28  O   UNL     1       0.211 -10.229  -3.059  0.00  0.00    -0.153 OA
BRANCH  26  29
ATOM     29  N   UNL     1      -1.993 -11.206  -3.601  0.00  0.00    -0.177 NA
ATOM     30  C   UNL     1      -2.909 -11.743  -4.611  0.00  0.00    +0.132 C 
BRANCH  29  31
ATOM     31  C   UNL     1      -2.123 -11.618  -2.202  0.00  0.00    +0.080 C 
ATOM     32  C   UNL     1      -1.942 -13.134  -2.097  0.00  0.00    +0.020 C 
ATOM     33  C   UNL     1      -2.078 -13.564  -0.635  0.00  0.00    +0.002 C 
ATOM     34  C   UNL     1      -3.465 -13.180  -0.117  0.00  0.00    +0.000 C 
ATOM     35  C   UNL     1      -3.646 -11.664  -0.222  0.00  0.00    +0.002 C 
ATOM     36  C   UNL     1      -3.510 -11.234  -1.684  0.00  0.00    +0.020 C 
ENDBRANCH  29  31
ENDBRANCH  26  29
ENDBRANCH  23  26
ENDBRANCH   1  20
TORSDOF 9
