REMARK  Name = ZINC06899761
REMARK  8 active torsions:
REMARK  status: ('A' for Active; 'I' for Inactive)
REMARK    1  A    between atoms: C_1  and  C_2
REMARK    2  A    between atoms: C_2  and  C_22
REMARK    3  A    between atoms: N_5  and  C_9
REMARK    4  A    between atoms: C_9  and  C_10
REMARK    5  A    between atoms: C_25  and  C_28
REMARK    6  A    between atoms: C_28  and  C_29
REMARK    7  A    between atoms: C_28  and  C_30
REMARK    8  A    between atoms: C_28  and  C_31
REMARK                            x       y       z     vdW  Elec       q    Type
REMARK                         _______ _______ _______ _____ _____    ______ ____
ROOT
ATOM      1  C   UNL     1       4.784   4.941   6.679  0.00  0.00    +0.047 C 
ATOM      2  C   UNL     1       4.561   4.987   5.166  0.00  0.00    +0.135 C 
ATOM      3  C   UNL     1       3.480   4.006   4.757  0.00  0.00    +0.251 C 
ATOM      4  O   UNL     1       2.319   4.009   5.104  0.00  0.00    -0.272 OA
ATOM      5  N   UNL     1       4.079   3.129   3.926  0.00  0.00    -0.215 N 
ATOM      6  C   UNL     1       5.376   3.414   3.760  0.00  0.00    +0.310 C 
ATOM      7  O   UNL     1       6.126   2.764   3.059  0.00  0.00    -0.252 OA
ATOM      8  N   UNL     1       5.755   4.504   4.452  0.00  0.00    -0.281 N 
ATOM      9  H   UNL     1       6.643   4.894   4.478  0.00  0.00    +0.152 HD
ENDROOT
BRANCH   2  10
ATOM     10  C   UNL     1       4.206   6.382   4.723  0.00  0.00    -0.015 A 
ATOM     11  C   UNL     1       2.880   6.758   4.620  0.00  0.00    +0.006 A 
ATOM     12  C   UNL     1       2.554   8.040   4.218  0.00  0.00    +0.004 A 
ATOM     13  C   UNL     1       3.554   8.943   3.908  0.00  0.00    -0.042 A 
ATOM     14  C   UNL     1       4.881   8.565   4.006  0.00  0.00    +0.004 A 
ATOM     15  C   UNL     1       5.206   7.285   4.414  0.00  0.00    +0.006 A 
BRANCH  13  16
ATOM     16  C   UNL     1       3.199  10.338   3.464  0.00  0.00    -0.013 C 
ATOM     17  C   UNL     1       3.759  10.585   2.061  0.00  0.00    +0.015 C 
ATOM     18  C   UNL     1       1.678  10.494   3.441  0.00  0.00    +0.015 C 
ATOM     19  C   UNL     1       3.802  11.352   4.438  0.00  0.00    +0.015 C 
ENDBRANCH  13  16
ENDBRANCH   2  10
BRANCH   5  20
ATOM     20  C   UNL     1       3.397   2.001   3.289  0.00  0.00    +0.214 C 
BRANCH  20  21
ATOM     21  C   UNL     1       2.832   2.439   1.962  0.00  0.00    +0.238 C 
ATOM     22  O   UNL     1       3.067   3.552   1.542  0.00  0.00    -0.274 OA
ATOM     23  N   UNL     1       2.067   1.594   1.243  0.00  0.00    -0.270 N 
ATOM     24  C   UNL     1       1.885   0.201   1.674  0.00  0.00    +0.114 C 
ATOM     25  C   UNL     1       2.040  -0.696   0.439  0.00  0.00    +0.024 C 
ATOM     26  C   UNL     1       0.928  -0.364  -0.556  0.00  0.00    +0.038 C 
ATOM     27  C   UNL     1       0.878   1.119  -0.815  0.00  0.00    -0.026 A 
ATOM     28  C   UNL     1       1.433   2.029   0.072  0.00  0.00    +0.039 A 
ATOM     29  C   UNL     1       1.365   3.391  -0.196  0.00  0.00    +0.024 A 
ATOM     30  C   UNL     1       0.747   3.839  -1.346  0.00  0.00    +0.002 A 
ATOM     31  C   UNL     1       0.197   2.932  -2.232  0.00  0.00    +0.000 A 
ATOM     32  C   UNL     1       0.262   1.577  -1.968  0.00  0.00    +0.005 A 
ENDBRANCH  20  21
ENDBRANCH   5  20
TORSDOF 4
