REMARK  Name = ZINC46028626
REMARK  4 active torsions:
REMARK  status: ('A' for Active; 'I' for Inactive)
REMARK    1  A    between atoms: C_1  and  N_2
REMARK    2  A    between atoms: C_8  and  S_9
REMARK    3  A    between atoms: S_9  and  C_10
REMARK    4  A    between atoms: C_10  and  C_11
REMARK                            x       y       z     vdW  Elec       q    Type
REMARK                         _______ _______ _______ _____ _____    ______ ____
ROOT
ATOM      1  C   UNL     1       0.072  -1.470   5.223  0.00  0.00    -0.009 A 
ATOM      2  C   UNL     1       1.253  -1.298   5.877  0.00  0.00    +0.045 A 
ATOM      3  C   UNL     1       1.285  -0.991   7.238  0.00  0.00    +0.124 A 
ATOM      4  C   UNL     1       0.130  -0.855   7.950  0.00  0.00    +0.048 A 
ATOM      5  C   UNL     1      -1.105  -1.025   7.307  0.00  0.00    +0.003 A 
ATOM      6  C   UNL     1      -1.139  -1.331   5.923  0.00  0.00    +0.075 A 
ATOM      7  N   UNL     1      -2.314  -1.489   5.305  0.00  0.00    -0.255 NA
ATOM      8  C   UNL     1      -3.447  -1.361   5.952  0.00  0.00    +0.111 A 
ATOM      9  C   UNL     1      -3.485  -1.055   7.311  0.00  0.00    +0.020 A 
ATOM     10  C   UNL     1      -2.320  -0.893   8.006  0.00  0.00    +0.011 A 
ATOM     11  F   UNL     1       2.474  -0.828   7.857  0.00  0.00    -0.205 F 
ENDROOT
BRANCH   1  12
ATOM     12  C   UNL     1       0.062  -1.801   3.753  0.00  0.00    +0.114 C 
BRANCH  12  13
ATOM     13  S   UNL     1       0.033  -0.266   2.788  0.00  0.00    -0.081 S 
BRANCH  13  21
ATOM     14  C   UNL     1      -0.018   1.461   0.010  0.00  0.00    +0.156 C 
ATOM     15  N   UNL     1       0.002  -0.004   0.002  0.00  0.00    -0.274 N 
ATOM     16  C   UNL     1       0.008  -0.787  -1.095  0.00  0.00    +0.345 A 
ATOM     17  O   UNL     1      -0.001  -0.405  -2.252  0.00  0.00    -0.245 OA
ATOM     18  N   UNL     1       0.027  -2.070  -0.680  0.00  0.00    -0.226 N 
ATOM     19  H   UNL     1       0.036  -2.857  -1.246  0.00  0.00    +0.194 HD
ATOM     20  N   UNL     1       0.033  -2.057   0.722  0.00  0.00    -0.145 NA
ATOM     21  C   UNL     1       0.024  -0.816   1.114  0.00  0.00    +0.192 A 
ENDBRANCH  13  21
ENDBRANCH  12  13
ENDBRANCH   1  12
TORSDOF 3
