REMARK  Name = ZINC02258783
REMARK  5 active torsions:
REMARK  status: ('A' for Active; 'I' for Inactive)
REMARK    1  A    between atoms: C_4  and  C_7
REMARK    2  A    between atoms: C_10  and  C_12
REMARK    3  A    between atoms: C_14  and  C_29
REMARK    4  A    between atoms: C_15  and  N_28
REMARK    5  A    between atoms: C_25  and  C_26
REMARK                            x       y       z     vdW  Elec       q    Type
REMARK                         _______ _______ _______ _____ _____    ______ ____
ROOT
ATOM      1  C   UNL     1      -0.322  -5.409  -0.020  0.00  0.00    +0.142 C 
ATOM      2  C   UNL     1      -1.040  -5.453   1.313  0.00  0.00    +0.081 C 
ATOM      3  C   UNL     1      -2.400  -5.485   1.306  0.00  0.00    +0.108 C 
ATOM      4  N   UNL     1      -3.131  -5.480   0.138  0.00  0.00    -0.242 N 
ATOM      5  C   UNL     1      -4.521  -5.510  -0.040  0.00  0.00    +0.062 A 
ATOM      6  C   UNL     1      -5.578  -5.553   0.858  0.00  0.00    +0.026 A 
ATOM      7  C   UNL     1      -6.877  -5.573   0.389  0.00  0.00    +0.002 A 
ATOM      8  C   UNL     1      -7.127  -5.552  -0.973  0.00  0.00    +0.002 A 
ATOM      9  C   UNL     1      -6.081  -5.510  -1.873  0.00  0.00    +0.025 A 
ATOM     10  C   UNL     1      -4.772  -5.488  -1.410  0.00  0.00    +0.054 A 
ATOM     11  N   UNL     1      -3.542  -5.446  -2.058  0.00  0.00    -0.300 N 
ATOM     12  C   UNL     1      -2.552  -5.441  -1.103  0.00  0.00    +0.115 C 
ATOM     13  C   UNL     1      -1.190  -5.405  -1.260  0.00  0.00    +0.081 C 
ATOM     14  H   UNL     1      -3.405  -5.423  -3.018  0.00  0.00    +0.153 HD
ENDROOT
BRANCH   1  18
ATOM     15  C   UNL     1       1.127  -2.055  -0.086  0.00  0.00    +0.135 A 
ATOM     16  C   UNL     1       2.270  -2.791  -0.084  0.00  0.00    +0.050 A 
ATOM     17  C   UNL     1       1.882  -4.145  -0.059  0.00  0.00    +0.046 A 
ATOM     18  C   UNL     1       0.534  -4.169  -0.048  0.00  0.00    +0.119 A 
ATOM     19  O   UNL     1       0.082  -2.905  -0.058  0.00  0.00    -0.459 OA
BRANCH  15  23
ATOM     20  C   UNL     1       0.890   2.185  -0.150  0.00  0.00    +0.000 A 
ATOM     21  C   UNL     1      -0.269   1.431  -0.129  0.00  0.00    +0.001 A 
ATOM     22  C   UNL     1      -0.200   0.053  -0.108  0.00  0.00    +0.011 A 
ATOM     23  C   UNL     1       1.044  -0.580  -0.109  0.00  0.00    +0.017 A 
ATOM     24  C   UNL     1       2.211   0.187  -0.130  0.00  0.00    +0.011 A 
ATOM     25  C   UNL     1       2.127   1.564  -0.151  0.00  0.00    +0.001 A 
ENDBRANCH  15  23
ENDBRANCH   1  18
BRANCH   3  26
ATOM     26  N   UNL     1      -3.068  -5.526   2.506  0.00  0.00    -0.345 N 
ATOM     27  H   UNL     1      -3.973  -5.871   2.546  0.00  0.00    +0.144 HD
ATOM     28  H   UNL     1      -2.634  -5.208   3.314  0.00  0.00    +0.144 HD
ENDBRANCH   3  26
BRANCH  13  29
ATOM     29  C   UNL     1      -0.604  -5.365  -2.566  0.00  0.00    +0.099 C 
ATOM     30  N   UNL     1      -0.138  -5.333  -3.601  0.00  0.00    -0.191 NA
ENDBRANCH  13  29
BRANCH   2  31
ATOM     31  C   UNL     1      -0.309  -5.461   2.544  0.00  0.00    +0.099 C 
ATOM     32  N   UNL     1       0.272  -5.467   3.521  0.00  0.00    -0.191 NA
ENDBRANCH   2  31
TORSDOF 5
