REMARK  Name = ZINC00809302
REMARK  6 active torsions:
REMARK  status: ('A' for Active; 'I' for Inactive)
REMARK    1  A    between atoms: C_1  and  O_2
REMARK    2  A    between atoms: O_2  and  C_3
REMARK    3  A    between atoms: C_3  and  C_5
REMARK    4  A    between atoms: C_6  and  N_31
REMARK    5  A    between atoms: C_19  and  C_21
REMARK    6  A    between atoms: C_24  and  C_27
REMARK                            x       y       z     vdW  Elec       q    Type
REMARK                         _______ _______ _______ _____ _____    ______ ____
ROOT
ATOM      1  C   UNL     1      -4.865   5.313   0.302  0.00  0.00    +0.105 C 
ATOM      2  C   UNL     1      -4.789   4.003   0.649  0.00  0.00    +0.195 C 
ATOM      3  O   UNL     1      -3.674   3.283   0.435  0.00  0.00    -0.441 OA
ATOM      4  C   UNL     1      -2.498   3.907   0.232  0.00  0.00    +0.152 A 
ATOM      5  C   UNL     1      -1.233   3.177   0.407  0.00  0.00    +0.060 A 
ATOM      6  C   UNL     1      -1.222   1.831   0.780  0.00  0.00    +0.015 A 
ATOM      7  C   UNL     1      -0.020   1.179   0.941  0.00  0.00    +0.001 A 
ATOM      8  C   UNL     1       1.175   1.850   0.725  0.00  0.00    +0.004 A 
ATOM      9  C   UNL     1       1.179   3.177   0.351  0.00  0.00    +0.047 A 
ATOM     10  C   UNL     1      -0.023   3.855   0.188  0.00  0.00    +0.143 A 
ATOM     11  O   UNL     1      -0.039   5.155  -0.177  0.00  0.00    -0.422 OA
ATOM     12  C   UNL     1      -1.189   5.827  -0.341  0.00  0.00    +0.345 A 
ATOM     13  O   UNL     1      -1.148   6.999  -0.671  0.00  0.00    -0.245 OA
ATOM     14  C   UNL     1      -2.440   5.217  -0.141  0.00  0.00    +0.092 A 
ATOM     15  C   UNL     1      -3.700   6.014  -0.340  0.00  0.00    +0.101 C 
ENDROOT
BRANCH  15  16
ATOM     16  C   UNL     1      -3.963   6.172  -1.816  0.00  0.00    -0.035 A 
ATOM     17  C   UNL     1      -4.138   5.054  -2.610  0.00  0.00    +0.005 A 
ATOM     18  C   UNL     1      -4.385   5.198  -3.962  0.00  0.00    +0.012 A 
ATOM     19  C   UNL     1      -4.445   6.461  -4.523  0.00  0.00    +0.055 A 
ATOM     20  C   UNL     1      -4.264   7.578  -3.730  0.00  0.00    +0.012 A 
ATOM     21  C   UNL     1      -4.023   7.434  -2.376  0.00  0.00    +0.005 A 
BRANCH  19  22
ATOM     22  C   UNL     1      -4.708   6.618  -5.998  0.00  0.00    +0.417 C 
ATOM     23  F   UNL     1      -3.492   6.624  -6.691  0.00  0.00    -0.166 F 
ATOM     24  F   UNL     1      -5.496   5.553  -6.448  0.00  0.00    -0.166 F 
ATOM     25  F   UNL     1      -5.380   7.824  -6.226  0.00  0.00    -0.166 F 
ENDBRANCH  19  22
ENDBRANCH  15  16
BRANCH   2  26
ATOM     26  N   UNL     1      -5.872   3.401   1.230  0.00  0.00    -0.329 N 
ATOM     27  H   UNL     1      -6.389   3.875   1.899  0.00  0.00    +0.145 HD
ATOM     28  H   UNL     1      -6.123   2.500   0.972  0.00  0.00    +0.145 HD
ENDBRANCH   2  26
BRANCH   1  29
ATOM     29  C   UNL     1      -6.050   6.024   0.546  0.00  0.00    +0.341 C 
ATOM     30  O   UNL     1      -7.038   5.440   0.954  0.00  0.00    -0.245 OA
BRANCH  29  32
ATOM     31  C   UNL     1      -7.334   8.016   0.597  0.00  0.00    +0.280 C 
ATOM     32  O   UNL     1      -6.095   7.356   0.327  0.00  0.00    -0.465 OA
ENDBRANCH  29  32
ENDBRANCH   1  29
TORSDOF 5
