REMARK  Name = ZINC08782950
REMARK  14 active torsions:
REMARK  status: ('A' for Active; 'I' for Inactive)
REMARK    1  A    between atoms: C_1  and  C_2
REMARK    2  A    between atoms: C_2  and  O_3
REMARK    3  A    between atoms: O_3  and  C_4
REMARK    4  A    between atoms: C_6  and  C_19
REMARK    5  A    between atoms: C_9  and  O_10
REMARK    6  A    between atoms: O_10  and  C_11
REMARK    7  A    between atoms: C_11  and  C_12
REMARK    8  A    between atoms: C_21  and  C_28
REMARK    9  A    between atoms: C_22  and  C_27
REMARK   10  A    between atoms: C_28  and  O_30
REMARK   11  A    between atoms: O_30  and  C_31
REMARK   12  A    between atoms: C_31  and  C_32
REMARK   13  A    between atoms: C_32  and  O_33
REMARK   14  A    between atoms: O_33  and  C_34
REMARK                            x       y       z     vdW  Elec       q    Type
REMARK                         _______ _______ _______ _____ _____    ______ ____
ROOT
ATOM      1  C   UNL     1      -2.489  -3.241   0.422  0.00  0.00    +0.162 A 
ATOM      2  C   UNL     1      -1.162  -3.639   0.416  0.00  0.00    +0.055 A 
ATOM      3  C   UNL     1      -0.817  -4.901   0.862  0.00  0.00    -0.019 A 
ATOM      4  C   UNL     1      -1.794  -5.769   1.315  0.00  0.00    +0.009 A 
ATOM      5  C   UNL     1      -3.120  -5.377   1.324  0.00  0.00    +0.050 A 
ATOM      6  C   UNL     1      -3.472  -4.111   0.883  0.00  0.00    +0.162 A 
ENDROOT
BRANCH   3   7
ATOM      7  C   UNL     1       0.626  -5.333   0.855  0.00  0.00    +0.144 C 
ATOM      8  C   UNL     1       1.124  -5.322   2.286  0.00  0.00    +0.078 C 
ATOM      9  C   UNL     1       1.611  -6.476   2.791  0.00  0.00    +0.021 C 
ATOM     10  N   UNL     1       1.653  -7.614   2.037  0.00  0.00    -0.273 N 
ATOM     11  C   UNL     1       1.227  -7.680   0.769  0.00  0.00    +0.304 C 
ATOM     12  O   UNL     1       1.305  -8.739   0.177  0.00  0.00    -0.252 OA
ATOM     13  N   UNL     1       0.715  -6.611   0.128  0.00  0.00    -0.288 N 
ATOM     14  C   UNL     1       2.116  -6.509   4.211  0.00  0.00    +0.061 C 
ATOM     15  H   UNL     1       2.010  -8.419   2.442  0.00  0.00    +0.156 HD
ATOM     16  H   UNL     1       0.412  -6.681  -0.791  0.00  0.00    +0.151 HD
BRANCH   8  17
ATOM     17  C   UNL     1       1.081  -4.143   3.066  0.00  0.00    +0.339 C 
ATOM     18  O   UNL     1       1.942  -3.293   2.933  0.00  0.00    -0.245 OA
BRANCH  17  19
ATOM     19  O   UNL     1       0.085  -3.960   3.959  0.00  0.00    -0.459 OA
BRANCH  19  20
ATOM     20  C   UNL     1       0.121  -2.761   4.735  0.00  0.00    +0.260 C 
BRANCH  20  21
ATOM     21  C   UNL     1      -1.025  -2.774   5.747  0.00  0.00    +0.200 C 
BRANCH  21  22
ATOM     22  O   UNL     1      -0.822  -3.834   6.684  0.00  0.00    -0.380 OA
ATOM     23  C   UNL     1      -1.894  -4.002   7.614  0.00  0.00    +0.194 C 
ENDBRANCH  21  22
ENDBRANCH  20  21
ENDBRANCH  19  20
ENDBRANCH  17  19
ENDBRANCH   8  17
ENDBRANCH   3   7
BRANCH   1  24
ATOM     24  O   UNL     1      -2.830  -1.999  -0.017  0.00  0.00    -0.489 OA
BRANCH  24  26
ATOM     25  C   UNL     1      -2.358   0.147  -1.023  0.00  0.00    +0.048 C 
ATOM     26  C   UNL     1      -1.788  -1.203  -0.585  0.00  0.00    +0.226 C 
ENDBRANCH  24  26
ENDBRANCH   1  24
BRANCH   6  27
ATOM     27  O   UNL     1      -4.775  -3.723   0.896  0.00  0.00    -0.484 OA
BRANCH  27  28
ATOM     28  C   UNL     1      -5.729  -4.668   1.383  0.00  0.00    +0.264 C 
BRANCH  28  29
ATOM     29  C   UNL     1      -7.109  -4.066   1.323  0.00  0.00    -0.010 A 
ATOM     30  C   UNL     1      -7.605  -3.365   2.406  0.00  0.00    +0.008 A 
ATOM     31  C   UNL     1      -8.868  -2.808   2.350  0.00  0.00    +0.015 A 
ATOM     32  C   UNL     1      -9.642  -2.962   1.213  0.00  0.00    +0.018 A 
ATOM     33  C   UNL     1      -9.147  -3.668   0.131  0.00  0.00    +0.015 A 
ATOM     34  C   UNL     1      -7.881  -4.220   0.187  0.00  0.00    +0.008 A 
ATOM     35 BR   UNL     1     -11.373  -2.206   1.138  0.00  0.00    -0.050 Br
ENDBRANCH  28  29
ENDBRANCH  27  28
ENDBRANCH   6  27
TORSDOF 11
