REMARK  Name = ZINC08834626
REMARK  8 active torsions:
REMARK  status: ('A' for Active; 'I' for Inactive)
REMARK    1  A    between atoms: C_1  and  C_2
REMARK    2  A    between atoms: C_4  and  S_9
REMARK    3  A    between atoms: S_9  and  N_12
REMARK    4  A    between atoms: N_12  and  C_13
REMARK    5  A    between atoms: C_15  and  S_24
REMARK    6  A    between atoms: C_16  and  O_23
REMARK    7  A    between atoms: S_24  and  C_25
REMARK    8  A    between atoms: N_29  and  C_30
REMARK                            x       y       z     vdW  Elec       q    Type
REMARK                         _______ _______ _______ _____ _____    ______ ____
ROOT
ATOM      1  C   UNL     1       2.537   4.706   0.150  0.00  0.00    +0.057 A 
ATOM      2  C   UNL     1       2.511   3.330   0.165  0.00  0.00    +0.044 A 
ATOM      3  C   UNL     1       3.690   2.591   0.032  0.00  0.00    +0.059 A 
ATOM      4  C   UNL     1       4.907   3.227  -0.128  0.00  0.00    +0.138 A 
ATOM      5  C   UNL     1       4.961   4.632  -0.152  0.00  0.00    +0.026 A 
ATOM      6  C   UNL     1       3.766   5.381  -0.011  0.00  0.00    +0.008 A 
ATOM      7  C   UNL     1       3.825   6.784  -0.037  0.00  0.00    +0.010 A 
ATOM      8  C   UNL     1       5.026   7.405  -0.195  0.00  0.00    +0.001 A 
ATOM      9  C   UNL     1       6.202   6.670  -0.333  0.00  0.00    +0.001 A 
ATOM     10  C   UNL     1       6.183   5.309  -0.314  0.00  0.00    +0.012 A 
ENDROOT
BRANCH   1  11
ATOM     11  N   UNL     1       1.352   5.432   0.290  0.00  0.00    -0.216 N 
ATOM     12  H   UNL     1       1.028   5.978  -0.444  0.00  0.00    +0.174 HD
BRANCH  11  13
ATOM     13  S   UNL     1       0.499   5.360   1.707  0.00  0.00    +0.072 S 
ATOM     14  O   UNL     1      -0.601   6.248   1.565  0.00  0.00    -0.150 OA
ATOM     15  O   UNL     1       0.332   3.982   2.012  0.00  0.00    -0.150 OA
BRANCH  13  19
ATOM     16  C   UNL     1       2.242   9.389   4.543  0.00  0.00    +0.047 C 
ATOM     17  C   UNL     1       2.291   7.914   4.239  0.00  0.00    -0.013 A 
ATOM     18  C   UNL     1       1.484   7.386   3.249  0.00  0.00    +0.035 A 
ATOM     19  C   UNL     1       1.529   6.033   2.969  0.00  0.00    +0.109 A 
ATOM     20  C   UNL     1       2.377   5.206   3.682  0.00  0.00    +0.031 A 
ATOM     21  C   UNL     1       3.189   5.733   4.669  0.00  0.00    +0.040 A 
ATOM     22  C   UNL     1       3.144   7.088   4.950  0.00  0.00    +0.126 A 
ATOM     23  F   UNL     1       3.934   7.604   5.917  0.00  0.00    -0.205 F 
ENDBRANCH  13  19
ENDBRANCH  11  13
ENDBRANCH   1  11
BRANCH   4  24
ATOM     24  O   UNL     1       6.047   2.496  -0.261  0.00  0.00    -0.505 OA
ATOM     25  H   UNL     1       6.267   2.274  -1.176  0.00  0.00    +0.292 HD
ENDBRANCH   4  24
BRANCH   3  26
ATOM     26  S   UNL     1       3.623   0.831   0.062  0.00  0.00    -0.044 S 
BRANCH  26  27
ATOM     27  C   UNL     1       4.244   0.529   1.683  0.00  0.00    +0.219 A 
ATOM     28  N   UNL     1       4.710   1.428   2.524  0.00  0.00    -0.101 NA
ATOM     29  N   UNL     1       5.080   0.870   3.619  0.00  0.00    -0.022 NA
ATOM     30  N   UNL     1       4.885  -0.403   3.568  0.00  0.00    -0.038 NA
ATOM     31  N   UNL     1       4.332  -0.680   2.306  0.00  0.00    -0.187 N 
BRANCH  31  32
ATOM     32  C   UNL     1       3.952  -1.930   1.797  0.00  0.00    +0.070 A 
ATOM     33  C   UNL     1       2.844  -2.037   0.968  0.00  0.00    +0.028 A 
ATOM     34  C   UNL     1       2.476  -3.269   0.465  0.00  0.00    +0.002 A 
ATOM     35  C   UNL     1       3.203  -4.398   0.795  0.00  0.00    +0.000 A 
ATOM     36  C   UNL     1       4.305  -4.296   1.624  0.00  0.00    +0.002 A 
ATOM     37  C   UNL     1       4.681  -3.065   2.127  0.00  0.00    +0.028 A 
ENDBRANCH  31  32
ENDBRANCH  26  27
ENDBRANCH   3  26
TORSDOF 7
