REMARK  Name = ZINC20213991
REMARK  8 active torsions:
REMARK  status: ('A' for Active; 'I' for Inactive)
REMARK    1  A    between atoms: C_1  and  C_2
REMARK    2  A    between atoms: C_2  and  O_3
REMARK    3  A    between atoms: O_3  and  C_4
REMARK    4  A    between atoms: C_4  and  C_6
REMARK    5  A    between atoms: C_7  and  C_21
REMARK    6  A    between atoms: C_12  and  C_14
REMARK    7  A    between atoms: C_21  and  N_22
REMARK    8  A    between atoms: N_25  and  C_28
REMARK                            x       y       z     vdW  Elec       q    Type
REMARK                         _______ _______ _______ _____ _____    ______ ____
ROOT
ATOM      1  C   UNL     1       1.617  -2.369   2.308  0.00  0.00    +0.079 C 
ATOM      2  C   UNL     1       1.488  -3.675   2.627  0.00  0.00    +0.038 C 
ATOM      3  N   UNL     1       1.958  -4.160   3.814  0.00  0.00    -0.271 N 
ATOM      4  C   UNL     1       2.568  -3.404   4.736  0.00  0.00    +0.304 C 
ATOM      5  O   UNL     1       2.952  -3.926   5.764  0.00  0.00    -0.252 OA
ATOM      6  N   UNL     1       2.770  -2.083   4.561  0.00  0.00    -0.288 N 
ATOM      7  C   UNL     1       2.306  -1.463   3.308  0.00  0.00    +0.144 C 
ATOM      8  H   UNL     1       1.842  -5.104   4.001  0.00  0.00    +0.156 HD
ATOM      9  H   UNL     1       3.214  -1.554   5.242  0.00  0.00    +0.151 HD
ENDROOT
BRANCH   7  10
ATOM     10  C   UNL     1       3.494  -0.836   2.626  0.00  0.00    -0.022 A 
ATOM     11  C   UNL     1       4.667  -1.553   2.484  0.00  0.00    +0.007 A 
ATOM     12  C   UNL     1       5.758  -0.978   1.858  0.00  0.00    +0.020 A 
ATOM     13  C   UNL     1       5.675   0.315   1.375  0.00  0.00    +0.041 A 
ATOM     14  C   UNL     1       4.500   1.033   1.517  0.00  0.00    +0.020 A 
ATOM     15  C   UNL     1       3.409   0.455   2.138  0.00  0.00    +0.007 A 
ATOM     16 CL   UNL     1       7.044   1.038   0.589  0.00  0.00    -0.084 Cl
ENDBRANCH   7  10
BRANCH   1  17
ATOM     17  C   UNL     1       1.132  -1.865   1.078  0.00  0.00    +0.339 C 
ATOM     18  O   UNL     1       0.697  -2.630   0.237  0.00  0.00    -0.245 OA
BRANCH  17  19
ATOM     19  O   UNL     1       1.152  -0.538   0.838  0.00  0.00    -0.462 OA
BRANCH  19  21
ATOM     20  C   UNL     1       0.750   1.425  -0.515  0.00  0.00    +0.048 C 
ATOM     21  C   UNL     1       0.646  -0.099  -0.425  0.00  0.00    +0.229 C 
ENDBRANCH  19  21
ENDBRANCH  17  19
ENDBRANCH   1  17
BRANCH   2  22
ATOM     22  C   UNL     1       0.814  -4.612   1.658  0.00  0.00    +0.136 C 
BRANCH  22  23
ATOM     23  N   UNL     1       1.798  -5.095   0.680  0.00  0.00    -0.294 NA
ATOM     24  C   UNL     1       2.740  -6.035   1.302  0.00  0.00    +0.103 C 
ATOM     25  C   UNL     1       3.852  -6.375   0.304  0.00  0.00    +0.120 C 
ATOM     26  N   UNL     1       3.232  -6.849  -0.942  0.00  0.00    -0.327 N 
ATOM     27  C   UNL     1       2.179  -6.024  -1.553  0.00  0.00    +0.120 C 
ATOM     28  C   UNL     1       1.133  -5.699  -0.482  0.00  0.00    +0.103 C 
BRANCH  26  29
ATOM     29  C   UNL     1       3.633  -8.051  -1.531  0.00  0.00    +0.031 A 
ATOM     30  C   UNL     1       2.961  -8.539  -2.644  0.00  0.00    +0.023 A 
ATOM     31  C   UNL     1       3.360  -9.727  -3.224  0.00  0.00    +0.003 A 
ATOM     32  C   UNL     1       4.428 -10.432  -2.698  0.00  0.00    +0.020 A 
ATOM     33  C   UNL     1       5.100  -9.948  -1.589  0.00  0.00    +0.043 A 
ATOM     34  C   UNL     1       4.709  -8.757  -1.007  0.00  0.00    +0.043 A 
ATOM     35 CL   UNL     1       6.439 -10.836  -0.931  0.00  0.00    -0.083 Cl
ENDBRANCH  26  29
ENDBRANCH  22  23
ENDBRANCH   2  22
TORSDOF 7
