REMARK  Name = ZINC03073021
REMARK  11 active torsions:
REMARK  status: ('A' for Active; 'I' for Inactive)
REMARK    1  A    between atoms: C_1  and  C_2
REMARK    2  A    between atoms: C_2  and  C_3
REMARK    3  A    between atoms: C_3  and  C_4
REMARK    4  A    between atoms: C_4  and  C_5
REMARK    5  A    between atoms: C_5  and  C_6
REMARK    6  A    between atoms: C_6  and  C_7
REMARK    7  A    between atoms: C_11  and  C_19
REMARK    8  A    between atoms: C_16  and  O_17
REMARK    9  A    between atoms: C_21  and  C_24
REMARK   10  A    between atoms: C_29  and  O_30
REMARK   11  A    between atoms: O_30  and  C_31
REMARK                            x       y       z     vdW  Elec       q    Type
REMARK                         _______ _______ _______ _____ _____    ______ ____
ROOT
ATOM      1  C   UNL     1       2.181  -4.537  -3.772  0.00  0.00    -0.005 A 
ATOM      2  C   UNL     1       3.482  -4.945  -3.696  0.00  0.00    +0.018 A 
ATOM      3  C   UNL     1       4.138  -5.397  -4.847  0.00  0.00    +0.019 A 
ATOM      4  C   UNL     1       5.536  -5.834  -4.790  0.00  0.00    +0.027 A 
ATOM      5  C   UNL     1       6.197  -6.006  -5.983  0.00  0.00    +0.067 A 
ATOM      6  C   UNL     1       5.439  -5.734  -7.223  0.00  0.00    +0.202 A 
ATOM      7  O   UNL     1       4.089  -5.877  -7.189  0.00  0.00    -0.439 OA
ATOM      8  C   UNL     1       3.454  -5.431  -6.077  0.00  0.00    +0.141 A 
ATOM      9  C   UNL     1       2.136  -5.013  -6.137  0.00  0.00    +0.092 A 
ATOM     10  C   UNL     1       1.500  -4.572  -4.986  0.00  0.00    +0.124 A 
ATOM     11  N   UNL     1       6.050  -5.366  -8.318  0.00  0.00    -0.369 N 
ATOM     12  H   UNL     1       7.015  -5.268  -8.326  0.00  0.00    +0.159 HD
ATOM     13  H   UNL     1       5.538  -5.191  -9.124  0.00  0.00    +0.159 HD
ENDROOT
BRANCH   5  14
ATOM     14  C   UNL     1       7.605  -6.443  -6.024  0.00  0.00    +0.114 A 
ATOM     15  N   UNL     1       8.388  -6.651  -7.072  0.00  0.00    -0.239 NA
ATOM     16  C   UNL     1       9.639  -7.045  -6.925  0.00  0.00    +0.082 A 
ATOM     17  C   UNL     1      10.138  -7.243  -5.664  0.00  0.00    +0.075 A 
ATOM     18  S   UNL     1       8.710  -6.825  -4.672  0.00  0.00    -0.075 S 
BRANCH  16  19
ATOM     19  C   UNL     1      10.497  -7.272  -8.114  0.00  0.00    +0.044 A 
ATOM     20  C   UNL     1      11.815  -7.694  -7.955  0.00  0.00    +0.033 A 
ATOM     21  C   UNL     1      12.610  -7.904  -9.065  0.00  0.00    +0.042 A 
ATOM     22  C   UNL     1      12.100  -7.697 -10.336  0.00  0.00    +0.023 A 
ATOM     23  C   UNL     1      10.794  -7.278 -10.503  0.00  0.00    +0.048 A 
ATOM     24  C   UNL     1       9.985  -7.069  -9.398  0.00  0.00    +0.129 A 
ATOM     25 CL   UNL     1      14.252  -8.430  -8.866  0.00  0.00    -0.084 Cl
BRANCH  24  26
ATOM     26  O   UNL     1       8.698  -6.662  -9.563  0.00  0.00    -0.494 OA
ATOM     27  C   UNL     1       8.243  -6.475 -10.904  0.00  0.00    +0.277 C 
ENDBRANCH  24  26
ENDBRANCH  16  19
ENDBRANCH   5  14
BRANCH  10  28
ATOM     28  O   UNL     1       0.206  -4.166  -5.045  0.00  0.00    -0.506 OA
ATOM     29  H   UNL     1       0.097  -3.224  -5.234  0.00  0.00    +0.292 HD
ENDBRANCH  10  28
BRANCH   1  30
ATOM     30  C   UNL     1       1.476  -4.051  -2.532  0.00  0.00    +0.039 C 
BRANCH  30  31
ATOM     31  C   UNL     1       1.455  -2.521  -2.524  0.00  0.00    +0.005 C 
BRANCH  31  32
ATOM     32  C   UNL     1       0.739  -2.027  -1.265  0.00  0.00    +0.000 C 
BRANCH  32  33
ATOM     33  C   UNL     1       0.718  -0.497  -1.257  0.00  0.00    -0.000 C 
BRANCH  33  35
ATOM     34  C   UNL     1      -0.019   1.526   0.010  0.00  0.00    +0.004 C 
ATOM     35  C   UNL     1       0.002  -0.004   0.002  0.00  0.00    -0.003 C 
ENDBRANCH  33  35
ENDBRANCH  32  33
ENDBRANCH  31  32
ENDBRANCH  30  31
ENDBRANCH   1  30
TORSDOF 9
