REMARK  Name = ZINC57930249
REMARK  8 active torsions:
REMARK  status: ('A' for Active; 'I' for Inactive)
REMARK    1  A    between atoms: C_1  and  C_2
REMARK    2  A    between atoms: C_5  and  C_8
REMARK    3  A    between atoms: C_8  and  N_9
REMARK    4  A    between atoms: C_12  and  C_25
REMARK    5  A    between atoms: C_13  and  C_24
REMARK    6  A    between atoms: C_17  and  C_21
REMARK    7  A    between atoms: C_21  and  C_22
REMARK    8  A    between atoms: C_21  and  C_23
REMARK                            x       y       z     vdW  Elec       q    Type
REMARK                         _______ _______ _______ _____ _____    ______ ____
ROOT
ATOM      1  N   UNL     1       1.443  -4.743   0.089  0.00  0.00    -0.264 N 
ATOM      2  C   UNL     1       2.210  -4.917  -1.070  0.00  0.00    +0.058 A 
ATOM      3  C   UNL     1       1.795  -4.387  -2.280  0.00  0.00    +0.029 A 
ATOM      4  C   UNL     1       2.565  -4.574  -3.414  0.00  0.00    -0.046 A 
ATOM      5  C   UNL     1       3.747  -5.288  -3.346  0.00  0.00    -0.046 A 
ATOM      6  C   UNL     1       4.170  -5.821  -2.141  0.00  0.00    +0.028 A 
ATOM      7  C   UNL     1       3.406  -5.634  -1.003  0.00  0.00    +0.050 A 
ATOM      8  N   UNL     1       3.813  -6.151   0.235  0.00  0.00    -0.331 N 
ATOM      9  C   UNL     1       3.402  -5.431   1.450  0.00  0.00    +0.160 C 
ATOM     10  C   UNL     1       1.966  -4.996   1.303  0.00  0.00    +0.241 C 
ATOM     11  O   UNL     1       1.273  -4.876   2.291  0.00  0.00    -0.273 OA
ATOM     12  C   UNL     1       4.576  -5.489  -4.589  0.00  0.00    +0.044 C 
ATOM     13  C   UNL     1       2.112  -3.997  -4.731  0.00  0.00    +0.044 C 
ATOM     14  H   UNL     1       4.350  -6.957   0.289  0.00  0.00    +0.147 HD
ENDROOT
BRANCH   9  15
ATOM     15  C   UNL     1       4.290  -4.200   1.641  0.00  0.00    +0.012 C 
ATOM     16  C   UNL     1       5.749  -4.639   1.779  0.00  0.00    +0.009 C 
ATOM     17  C   UNL     1       4.148  -3.276   0.429  0.00  0.00    +0.009 C 
ENDBRANCH   9  15
BRANCH   1  18
ATOM     18  C   UNL     1       0.059  -4.275  -0.021  0.00  0.00    +0.149 C 
BRANCH  18  23
ATOM     19  C   UNL     1      -3.426  -8.777  -1.012  0.00  0.00    +0.044 C 
ATOM     20  C   UNL     1      -2.517  -7.603  -0.754  0.00  0.00    -0.050 A 
ATOM     21  C   UNL     1      -2.209  -7.239   0.544  0.00  0.00    +0.003 A 
ATOM     22  C   UNL     1      -1.375  -6.163   0.781  0.00  0.00    +0.005 A 
ATOM     23  C   UNL     1      -0.849  -5.450  -0.280  0.00  0.00    -0.030 A 
ATOM     24  C   UNL     1      -1.155  -5.814  -1.578  0.00  0.00    +0.005 A 
ATOM     25  C   UNL     1      -1.986  -6.893  -1.815  0.00  0.00    +0.003 A 
ENDBRANCH  18  23
ENDBRANCH   1  18
TORSDOF 3
