REMARK  Name = ZINC67380714
REMARK  9 active torsions:
REMARK  status: ('A' for Active; 'I' for Inactive)
REMARK    1  A    between atoms: C_1  and  C_2
REMARK    2  A    between atoms: C_2  and  C_4
REMARK    3  A    between atoms: C_2  and  C_21
REMARK    4  A    between atoms: C_4  and  N_5
REMARK    5  A    between atoms: N_5  and  C_6
REMARK    6  A    between atoms: N_9  and  C_10
REMARK    7  A    between atoms: C_10  and  C_11
REMARK    8  A    between atoms: C_14  and  S_17
REMARK    9  A    between atoms: S_17  and  N_20
REMARK                            x       y       z     vdW  Elec       q    Type
REMARK                         _______ _______ _______ _____ _____    ______ ____
ROOT
ATOM      1  N   UNL     1       2.125  -0.091  -1.209  0.00  0.00    -0.288 N 
ATOM      2  C   UNL     1       3.121  -0.971  -0.594  0.00  0.00    +0.133 C 
ATOM      3  C   UNL     1       2.502   1.093  -1.732  0.00  0.00    +0.302 C 
ATOM      4  O   UNL     1       1.675   1.823  -2.242  0.00  0.00    -0.253 OA
ATOM      5  N   UNL     1       3.796   1.467  -1.688  0.00  0.00    -0.295 N 
ATOM      6  H   UNL     1       4.456   0.884  -1.281  0.00  0.00    +0.151 HD
ENDROOT
BRANCH   1   7
ATOM      7  C   UNL     1       0.718  -0.497  -1.257  0.00  0.00    +0.117 C 
BRANCH   7   9
ATOM      8  C   UNL     1      -0.019   1.526   0.010  0.00  0.00    +0.014 C 
ATOM      9  C   UNL     1       0.002  -0.004   0.002  0.00  0.00    +0.033 C 
BRANCH   9  10
ATOM     10  C   UNL     1      -1.412  -0.526   0.013  0.00  0.00    -0.043 A 
ATOM     11  C   UNL     1      -2.276  -0.202  -1.017  0.00  0.00    +0.004 A 
ATOM     12  C   UNL     1      -3.572  -0.681  -1.007  0.00  0.00    +0.000 A 
ATOM     13  C   UNL     1      -4.005  -1.483   0.032  0.00  0.00    +0.000 A 
ATOM     14  C   UNL     1      -3.141  -1.807   1.061  0.00  0.00    +0.000 A 
ATOM     15  C   UNL     1      -1.843  -1.332   1.049  0.00  0.00    +0.004 A 
ENDBRANCH   9  10
ENDBRANCH   7   9
ENDBRANCH   1   7
BRANCH   5  16
ATOM     16  C   UNL     1       4.207   2.753  -2.256  0.00  0.00    +0.141 C 
BRANCH  16  17
ATOM     17  C   UNL     1       5.693   2.929  -2.079  0.00  0.00    -0.030 A 
ATOM     18  C   UNL     1       6.187   3.532  -0.938  0.00  0.00    +0.007 A 
ATOM     19  C   UNL     1       7.550   3.693  -0.776  0.00  0.00    +0.029 A 
ATOM     20  C   UNL     1       8.420   3.251  -1.756  0.00  0.00    +0.105 A 
ATOM     21  C   UNL     1       7.926   2.648  -2.897  0.00  0.00    +0.029 A 
ATOM     22  C   UNL     1       6.563   2.483  -3.057  0.00  0.00    +0.007 A 
BRANCH  20  23
ATOM     23  S   UNL     1      10.157   3.458  -1.550  0.00  0.00    +0.056 S 
ATOM     24  O   UNL     1      10.724   3.453  -2.853  0.00  0.00    -0.153 OA
ATOM     25  O   UNL     1      10.334   4.541  -0.647  0.00  0.00    -0.153 OA
BRANCH  23  26
ATOM     26  N   UNL     1      10.724   2.104  -0.783  0.00  0.00    -0.204 NA
ATOM     27  H   UNL     1      11.630   1.798  -0.946  0.00  0.00    +0.144 HD
ATOM     28  H   UNL     1      10.150   1.618  -0.170  0.00  0.00    +0.144 HD
ENDBRANCH  23  26
ENDBRANCH  20  23
ENDBRANCH  16  17
ENDBRANCH   5  16
TORSDOF 7
