REMARK  Name = ZINC08456511
REMARK  6 active torsions:
REMARK  status: ('A' for Active; 'I' for Inactive)
REMARK    1  A    between atoms: C_1  and  C_2
REMARK    2  A    between atoms: C_7  and  N_12
REMARK    3  A    between atoms: C_9  and  C_11
REMARK    4  A    between atoms: C_13  and  C_15
REMARK    5  A    between atoms: C_15  and  S_16
REMARK    6  A    between atoms: S_16  and  C_17
REMARK                            x       y       z     vdW  Elec       q    Type
REMARK                         _______ _______ _______ _____ _____    ______ ____
ROOT
ATOM      1  C   UNL     1       1.254   5.706  -1.142  0.00  0.00    +0.173 C 
ENDROOT
BRANCH   1   3
ATOM      2  N   UNL     1       1.397   3.520   0.008  0.00  0.00    -0.312 N 
ATOM      3  C   UNL     1       1.275   4.199  -1.150  0.00  0.00    +0.224 C 
ATOM      4  O   UNL     1       1.182   3.597  -2.199  0.00  0.00    -0.275 OA
ATOM      5  H   UNL     1       1.472   4.002   0.846  0.00  0.00    +0.149 HD
BRANCH   2  11
ATOM      6  C   UNL     1       2.894  -0.475  -0.028  0.00  0.00    +0.008 C 
ATOM      7  C   UNL     1       2.178   0.019   1.231  0.00  0.00    -0.009 C 
ATOM      8  C   UNL     1       0.742  -0.511   1.242  0.00  0.00    +0.003 C 
ATOM      9  C   UNL     1       0.002  -0.004   0.002  0.00  0.00    +0.002 C 
ATOM     10  C   UNL     1      -0.019   1.526   0.010  0.00  0.00    +0.022 C 
ATOM     11  C   UNL     1       1.417   2.055  -0.000  0.00  0.00    +0.076 C 
ATOM     12  C   UNL     1       2.157   1.548   1.239  0.00  0.00    +0.009 C 
ATOM     13  C   UNL     1       3.592   2.078   1.228  0.00  0.00    +0.009 C 
ENDBRANCH   2  11
ENDBRANCH   1   3
BRANCH   1  14
ATOM     14  S   UNL     1       1.081   6.316  -2.837  0.00  0.00    -0.078 S 
BRANCH  14  15
ATOM     15  C   UNL     1       1.086   8.053  -2.539  0.00  0.00    +0.170 A 
ATOM     16  N   UNL     1       0.977   8.916  -3.590  0.00  0.00    -0.301 N 
ATOM     17  H   UNL     1       0.901   8.553  -4.518  0.00  0.00    +0.171 HD
ATOM     18  C   UNL     1       0.972  10.249  -3.401  0.00  0.00    +0.260 A 
ATOM     19  O   UNL     1       0.869  11.007  -4.350  0.00  0.00    -0.267 OA
ATOM     20  C   UNL     1       1.094  10.764  -2.072  0.00  0.00    +0.072 A 
ATOM     21  C   UNL     1       1.119  12.145  -1.620  0.00  0.00    +0.023 A 
ATOM     22  C   UNL     1       1.242  12.403  -0.310  0.00  0.00    +0.048 A 
ATOM     23  S   UNL     1       1.336  10.781   0.425  0.00  0.00    -0.077 S 
ATOM     24  C   UNL     1       1.206   9.803  -1.050  0.00  0.00    +0.116 A 
ATOM     25  N   UNL     1       1.199   8.500  -1.305  0.00  0.00    -0.216 NA
ENDBRANCH  14  15
ENDBRANCH   1  14
TORSDOF 4
