REMARK  Name = ZINC11526597
REMARK  6 active torsions:
REMARK  status: ('A' for Active; 'I' for Inactive)
REMARK    1  A    between atoms: C_4  and  N_7
REMARK    2  A    between atoms: C_8  and  C_10
REMARK    3  A    between atoms: C_10  and  N_57
REMARK    4  A    between atoms: C_13  and  N_16
REMARK    5  A    between atoms: C_17  and  C_19
REMARK    6  A    between atoms: C_19  and  C_20
REMARK                            x       y       z     vdW  Elec       q    Type
REMARK                         _______ _______ _______ _____ _____    ______ ____
ROOT
ATOM      1  C   UNL     1       3.037  -5.832  -6.576  0.00  0.00    -0.076 C 
ATOM      2  C   UNL     1       1.929  -4.940  -6.010  0.00  0.00    +0.003 C 
ATOM      3  C   UNL     1       2.318  -4.484  -4.601  0.00  0.00    +0.069 C 
ATOM      4  C   UNL     1       3.659  -3.748  -4.663  0.00  0.00    +0.003 C 
ATOM      5  C   UNL     1       4.717  -4.674  -5.269  0.00  0.00    -0.076 C 
ATOM      6  N   UNL     1       4.295  -5.057  -6.633  0.00  0.00    +0.386 N 
ATOM      7  H   UNL     1       4.136  -4.206  -7.184  0.00  0.00    -0.081 HD
ENDROOT
BRANCH   3   8
ATOM      8  N   UNL     1       1.289  -3.583  -4.076  0.00  0.00    -0.313 N 
ATOM      9  C   UNL     1       1.124  -3.451  -2.745  0.00  0.00    +0.215 C 
ATOM     10  O   UNL     1       1.827  -4.078  -1.982  0.00  0.00    -0.276 OA
ATOM     11  H   UNL     1       0.726  -3.082  -4.687  0.00  0.00    +0.149 HD
BRANCH   9  12
ATOM     12  C   UNL     1       0.065  -2.524  -2.206  0.00  0.00    +0.119 C 
BRANCH  12  13
ATOM     13  C   UNL     1       0.087  -2.559  -0.676  0.00  0.00    +0.146 C 
ATOM     14  C   UNL     1      -1.047  -1.731  -0.133  0.00  0.00    +0.231 C 
ATOM     15  O   UNL     1      -2.063  -2.297   0.213  0.00  0.00    -0.274 OA
ATOM     16  N   UNL     1      -0.988  -0.408  -0.014  0.00  0.00    -0.284 N 
ATOM     17  C   UNL     1       0.120   0.399  -0.253  0.00  0.00    +0.048 A 
ATOM     18  C   UNL     1      -0.058   1.768  -0.424  0.00  0.00    +0.044 A 
ATOM     19  C   UNL     1       1.028   2.589  -0.660  0.00  0.00    +0.043 A 
ATOM     20  C   UNL     1       2.305   2.060  -0.723  0.00  0.00    +0.021 A 
ATOM     21  C   UNL     1       2.497   0.702  -0.546  0.00  0.00    +0.018 A 
ATOM     22  C   UNL     1       1.412  -0.125  -0.308  0.00  0.00    +0.030 A 
ATOM     23  S   UNL     1       1.653  -1.857  -0.071  0.00  0.00    -0.110 S 
ATOM     24 CL   UNL     1       0.788   4.294  -0.879  0.00  0.00    -0.083 Cl
ATOM     25  H   UNL     1      -1.801   0.040   0.268  0.00  0.00    +0.155 HD
ENDBRANCH  12  13
ENDBRANCH   9  12
ENDBRANCH   3   8
BRANCH   6  26
ATOM     26  C   UNL     1       5.352  -5.859  -7.281  0.00  0.00    +0.019 C 
BRANCH  26  28
ATOM     27  N   UNL     1       5.765  -6.821  -9.523  0.00  0.00    -0.287 N 
ATOM     28  C   UNL     1       5.007  -6.029  -8.738  0.00  0.00    +0.201 C 
ATOM     29  O   UNL     1       4.047  -5.454  -9.205  0.00  0.00    -0.278 OA
ATOM     30  H   UNL     1       6.493  -7.333  -9.136  0.00  0.00    +0.155 HD
BRANCH  27  34
ATOM     31  C   UNL     1       4.985  -7.068 -13.607  0.00  0.00    +0.000 A 
ATOM     32  C   UNL     1       6.288  -7.130 -13.149  0.00  0.00    +0.002 A 
ATOM     33  C   UNL     1       6.550  -7.048 -11.796  0.00  0.00    +0.023 A 
ATOM     34  C   UNL     1       5.503  -6.904 -10.895  0.00  0.00    +0.033 A 
ATOM     35  C   UNL     1       4.195  -6.847 -11.358  0.00  0.00    +0.023 A 
ATOM     36  C   UNL     1       3.940  -6.924 -12.713  0.00  0.00    +0.002 A 
ENDBRANCH  27  34
ENDBRANCH  26  28
ENDBRANCH   6  26
TORSDOF 6
