REMARK  Name = ZINC36047108
REMARK  11 active torsions:
REMARK  status: ('A' for Active; 'I' for Inactive)
REMARK    1  A    between atoms: C_1  and  C_2
REMARK    2  A    between atoms: C_2  and  C_3
REMARK    3  A    between atoms: C_2  and  C_4
REMARK    4  A    between atoms: C_4  and  O_6
REMARK    5  A    between atoms: O_6  and  C_7
REMARK    6  A    between atoms: C_7  and  C_8
REMARK    7  A    between atoms: C_8  and  C_10
REMARK    8  A    between atoms: C_16  and  C_35
REMARK    9  A    between atoms: C_18  and  O_34
REMARK   10  A    between atoms: C_32  and  C_33
REMARK   11  A    between atoms: C_37  and  C_40
REMARK                            x       y       z     vdW  Elec       q    Type
REMARK                         _______ _______ _______ _____ _____    ______ ____
ROOT
ATOM      1  C   UNL     1      -5.753  -0.722  -2.282  0.00  0.00    +0.165 C 
ATOM      2  C   UNL     1      -6.724   0.290  -1.587  0.00  0.00    +0.162 C 
ATOM      3  C   UNL     1      -8.018   0.296  -2.441  0.00  0.00    +0.039 C 
ATOM      4  C   UNL     1      -7.777  -0.791  -3.487  0.00  0.00    +0.004 C 
ATOM      5  C   UNL     1      -6.260  -0.686  -3.742  0.00  0.00    +0.012 C 
ATOM      6  C   UNL     1      -5.811  -1.829  -4.617  0.00  0.00    +0.042 C 
ATOM      7  C   UNL     1      -6.623  -1.851  -5.928  0.00  0.00    +0.120 C 
ATOM      8  C   UNL     1      -8.109  -1.909  -5.668  0.00  0.00    +0.035 C 
ATOM      9  C   UNL     1      -8.600  -0.796  -4.732  0.00  0.00    -0.000 C 
ATOM     10  C   UNL     1      -8.664   0.516  -5.499  0.00  0.00    +0.008 C 
ATOM     11  C   UNL     1      -9.846   0.440  -6.468  0.00  0.00    +0.032 C 
ATOM     12  C   UNL     1      -9.964  -0.924  -7.091  0.00  0.00    -0.056 C 
ATOM     13  C   UNL     1     -11.008  -1.107  -7.929  0.00  0.00    +0.051 C 
ATOM     14  C   UNL     1     -11.192  -2.448  -8.528  0.00  0.00    +0.179 C 
ATOM     15  O   UNL     1     -11.709  -2.602  -9.627  0.00  0.00    -0.288 OA
ATOM     16  C   UNL     1     -10.717  -3.596  -7.720  0.00  0.00    +0.047 C 
ATOM     17  C   UNL     1      -9.694  -3.390  -6.880  0.00  0.00    -0.012 C 
ATOM     18  C   UNL     1      -9.012  -2.046  -6.861  0.00  0.00    +0.013 C 
ATOM     19  C   UNL     1      -8.142  -2.079  -8.115  0.00  0.00    +0.020 C 
ATOM     20  C   UNL     1      -5.847   0.668  -4.324  0.00  0.00    +0.015 C 
ATOM     21  O   UNL     1      -7.001  -0.348  -0.326  0.00  0.00    -0.344 OA
ATOM     22  C   UNL     1      -6.930  -1.761  -0.572  0.00  0.00    +0.255 C 
ATOM     23  O   UNL     1      -6.049  -1.982  -1.681  0.00  0.00    -0.334 OA
ENDROOT
BRANCH  22  24
ATOM     24  C   UNL     1      -6.391  -2.477   0.669  0.00  0.00    +0.045 C 
ATOM     25  C   UNL     1      -6.285  -3.977   0.387  0.00  0.00    +0.008 C 
ATOM     26  C   UNL     1      -5.746  -4.692   1.628  0.00  0.00    +0.000 C 
ATOM     27  C   UNL     1      -6.698  -4.460   2.803  0.00  0.00    +0.000 C 
ATOM     28  C   UNL     1      -6.804  -2.960   3.085  0.00  0.00    +0.000 C 
ATOM     29  C   UNL     1      -7.343  -2.245   1.845  0.00  0.00    +0.008 C 
ENDBRANCH  22  24
BRANCH   1  30
ATOM     30  C   UNL     1      -4.308  -0.322  -2.169  0.00  0.00    +0.205 C 
ATOM     31  O   UNL     1      -4.014   0.833  -1.976  0.00  0.00    -0.291 OA
BRANCH  30  32
ATOM     32  C   UNL     1      -3.226  -1.364  -2.296  0.00  0.00    +0.309 C 
BRANCH  32  33
ATOM     33  O   UNL     1      -1.948  -0.742  -2.153  0.00  0.00    -0.457 OA
BRANCH  33  34
ATOM     34  C   UNL     1      -0.870  -1.538  -2.242  0.00  0.00    +0.310 C 
ATOM     35  O   UNL     1      -1.008  -2.722  -2.434  0.00  0.00    -0.251 OA
BRANCH  34  37
ATOM     36  C   UNL     1       0.650  -0.294  -0.727  0.00  0.00    +0.019 C 
ATOM     37  C   UNL     1       0.512  -0.953  -2.102  0.00  0.00    +0.092 C 
ATOM     38  C   UNL     1       1.553  -2.065  -2.241  0.00  0.00    +0.019 C 
ENDBRANCH  34  37
ENDBRANCH  33  34
ENDBRANCH  32  33
ENDBRANCH  30  32
ENDBRANCH   1  30
BRANCH   7  39
ATOM     39  O   UNL     1      -6.236  -0.738  -6.725  0.00  0.00    -0.391 OA
ATOM     40  H   UNL     1      -5.299  -0.730  -6.962  0.00  0.00    +0.210 HD
ENDBRANCH   7  39
TORSDOF 7
