REMARK  Name = ZINC09012262
REMARK  4 active torsions:
REMARK  status: ('A' for Active; 'I' for Inactive)
REMARK    1  A    between atoms: C_15  and  C_17
REMARK    2  A    between atoms: C_17  and  C_19
REMARK    3  A    between atoms: C_23  and  N_25
REMARK    4  A    between atoms: N_30  and  C_33
REMARK                            x       y       z     vdW  Elec       q    Type
REMARK                         _______ _______ _______ _____ _____    ______ ____
ROOT
ATOM      1  C   UNL     1       7.237   0.654   0.502  0.00  0.00    +0.001 A 
ATOM      2  C   UNL     1       6.623   0.515   1.735  0.00  0.00    +0.000 A 
ATOM      3  C   UNL     1       5.245   0.464   1.823  0.00  0.00    +0.006 A 
ATOM      4  C   UNL     1       4.460   0.548   0.694  0.00  0.00    -0.021 A 
ATOM      5  C   UNL     1       5.080   0.694  -0.561  0.00  0.00    -0.019 A 
ATOM      6  C   UNL     1       6.473   0.743  -0.641  0.00  0.00    +0.008 A 
ATOM      7  C   UNL     1       4.272   0.797  -1.791  0.00  0.00    +0.022 C 
ATOM      8  C   UNL     1       2.942   1.000  -1.722  0.00  0.00    +0.054 C 
ATOM      9  C   UNL     1       2.984   0.459   0.735  0.00  0.00    +0.100 C 
ATOM     10  C   UNL     1       2.210   0.912   1.927  0.00  0.00    +0.113 C 
ATOM     11  C   UNL     1       1.712   2.310   1.375  0.00  0.00    +0.116 C 
ATOM     12  C   UNL     1       1.280   1.980   0.001  0.00  0.00    +0.141 C 
ATOM     13  C   UNL     1       1.221   2.942   2.572  0.00  0.00    +0.232 C 
ATOM     14  O   UNL     1       0.277   3.695   2.677  0.00  0.00    -0.274 OA
ATOM     15  N   UNL     1       2.059   2.504   3.568  0.00  0.00    -0.210 N 
ATOM     16  C   UNL     1       2.840   1.454   3.176  0.00  0.00    +0.232 C 
ATOM     17  O   UNL     1       3.840   1.044   3.725  0.00  0.00    -0.274 OA
ATOM     18  N   UNL     1       2.193   0.847  -0.399  0.00  0.00    -0.384 NA
ATOM     19  H   UNL     1       1.568   0.049  -0.563  0.00  0.00    +0.127 HD
ENDROOT
BRANCH  15  20
ATOM     20  C   UNL     1       2.107   3.073   4.849  0.00  0.00    +0.044 A 
ATOM     21  C   UNL     1       2.980   2.566   5.802  0.00  0.00    +0.025 A 
ATOM     22  C   UNL     1       3.030   3.132   7.061  0.00  0.00    +0.022 A 
ATOM     23  C   UNL     1       2.202   4.195   7.377  0.00  0.00    +0.041 A 
ATOM     24  C   UNL     1       1.327   4.699   6.430  0.00  0.00    +0.022 A 
ATOM     25  C   UNL     1       1.278   4.140   5.168  0.00  0.00    +0.025 A 
ATOM     26 CL   UNL     1       2.262   4.899   8.962  0.00  0.00    -0.084 Cl
ENDBRANCH  15  20
BRANCH  12  27
ATOM     27  C   UNL     1      -0.014   1.208   0.009  0.00  0.00    +0.183 C 
ATOM     28  O   UNL     1       0.002  -0.004   0.002  0.00  0.00    -0.290 OA
BRANCH  27  29
ATOM     29  C   UNL     1      -1.299   1.927   0.019  0.00  0.00    +0.021 A 
ATOM     30  C   UNL     1      -1.322   3.325   0.032  0.00  0.00    +0.011 A 
ATOM     31  C   UNL     1      -2.529   3.991   0.035  0.00  0.00    +0.003 A 
ATOM     32  C   UNL     1      -3.716   3.279   0.037  0.00  0.00    +0.033 A 
ATOM     33  C   UNL     1      -3.702   1.895   0.030  0.00  0.00    +0.127 A 
ATOM     34  C   UNL     1      -2.502   1.215   0.021  0.00  0.00    +0.044 A 
BRANCH  33  35
ATOM     35  N   UNL     1      -4.977   1.144   0.032  0.00  0.00    +0.056 N 
ATOM     36  O   UNL     1      -4.966  -0.074   0.025  0.00  0.00    -0.126 OA
ATOM     37  O   UNL     1      -6.037   1.743   0.040  0.00  0.00    -0.126 OA
ENDBRANCH  33  35
ENDBRANCH  27  29
ENDBRANCH  12  27
TORSDOF 4
