REMARK  Name = ZINC39526572
REMARK  5 active torsions:
REMARK  status: ('A' for Active; 'I' for Inactive)
REMARK    1  A    between atoms: C_1  and  C_2
REMARK    2  A    between atoms: C_2  and  O_3
REMARK    3  A    between atoms: O_3  and  N_4
REMARK    4  A    between atoms: C_14  and  C_17
REMARK    5  A    between atoms: C_22  and  O_23
REMARK                            x       y       z     vdW  Elec       q    Type
REMARK                         _______ _______ _______ _____ _____    ______ ____
ROOT
ATOM      1  N   UNL     1       0.772  -1.935   1.251  0.00  0.00    -0.169 NA
ATOM      2  C   UNL     1       0.140  -2.420   2.485  0.00  0.00    +0.147 C 
ATOM      3  C   UNL     1       0.111  -3.950   2.478  0.00  0.00    +0.032 C 
ATOM      4  C   UNL     1       1.543  -4.482   2.373  0.00  0.00    +0.004 C 
ATOM      5  C   UNL     1       2.194  -3.925   1.104  0.00  0.00    +0.025 C 
ATOM      6  C   UNL     1       2.163  -2.395   1.150  0.00  0.00    +0.049 C 
ATOM      7  C   UNL     1       2.794  -1.835  -0.126  0.00  0.00    +0.025 C 
ATOM      8  C   UNL     1       2.768  -0.306  -0.081  0.00  0.00    +0.002 C 
ATOM      9  C   UNL     1       3.558   0.182   1.135  0.00  0.00    +0.008 C 
ATOM     10  C   UNL     1       2.925  -0.377   2.411  0.00  0.00    +0.024 C 
ATOM     11  C   UNL     1       2.952  -1.906   2.366  0.00  0.00    +0.033 C 
ATOM     12  I   UNL     1      -1.881  -1.662   2.605  0.00  0.00    -0.062 I 
ENDROOT
BRANCH  10  13
ATOM     13  C   UNL     1       3.703   0.104   3.609  0.00  0.00    -0.003 A 
ATOM     14  C   UNL     1       5.044  -0.205   3.733  0.00  0.00    +0.007 A 
ATOM     15  C   UNL     1       5.758   0.235   4.832  0.00  0.00    +0.001 A 
ATOM     16  C   UNL     1       5.132   0.987   5.810  0.00  0.00    +0.004 A 
ATOM     17  C   UNL     1       3.792   1.299   5.691  0.00  0.00    +0.046 A 
ATOM     18  C   UNL     1       3.075   0.862   4.586  0.00  0.00    +0.120 A 
BRANCH  18  19
ATOM     19  O   UNL     1       1.757   1.173   4.464  0.00  0.00    -0.506 OA
ATOM     20  H   UNL     1       1.161   0.525   4.863  0.00  0.00    +0.292 HD
ENDBRANCH  18  19
ENDBRANCH  10  13
BRANCH   1  21
ATOM     21  O   UNL     1       0.693  -0.477   1.160  0.00  0.00    -0.296 OA
BRANCH  21  23
ATOM     22  C   UNL     1      -0.269   1.525   0.208  0.00  0.00    +0.036 C 
ATOM     23  C   UNL     1      -0.274  -0.005   0.220  0.00  0.00    +0.182 C 
ENDBRANCH  21  23
ENDBRANCH   1  21
TORSDOF 4
