REMARK  Name = ZINC08432983
REMARK  9 active torsions:
REMARK  status: ('A' for Active; 'I' for Inactive)
REMARK    1  A    between atoms: C_1  and  C_2
REMARK    2  A    between atoms: C_5  and  C_8
REMARK    3  A    between atoms: N_12  and  N_30
REMARK    4  A    between atoms: N_14  and  C_15
REMARK    5  A    between atoms: C_16  and  C_28
REMARK    6  A    between atoms: N_17  and  C_27
REMARK    7  A    between atoms: N_18  and  C_21
REMARK    8  A    between atoms: C_31  and  C_32
REMARK    9  A    between atoms: C_35  and  C_38
REMARK                            x       y       z     vdW  Elec       q    Type
REMARK                         _______ _______ _______ _____ _____    ______ ____
ROOT
ATOM      1  C   UNL     1       1.085  -5.819   0.117  0.00  0.00    +0.028 C 
ATOM      2  C   UNL     1       1.963  -4.796  -0.037  0.00  0.00    +0.080 C 
ATOM      3  C   UNL     1       3.421  -4.841  -0.269  0.00  0.00    +0.279 C 
ATOM      4  O   UNL     1       4.020  -5.898  -0.348  0.00  0.00    -0.267 OA
ATOM      5  N   UNL     1       4.045  -3.682  -0.391  0.00  0.00    -0.132 N 
ATOM      6  C   UNL     1       3.345  -2.493  -0.291  0.00  0.00    +0.189 C 
ATOM      7  N   UNL     1       3.801  -1.268  -0.382  0.00  0.00    -0.217 NA
ATOM      8  S   UNL     1       1.666  -3.035  -0.016  0.00  0.00    -0.047 S 
ENDROOT
BRANCH   7   9
ATOM      9  C   UNL     1       2.930  -0.207  -0.349  0.00  0.00    +0.153 A 
ATOM     10  C   UNL     1       2.884   0.829  -1.230  0.00  0.00    +0.064 A 
ATOM     11  N   UNL     1       1.878   1.677  -0.851  0.00  0.00    -0.282 N 
ATOM     12  N   UNL     1       1.261   1.178   0.301  0.00  0.00    -0.215 N 
ATOM     13  C   UNL     1       1.877   0.029   0.647  0.00  0.00    +0.298 A 
ATOM     14  O   UNL     1       1.609  -0.679   1.600  0.00  0.00    -0.264 OA
ATOM     15  C   UNL     1       1.506   2.913  -1.544  0.00  0.00    +0.171 C 
ATOM     16  C   UNL     1       3.786   1.012  -2.423  0.00  0.00    +0.067 C 
BRANCH  12  17
ATOM     17  C   UNL     1       0.193   1.772   0.981  0.00  0.00    +0.067 A 
ATOM     18  C   UNL     1      -0.796   0.980   1.550  0.00  0.00    +0.028 A 
ATOM     19  C   UNL     1      -1.853   1.570   2.216  0.00  0.00    +0.002 A 
ATOM     20  C   UNL     1      -1.921   2.947   2.326  0.00  0.00    +0.000 A 
ATOM     21  C   UNL     1      -0.938   3.738   1.760  0.00  0.00    +0.002 A 
ATOM     22  C   UNL     1       0.119   3.155   1.088  0.00  0.00    +0.028 A 
ENDBRANCH  12  17
ENDBRANCH   7   9
BRANCH   1  27
ATOM     23  C   UNL     1       3.011 -11.209   0.632  0.00  0.00    +0.044 C 
ATOM     24  C   UNL     1       2.506  -9.796   0.497  0.00  0.00    -0.050 A 
ATOM     25  C   UNL     1       3.193  -8.759   1.104  0.00  0.00    +0.004 A 
ATOM     26  C   UNL     1       2.738  -7.463   0.986  0.00  0.00    +0.008 A 
ATOM     27  C   UNL     1       1.578  -7.197   0.249  0.00  0.00    -0.024 A 
ATOM     28  C   UNL     1       0.887  -8.252  -0.358  0.00  0.00    +0.008 A 
ATOM     29  C   UNL     1       1.358  -9.542  -0.234  0.00  0.00    +0.004 A 
ENDBRANCH   1  27
BRANCH   5  30
ATOM     30  N   UNL     1       5.427  -3.657  -0.620  0.00  0.00    -0.178 NA
ATOM     31  C   UNL     1       6.067  -2.528  -0.606  0.00  0.00    +0.139 C 
BRANCH  31  32
ATOM     32  C   UNL     1       7.489  -2.482  -0.993  0.00  0.00    -0.005 A 
ATOM     33  C   UNL     1       8.153  -3.653  -1.369  0.00  0.00    +0.010 A 
ATOM     34  C   UNL     1       9.482  -3.602  -1.734  0.00  0.00    +0.004 A 
ATOM     35  C   UNL     1      10.161  -2.396  -1.719  0.00  0.00    -0.050 A 
ATOM     36  C   UNL     1       9.512  -1.233  -1.343  0.00  0.00    +0.004 A 
ATOM     37  C   UNL     1       8.181  -1.269  -0.980  0.00  0.00    +0.010 A 
ATOM     38  C   UNL     1      11.614  -2.349  -2.114  0.00  0.00    +0.044 C 
ENDBRANCH  31  32
ENDBRANCH   5  30
TORSDOF 5
