REMARK  Name = ZINC36499878
REMARK  11 active torsions:
REMARK  status: ('A' for Active; 'I' for Inactive)
REMARK    1  A    between atoms: C_1  and  O_2
REMARK    2  A    between atoms: O_2  and  C_3
REMARK    3  A    between atoms: C_5  and  C_10
REMARK    4  A    between atoms: C_8  and  O_9
REMARK    5  A    between atoms: C_10  and  C_12
REMARK    6  A    between atoms: C_10  and  N_21
REMARK    7  A    between atoms: N_14  and  C_15
REMARK    8  A    between atoms: N_21  and  C_22
REMARK    9  A    between atoms: C_22  and  C_23
REMARK   10  A    between atoms: C_28  and  C_30
REMARK   11  A    between atoms: C_32  and  N_37
REMARK                            x       y       z     vdW  Elec       q    Type
REMARK                         _______ _______ _______ _____ _____    ______ ____
ROOT
ATOM      1  C   UNL     1       3.071   0.259   4.273  0.00  0.00    +0.193 C 
ENDROOT
BRANCH   1   4
ATOM      2  C   UNL     1       2.653  -2.583   1.820  0.00  0.00    +0.162 A 
ATOM      3  C   UNL     1       2.370  -1.509   2.648  0.00  0.00    +0.055 A 
ATOM      4  C   UNL     1       3.382  -0.909   3.373  0.00  0.00    -0.015 A 
ATOM      5  C   UNL     1       4.679  -1.379   3.275  0.00  0.00    +0.010 A 
ATOM      6  C   UNL     1       4.969  -2.450   2.451  0.00  0.00    +0.049 A 
ATOM      7  C   UNL     1       3.958  -3.059   1.726  0.00  0.00    +0.158 A 
BRANCH   2   9
ATOM      8  C   UNL     1       0.344  -2.632   1.252  0.00  0.00    +0.277 C 
ATOM      9  O   UNL     1       1.659  -3.174   1.106  0.00  0.00    -0.491 OA
ENDBRANCH   2   9
BRANCH   7  10
ATOM     10  O   UNL     1       4.240  -4.117   0.919  0.00  0.00    -0.503 OA
ATOM     11  H   UNL     1       4.475  -3.870   0.014  0.00  0.00    +0.292 HD
ENDBRANCH   7  10
ENDBRANCH   1   4
BRANCH   1  12
ATOM     12  C   UNL     1       4.349   0.981   4.618  0.00  0.00    +0.238 C 
ATOM     13  O   UNL     1       4.791   0.925   5.746  0.00  0.00    -0.273 OA
ATOM     14  N   UNL     1       4.999   1.689   3.673  0.00  0.00    -0.311 N 
ATOM     15  H   UNL     1       4.645   1.734   2.771  0.00  0.00    +0.149 HD
BRANCH  14  16
ATOM     16  C   UNL     1       6.240   2.391   4.008  0.00  0.00    +0.073 C 
ATOM     17  C   UNL     1       5.908   3.762   4.599  0.00  0.00    +0.022 C 
ATOM     18  C   UNL     1       7.204   4.495   4.949  0.00  0.00    +0.002 C 
ATOM     19  C   UNL     1       8.046   4.675   3.684  0.00  0.00    +0.000 C 
ATOM     20  C   UNL     1       8.379   3.303   3.094  0.00  0.00    +0.002 C 
ATOM     21  C   UNL     1       7.082   2.570   2.743  0.00  0.00    +0.022 C 
ENDBRANCH  14  16
ENDBRANCH   1  12
BRANCH   1  22
ATOM     22  N   UNL     1       2.438  -0.225   5.502  0.00  0.00    -0.275 N 
ATOM     23  C   UNL     1       2.444   0.540   6.611  0.00  0.00    +0.252 C 
ATOM     24  O   UNL     1       2.018   0.096   7.659  0.00  0.00    -0.270 OA
BRANCH  23  25
ATOM     25  C   UNL     1       2.970   1.918   6.553  0.00  0.00    +0.086 A 
ATOM     26  C   UNL     1       2.984   2.614   5.342  0.00  0.00    +0.049 A 
ATOM     27  C   UNL     1       3.476   3.900   5.295  0.00  0.00    +0.127 A 
ATOM     28  C   UNL     1       3.957   4.507   6.444  0.00  0.00    +0.036 A 
ATOM     29  C   UNL     1       3.950   3.830   7.647  0.00  0.00    +0.054 A 
ATOM     30  C   UNL     1       3.452   2.537   7.714  0.00  0.00    +0.191 A 
ATOM     31  O   UNL     1       3.439   1.873   8.897  0.00  0.00    -0.287 OA
BRANCH  27  32
ATOM     32  N   UNL     1       3.490   4.637   4.011  0.00  0.00    +0.056 N 
ATOM     33  O   UNL     1       3.071   4.110   3.007  0.00  0.00    -0.126 OA
ATOM     34  O   UNL     1       3.921   5.766   3.967  0.00  0.00    -0.126 OA
ENDBRANCH  27  32
ENDBRANCH  23  25
BRANCH  22  35
ATOM     35  C   UNL     1       1.796  -1.542   5.525  0.00  0.00    +0.183 C 
BRANCH  35  36
ATOM     36  C   UNL     1       0.316  -1.376   5.756  0.00  0.00    +0.122 A 
ATOM     37  C   UNL     1      -0.622  -1.262   4.799  0.00  0.00    +0.046 A 
ATOM     38  C   UNL     1      -1.865  -1.127   5.458  0.00  0.00    +0.041 A 
ATOM     39  C   UNL     1      -1.613  -1.166   6.779  0.00  0.00    +0.195 A 
ATOM     40  O   UNL     1      -0.290  -1.323   6.953  0.00  0.00    -0.466 OA
ENDBRANCH  35  36
ENDBRANCH  22  35
ENDBRANCH   1  22
TORSDOF 10
