REMARK  Name = ZINC39688668
REMARK  8 active torsions:
REMARK  status: ('A' for Active; 'I' for Inactive)
REMARK    1  A    between atoms: C_1  and  C_2
REMARK    2  A    between atoms: C_2  and  C_4
REMARK    3  A    between atoms: C_2  and  N_12
REMARK    4  A    between atoms: C_4  and  C_5
REMARK    5  A    between atoms: C_13  and  C_15
REMARK    6  A    between atoms: C_26  and  C_28
REMARK    7  A    between atoms: C_33  and  O_34
REMARK    8  A    between atoms: O_34  and  C_35
REMARK                            x       y       z     vdW  Elec       q    Type
REMARK                         _______ _______ _______ _____ _____    ______ ____
ROOT
ATOM      1  C   UNL     1       0.357  -0.851   3.320  0.00  0.00    +0.100 C 
ATOM      2  C   UNL     1       1.659  -0.103   3.683  0.00  0.00    +0.121 C 
ATOM      3  N   UNL     1       1.277   0.792   4.801  0.00  0.00    -0.296 N 
ATOM      4  C   UNL     1       0.349  -0.021   5.623  0.00  0.00    +0.115 C 
ATOM      5  C   UNL     1      -0.499  -0.798   4.596  0.00  0.00    -0.004 C 
ATOM      6  C   UNL     1      -0.779  -2.209   5.103  0.00  0.00    -0.010 C 
ATOM      7  C   UNL     1      -1.680  -2.134   6.339  0.00  0.00    -0.082 C 
ATOM      8  N   UNL     1      -2.936  -1.458   5.991  0.00  0.00    +0.379 N 
ATOM      9  C   UNL     1      -2.665  -0.071   5.593  0.00  0.00    -0.082 C 
ATOM     10  C   UNL     1      -1.806  -0.060   4.326  0.00  0.00    -0.010 C 
ATOM     11  C   UNL     1       1.682   2.058   5.021  0.00  0.00    +0.252 C 
ATOM     12  O   UNL     1       1.352   2.634   6.040  0.00  0.00    -0.270 OA
ATOM     13  H   UNL     1      -3.378  -1.946   5.226  0.00  0.00    -0.086 HD
ATOM     14  H   UNL     1      -3.552  -1.463   6.790  0.00  0.00    -0.086 HD
ENDROOT
BRANCH  11  15
ATOM     15  C   UNL     1       2.527   2.746   4.026  0.00  0.00    +0.099 A 
ATOM     16  C   UNL     1       3.481   2.035   3.288  0.00  0.00    +0.020 A 
ATOM     17  C   UNL     1       4.247   2.727   2.367  0.00  0.00    +0.021 A 
ATOM     18  C   UNL     1       4.051   4.086   2.202  0.00  0.00    +0.114 A 
ATOM     19  N   UNL     1       3.146   4.736   2.908  0.00  0.00    -0.220 NA
ATOM     20  C   UNL     1       2.384   4.123   3.797  0.00  0.00    +0.233 A 
BRANCH  20  21
ATOM     21  O   UNL     1       1.463   4.829   4.496  0.00  0.00    -0.437 OA
BRANCH  21  22
ATOM     22  C   UNL     1       1.423   6.176   4.318  0.00  0.00    +0.130 A 
ATOM     23  C   UNL     1       1.971   7.019   5.273  0.00  0.00    +0.046 A 
ATOM     24  C   UNL     1       1.929   8.388   5.090  0.00  0.00    +0.004 A 
ATOM     25  C   UNL     1       1.341   8.917   3.956  0.00  0.00    +0.000 A 
ATOM     26  C   UNL     1       0.793   8.079   3.003  0.00  0.00    +0.004 A 
ATOM     27  C   UNL     1       0.838   6.709   3.179  0.00  0.00    +0.046 A 
ENDBRANCH  21  22
ENDBRANCH  20  21
ENDBRANCH  11  15
BRANCH   1  29
ATOM     28  N   UNL     1      -1.075  -0.868   1.303  0.00  0.00    -0.312 N 
ATOM     29  C   UNL     1      -0.349  -0.154   2.185  0.00  0.00    +0.218 C 
ATOM     30  O   UNL     1      -0.264   1.050   2.067  0.00  0.00    -0.275 OA
ATOM     31  H   UNL     1      -1.143  -1.831   1.398  0.00  0.00    +0.149 HD
BRANCH  28  33
ATOM     32  C   UNL     1      -0.792  -0.008  -0.969  0.00  0.00    +0.028 C 
ATOM     33  C   UNL     1      -1.762  -0.191   0.200  0.00  0.00    +0.074 C 
BRANCH  33  34
ATOM     34  C   UNL     1      -2.954  -1.035  -0.254  0.00  0.00    +0.057 C 
BRANCH  34  35
ATOM     35  C   UNL     1      -3.967  -1.112   0.860  0.00  0.00    -0.045 A 
ATOM     36  C   UNL     1      -3.892  -2.129   1.793  0.00  0.00    +0.006 A 
ATOM     37  C   UNL     1      -4.820  -2.200   2.814  0.00  0.00    +0.038 A 
ATOM     38  C   UNL     1      -5.826  -1.253   2.902  0.00  0.00    +0.123 A 
ATOM     39  C   UNL     1      -5.901  -0.235   1.967  0.00  0.00    +0.038 A 
ATOM     40  C   UNL     1      -4.969  -0.163   0.949  0.00  0.00    +0.006 A 
ATOM     41  F   UNL     1      -6.734  -1.323   3.900  0.00  0.00    -0.205 F 
ENDBRANCH  34  35
ENDBRANCH  33  34
ENDBRANCH  28  33
ENDBRANCH   1  29
TORSDOF 7
