REMARK  Name = ZINC67277136
REMARK  6 active torsions:
REMARK  status: ('A' for Active; 'I' for Inactive)
REMARK    1  A    between atoms: C_1  and  C_2
REMARK    2  A    between atoms: C_2  and  C_3
REMARK    3  A    between atoms: C_3  and  C_4
REMARK    4  A    between atoms: C_4  and  C_5
REMARK    5  A    between atoms: C_10  and  N_12
REMARK    6  A    between atoms: C_13  and  C_15
REMARK                            x       y       z     vdW  Elec       q    Type
REMARK                         _______ _______ _______ _____ _____    ______ ____
ROOT
ATOM      1  C   UNL     1      -2.854  -6.231   3.290  0.00  0.00    +0.075 C 
ATOM      2  C   UNL     1      -4.355  -6.265   3.584  0.00  0.00    +0.015 C 
ATOM      3  C   UNL     1      -4.580  -6.712   5.031  0.00  0.00    +0.036 C 
ATOM      4  C   UNL     1      -3.973  -8.095   5.237  0.00  0.00    +0.112 C 
ATOM      5  C   UNL     1      -2.480  -8.081   4.927  0.00  0.00    +0.036 C 
ATOM      6  C   UNL     1      -2.263  -7.629   3.480  0.00  0.00    +0.015 C 
ATOM      7  C   UNL     1      -4.214  -8.572   6.651  0.00  0.00    +0.244 C 
ATOM      8  O   UNL     1      -3.825  -8.054   7.676  0.00  0.00    -0.273 OA
ATOM      9  N   UNL     1      -4.952  -9.695   6.532  0.00  0.00    -0.238 N 
ATOM     10  C   UNL     1      -5.204  -9.985   5.249  0.00  0.00    +0.307 C 
ATOM     11  O   UNL     1      -5.850 -10.950   4.889  0.00  0.00    -0.252 OA
ATOM     12  N   UNL     1      -4.662  -9.089   4.403  0.00  0.00    -0.285 N 
ATOM     13  H   UNL     1      -5.260 -10.227   7.282  0.00  0.00    +0.159 HD
ATOM     14  H   UNL     1      -4.716  -9.097   3.435  0.00  0.00    +0.151 HD
ENDROOT
BRANCH   1  16
ATOM     15  N   UNL     1      -3.071  -4.572   1.468  0.00  0.00    -0.312 N 
ATOM     16  C   UNL     1      -2.631  -5.781   1.869  0.00  0.00    +0.216 C 
ATOM     17  O   UNL     1      -2.056  -6.507   1.086  0.00  0.00    -0.276 OA
ATOM     18  H   UNL     1      -3.531  -3.991   2.094  0.00  0.00    +0.149 HD
BRANCH  15  23
ATOM     19  C   UNL     1      -2.848  -2.593   0.015  0.00  0.00    +0.009 C 
ATOM     20  C   UNL     1      -3.555  -2.269  -1.324  0.00  0.00    +0.005 C 
ATOM     21  C   UNL     1      -4.673  -3.339  -1.388  0.00  0.00    +0.002 C 
ATOM     22  C   UNL     1      -4.015  -4.609  -0.809  0.00  0.00    +0.022 C 
ATOM     23  C   UNL     1      -2.854  -4.134   0.087  0.00  0.00    +0.076 C 
BRANCH  19  24
ATOM     24  C   UNL     1      -1.413  -2.063   0.004  0.00  0.00    +0.005 C 
BRANCH  24  25
ATOM     25  C   UNL     1      -1.433  -0.534   0.013  0.00  0.00    +0.000 C 
BRANCH  25  27
ATOM     26  C   UNL     1      -0.019   1.526   0.010  0.00  0.00    +0.004 C 
ATOM     27  C   UNL     1       0.002  -0.004   0.002  0.00  0.00    -0.003 C 
ENDBRANCH  25  27
ENDBRANCH  24  25
ENDBRANCH  19  24
ENDBRANCH  15  23
ENDBRANCH   1  16
TORSDOF 5
