REMARK  Name = ZINC36694103
REMARK  6 active torsions:
REMARK  status: ('A' for Active; 'I' for Inactive)
REMARK    1  A    between atoms: C_1  and  C_2
REMARK    2  A    between atoms: C_2  and  S_3
REMARK    3  A    between atoms: S_3  and  C_6
REMARK    4  A    between atoms: C_9  and  C_12
REMARK    5  A    between atoms: C_18  and  C_20
REMARK    6  A    between atoms: C_22  and  C_32
REMARK                            x       y       z     vdW  Elec       q    Type
REMARK                         _______ _______ _______ _____ _____    ______ ____
ROOT
ATOM      1  C   UNL     1       0.532  -6.583  -0.934  0.00  0.00    +0.250 A 
ATOM      2  N   UNL     1       1.446  -7.345  -0.382  0.00  0.00    -0.106 NA
ATOM      3  N   UNL     1       1.115  -8.580  -0.526  0.00  0.00    -0.092 NA
ATOM      4  C   UNL     1      -0.021  -8.655  -1.176  0.00  0.00    +0.315 A 
ATOM      5  O   UNL     1      -0.418  -7.397  -1.443  0.00  0.00    -0.405 OA
ATOM      6  N   UNL     1      -0.694  -9.817  -1.520  0.00  0.00    -0.235 N 
ATOM      7  C   UNL     1      -0.182 -11.017  -1.181  0.00  0.00    +0.265 C 
ATOM      8  O   UNL     1       0.909 -11.085  -0.655  0.00  0.00    -0.271 OA
ATOM      9  H   UNL     1      -1.533  -9.767  -2.003  0.00  0.00    +0.159 HD
ENDROOT
BRANCH   7  10
ATOM     10  C   UNL     1      -0.965 -12.275  -1.456  0.00  0.00    +0.299 C 
ATOM     11  C   UNL     1      -0.952 -12.574  -2.962  0.00  0.00    +0.220 C 
ATOM     12  O   UNL     1       0.408 -12.745  -3.373  0.00  0.00    -0.481 OA
ATOM     13  C   UNL     1       1.189 -13.539  -2.589  0.00  0.00    +0.163 A 
ATOM     14  C   UNL     1       2.378 -14.039  -3.098  0.00  0.00    +0.049 A 
ATOM     15  C   UNL     1       3.183 -14.844  -2.314  0.00  0.00    +0.004 A 
ATOM     16  C   UNL     1       2.805 -15.152  -1.020  0.00  0.00    +0.004 A 
ATOM     17  C   UNL     1       1.620 -14.658  -0.508  0.00  0.00    +0.049 A 
ATOM     18  C   UNL     1       0.807 -13.851  -1.290  0.00  0.00    +0.163 A 
ATOM     19  O   UNL     1      -0.361 -13.379  -0.774  0.00  0.00    -0.472 OA
ATOM     20  C   UNL     1      -1.580 -11.406  -3.725  0.00  0.00    +0.056 C 
ENDBRANCH   7  10
BRANCH   1  24
ATOM     21  C   UNL     1       0.551  -2.339  -1.080  0.00  0.00    +0.088 A 
ATOM     22  C   UNL     1       1.592  -3.011  -0.465  0.00  0.00    +0.028 A 
ATOM     23  C   UNL     1       1.592  -4.390  -0.414  0.00  0.00    +0.015 A 
ATOM     24  C   UNL     1       0.539  -5.106  -0.985  0.00  0.00    +0.039 A 
ATOM     25  C   UNL     1      -0.508  -4.422  -1.604  0.00  0.00    +0.015 A 
ATOM     26  C   UNL     1      -0.499  -3.043  -1.643  0.00  0.00    +0.028 A 
BRANCH  21  27
ATOM     27  S   UNL     1       0.558  -0.578  -1.141  0.00  0.00    -0.003 S 
ATOM     28  O   UNL     1      -0.222  -0.251  -2.282  0.00  0.00    -0.169 OA
ATOM     29  O   UNL     1       1.931  -0.219  -1.075  0.00  0.00    -0.169 OA
BRANCH  27  31
ATOM     30  C   UNL     1      -0.350   1.472   0.426  0.00  0.00    +0.028 C 
ATOM     31  C   UNL     1      -0.297  -0.056   0.371  0.00  0.00    +0.168 C 
ENDBRANCH  27  31
ENDBRANCH  21  27
ENDBRANCH   1  24
TORSDOF 4
