REMARK  Name = ZINC23588721
REMARK  8 active torsions:
REMARK  status: ('A' for Active; 'I' for Inactive)
REMARK    1  A    between atoms: C_1  and  C_2
REMARK    2  A    between atoms: C_5  and  N_9
REMARK    3  A    between atoms: C_6  and  C_8
REMARK    4  A    between atoms: C_13  and  S_14
REMARK    5  A    between atoms: S_14  and  C_15
REMARK    6  A    between atoms: C_15  and  C_16
REMARK    7  A    between atoms: N_18  and  C_19
REMARK    8  A    between atoms: C_22  and  N_26
REMARK                            x       y       z     vdW  Elec       q    Type
REMARK                         _______ _______ _______ _____ _____    ______ ____
ROOT
ATOM      1  C   UNL     1       3.979   2.699  -0.039  0.00  0.00    +0.173 C 
ENDROOT
BRANCH   1   2
ATOM      2  C   UNL     1       5.442   3.059  -0.040  0.00  0.00    +0.228 C 
ATOM      3  O   UNL     1       6.282   2.184  -0.048  0.00  0.00    -0.275 OA
ATOM      4  N   UNL     1       5.818   4.354  -0.030  0.00  0.00    -0.284 N 
ATOM      5  H   UNL     1       5.058   5.147  -0.097  0.00  0.00    +0.155 HD
BRANCH   4   6
ATOM      6  C   UNL     1       7.173   4.689   0.064  0.00  0.00    +0.048 A 
ATOM      7  C   UNL     1       8.132   3.887  -0.540  0.00  0.00    +0.026 A 
ATOM      8  C   UNL     1       9.469   4.220  -0.445  0.00  0.00    +0.034 A 
ATOM      9  C   UNL     1       9.854   5.351   0.251  0.00  0.00    +0.127 A 
ATOM     10  C   UNL     1       8.902   6.152   0.854  0.00  0.00    +0.049 A 
ATOM     11  C   UNL     1       7.562   5.828   0.759  0.00  0.00    +0.041 A 
ATOM     12 BR   UNL     1       6.261   6.928   1.577  0.00  0.00    -0.048 Br
BRANCH   9  13
ATOM     13  N   UNL     1      11.287   5.705   0.350  0.00  0.00    +0.056 N 
ATOM     14  O   UNL     1      12.127   5.001  -0.182  0.00  0.00    -0.126 OA
ATOM     15  O   UNL     1      11.628   6.702   0.962  0.00  0.00    -0.126 OA
ENDBRANCH   9  13
ENDBRANCH   4   6
ENDBRANCH   1   2
BRANCH   1  16
ATOM     16  S   UNL     1       3.801   0.898  -0.053  0.00  0.00    -0.076 S 
BRANCH  16  21
ATOM     17  N   UNL     1       1.317  -0.395  -0.058  0.00  0.00    -0.277 N 
ATOM     18  C   UNL     1       0.003  -0.006  -0.051  0.00  0.00    +0.230 A 
ATOM     19  N   UNL     1      -0.015   1.297  -0.041  0.00  0.00    -0.137 NA
ATOM     20  N   UNL     1       1.185   1.756  -0.040  0.00  0.00    -0.122 NA
ATOM     21  C   UNL     1       2.045   0.764  -0.050  0.00  0.00    +0.196 A 
BRANCH  17  26
ATOM     22  C   UNL     1       3.323  -5.704  -0.108  0.00  0.00    +0.044 C 
ATOM     23  C   UNL     1       2.790  -4.295  -0.094  0.00  0.00    -0.050 A 
ATOM     24  C   UNL     1       2.070  -3.819  -1.175  0.00  0.00    +0.005 A 
ATOM     25  C   UNL     1       1.580  -2.528  -1.165  0.00  0.00    +0.027 A 
ATOM     26  C   UNL     1       1.812  -1.707  -0.070  0.00  0.00    +0.053 A 
ATOM     27  C   UNL     1       2.540  -2.185   1.011  0.00  0.00    -0.026 A 
ATOM     28  C   UNL     1       3.023  -3.479   0.998  0.00  0.00    +0.008 A 
ATOM     29  C   UNL     1       2.800  -1.295   2.199  0.00  0.00    +0.046 C 
ENDBRANCH  17  26
ENDBRANCH  16  21
ENDBRANCH   1  16
TORSDOF 6
