REMARK  Name = ZINC21548881
REMARK  7 active torsions:
REMARK  status: ('A' for Active; 'I' for Inactive)
REMARK    1  A    between atoms: C_1  and  C_2
REMARK    2  A    between atoms: C_4  and  O_5
REMARK    3  A    between atoms: C_14  and  C_16
REMARK    4  A    between atoms: C_18  and  N_35
REMARK    5  A    between atoms: C_21  and  N_22
REMARK    6  A    between atoms: C_25  and  C_28
REMARK    7  A    between atoms: C_28  and  C_29
REMARK                            x       y       z     vdW  Elec       q    Type
REMARK                         _______ _______ _______ _____ _____    ______ ____
ROOT
ATOM      1  C   UNL     1       3.396   0.341  -3.241  0.00  0.00    +0.060 A 
ATOM      2  C   UNL     1       4.154  -0.206  -4.281  0.00  0.00    +0.047 A 
ATOM      3  C   UNL     1       4.418  -1.558  -4.301  0.00  0.00    +0.127 A 
ATOM      4  C   UNL     1       3.942  -2.380  -3.292  0.00  0.00    +0.034 A 
ATOM      5  C   UNL     1       3.196  -1.855  -2.256  0.00  0.00    +0.026 A 
ATOM      6  C   UNL     1       2.919  -0.494  -2.219  0.00  0.00    +0.042 A 
ENDROOT
BRANCH   1  19
ATOM      7  C   UNL     1       3.709   9.090  -4.612  0.00  0.00    +0.045 C 
ATOM      8  C   UNL     1       2.722   8.133  -3.995  0.00  0.00    -0.033 A 
ATOM      9  C   UNL     1       1.614   8.591  -3.355  0.00  0.00    +0.091 A 
ATOM     10  C   UNL     1       0.704   7.676  -2.786  0.00  0.00    +0.285 A 
ATOM     11  O   UNL     1       0.900   6.350  -2.857  0.00  0.00    -0.425 OA
ATOM     12  C   UNL     1       1.981   5.830  -3.479  0.00  0.00    +0.141 A 
ATOM     13  C   UNL     1       2.930   6.686  -4.069  0.00  0.00    +0.021 A 
ATOM     14  C   UNL     1       4.051   6.152  -4.715  0.00  0.00    +0.013 A 
ATOM     15  C   UNL     1       4.224   4.799  -4.765  0.00  0.00    +0.024 A 
ATOM     16  C   UNL     1       3.285   3.945  -4.188  0.00  0.00    +0.037 A 
ATOM     17  C   UNL     1       2.168   4.458  -3.544  0.00  0.00    +0.070 A 
ATOM     18  N   UNL     1       3.473   2.565  -4.253  0.00  0.00    -0.281 N 
ATOM     19  C   UNL     1       3.104   1.785  -3.217  0.00  0.00    +0.250 C 
ATOM     20  O   UNL     1       2.531   2.273  -2.262  0.00  0.00    -0.270 OA
ATOM     21  H   UNL     1       3.921   2.112  -5.149  0.00  0.00    +0.155 HD
BRANCH  10  22
ATOM     22  O   UNL     1      -0.285   8.100  -2.215  0.00  0.00    -0.480 OA
ATOM     23  H   UNL     1      -1.003   7.398  -1.766  0.00  0.00    +0.295 HD
ENDBRANCH  10  22
ENDBRANCH   1  19
BRANCH   6  24
ATOM     24  N   UNL     1       2.169   0.037  -1.177  0.00  0.00    -0.329 N 
ATOM     25  C   UNL     1       2.870  -0.109   0.104  0.00  0.00    +0.105 C 
ATOM     26  C   UNL     1       2.085   0.613   1.202  0.00  0.00    +0.023 C 
ATOM     27  C   UNL     1       0.680   0.012   1.297  0.00  0.00    -0.004 C 
ATOM     28  C   UNL     1      -0.011   0.134  -0.064  0.00  0.00    +0.023 C 
ATOM     29  C   UNL     1       0.835  -0.575  -1.125  0.00  0.00    +0.105 C 
BRANCH  27  30
ATOM     30  C   UNL     1      -0.130   0.770   2.350  0.00  0.00    +0.038 C 
BRANCH  30  31
ATOM     31  C   UNL     1      -1.469   0.103   2.531  0.00  0.00    -0.047 A 
ATOM     32  C   UNL     1      -2.547   0.497   1.761  0.00  0.00    +0.003 A 
ATOM     33  C   UNL     1      -3.775  -0.118   1.923  0.00  0.00    +0.000 A 
ATOM     34  C   UNL     1      -3.926  -1.121   2.862  0.00  0.00    +0.000 A 
ATOM     35  C   UNL     1      -2.849  -1.513   3.635  0.00  0.00    +0.000 A 
ATOM     36  C   UNL     1      -1.621  -0.900   3.470  0.00  0.00    +0.003 A 
ENDBRANCH  30  31
ENDBRANCH  27  30
ENDBRANCH   6  24
BRANCH   3  37
ATOM     37  N   UNL     1       5.216  -2.135  -5.406  0.00  0.00    +0.056 N 
ATOM     38  O   UNL     1       5.452  -3.330  -5.427  0.00  0.00    -0.126 OA
ATOM     39  O   UNL     1       5.637  -1.416  -6.294  0.00  0.00    -0.126 OA
ENDBRANCH   3  37
TORSDOF 6
