REMARK  Name = ZINC09058995
REMARK  8 active torsions:
REMARK  status: ('A' for Active; 'I' for Inactive)
REMARK    1  A    between atoms: C_1  and  O_2
REMARK    2  A    between atoms: O_2  and  C_3
REMARK    3  A    between atoms: C_3  and  C_4
REMARK    4  A    between atoms: C_4  and  N_5
REMARK    5  A    between atoms: C_10  and  C_26
REMARK    6  A    between atoms: C_26  and  C_27
REMARK    7  A    between atoms: C_30  and  O_34
REMARK    8  A    between atoms: C_31  and  O_33
REMARK                            x       y       z     vdW  Elec       q    Type
REMARK                         _______ _______ _______ _____ _____    ______ ____
ROOT
ATOM      1  N   UNL     1      -0.397   5.294   2.671  0.00  0.00    -0.240 N 
ATOM      2  C   UNL     1      -1.071   5.528   1.499  0.00  0.00    +0.224 C 
ATOM      3  O   UNL     1      -1.849   6.428   1.262  0.00  0.00    -0.275 OA
ATOM      4  C   UNL     1      -0.639   4.431   0.577  0.00  0.00    +0.073 C 
ATOM      5  C   UNL     1      -0.436   4.647  -0.907  0.00  0.00    -0.053 C 
ATOM      6  C   UNL     1       1.494   3.553   0.013  0.00  0.00    +0.050 C 
ATOM      7  C   UNL     1       0.856   4.342   1.067  0.00  0.00    +0.088 C 
ATOM      8  C   UNL     1       0.689   4.469   2.497  0.00  0.00    +0.225 C 
ATOM      9  O   UNL     1       1.360   3.943   3.358  0.00  0.00    -0.275 OA
ATOM     10  C   UNL     1       1.164   2.087   0.002  0.00  0.00    -0.028 A 
ATOM     11  C   UNL     1      -0.017   1.379   0.010  0.00  0.00    +0.004 A 
ATOM     12  C   UNL     1       0.002  -0.004   0.002  0.00  0.00    +0.000 A 
ATOM     13  C   UNL     1       1.211  -0.676  -0.015  0.00  0.00    +0.002 A 
ATOM     14  C   UNL     1       2.397   0.028  -0.024  0.00  0.00    +0.023 A 
ATOM     15  C   UNL     1       2.386   1.421  -0.015  0.00  0.00    +0.036 A 
ATOM     16  N   UNL     1       3.438   2.340  -0.021  0.00  0.00    -0.286 N 
ATOM     17  C   UNL     1       3.000   3.612  -0.005  0.00  0.00    +0.211 C 
ATOM     18  O   UNL     1       3.685   4.613  -0.004  0.00  0.00    -0.277 OA
ATOM     19  H   UNL     1       4.375   2.090  -0.036  0.00  0.00    +0.155 HD
ATOM     20  N   UNL     1       0.948   4.209  -1.207  0.00  0.00    +0.394 N 
ATOM     21  H   UNL     1       1.526   5.022  -1.454  0.00  0.00    -0.083 HD
ATOM     22  H   UNL     1       0.943   3.543  -1.988  0.00  0.00    -0.083 HD
ENDROOT
BRANCH   1  23
ATOM     23  C   UNL     1      -0.790   5.860   3.963  0.00  0.00    +0.144 C 
BRANCH  23  24
ATOM     24  C   UNL     1      -1.761   4.907   4.663  0.00  0.00    +0.179 C 
BRANCH  24  26
ATOM     25  C   UNL     1      -1.910   2.721   5.634  0.00  0.00    +0.194 C 
ATOM     26  O   UNL     1      -1.088   3.686   4.974  0.00  0.00    -0.381 OA
ENDBRANCH  24  26
ENDBRANCH  23  24
ENDBRANCH   1  23
BRANCH   5  27
ATOM     27  C   UNL     1      -1.439   3.805  -1.699  0.00  0.00    +0.020 C 
BRANCH  27  28
ATOM     28  C   UNL     1      -1.293   4.102  -3.169  0.00  0.00    -0.045 A 
ATOM     29  C   UNL     1      -2.042   5.110  -3.747  0.00  0.00    +0.007 A 
ATOM     30  C   UNL     1      -1.908   5.389  -5.095  0.00  0.00    +0.049 A 
ATOM     31  C   UNL     1      -1.030   4.650  -5.871  0.00  0.00    +0.158 A 
ATOM     32  C   UNL     1      -0.280   3.632  -5.291  0.00  0.00    +0.158 A 
ATOM     33  C   UNL     1      -0.415   3.361  -3.938  0.00  0.00    +0.052 A 
BRANCH  32  34
ATOM     34  O   UNL     1       0.583   2.904  -6.049  0.00  0.00    -0.503 OA
ATOM     35  H   UNL     1       0.188   2.117  -6.448  0.00  0.00    +0.292 HD
ENDBRANCH  32  34
BRANCH  31  36
ATOM     36  O   UNL     1      -0.901   4.920  -7.198  0.00  0.00    -0.503 OA
ATOM     37  H   UNL     1      -1.507   4.421  -7.762  0.00  0.00    +0.292 HD
ENDBRANCH  31  36
ENDBRANCH  27  28
ENDBRANCH   5  27
TORSDOF 7
