REMARK  Name = ZINC64008847
REMARK  6 active torsions:
REMARK  status: ('A' for Active; 'I' for Inactive)
REMARK    1  A    between atoms: C_7  and  C_10
REMARK    2  A    between atoms: C_10  and  C_12
REMARK    3  A    between atoms: C_12  and  S_13
REMARK    4  A    between atoms: S_13  and  C_14
REMARK    5  A    between atoms: N_19  and  C_20
REMARK    6  A    between atoms: C_20  and  C_21
REMARK                            x       y       z     vdW  Elec       q    Type
REMARK                         _______ _______ _______ _____ _____    ______ ____
ROOT
ATOM      1  C   UNL     1       0.596  -7.337  -0.048  0.00  0.00    +0.236 C 
ATOM      2  N   UNL     1       1.516  -7.441   1.099  0.00  0.00    -0.259 N 
ATOM      3  N   UNL     1       2.789  -7.661   0.558  0.00  0.00    -0.283 N 
ATOM      4  C   UNL     1       2.754  -7.702  -0.731  0.00  0.00    +0.178 C 
ATOM      5  N   UNL     1       1.467  -7.519  -1.221  0.00  0.00    -0.273 N 
ATOM      6  N   UNL     1       3.869  -7.906  -1.532  0.00  0.00    -0.299 N 
ATOM      7  C   UNL     1       5.170  -7.313  -1.185  0.00  0.00    +0.136 C 
ATOM      8  C   UNL     1       6.232  -8.417  -1.230  0.00  0.00    +0.179 C 
ATOM      9  O   UNL     1       6.157  -9.092  -2.488  0.00  0.00    -0.377 OA
ATOM     10  C   UNL     1       4.915  -9.759  -2.721  0.00  0.00    +0.179 C 
ATOM     11  C   UNL     1       3.786  -8.728  -2.750  0.00  0.00    +0.136 C 
ATOM     12  H   UNL     1       1.286  -7.370   2.038  0.00  0.00    +0.169 HD
ATOM     13  H   UNL     1       3.595  -7.769   1.086  0.00  0.00    +0.187 HD
ENDROOT
BRANCH   1  14
ATOM     14  S   UNL     1      -0.192  -5.703  -0.086  0.00  0.00    -0.110 S 
BRANCH  14  15
ATOM     15  C   UNL     1       1.204  -4.545  -0.133  0.00  0.00    +0.151 C 
BRANCH  15  16
ATOM     16  C   UNL     1       0.682  -3.131  -0.168  0.00  0.00    +0.171 C 
ATOM     17  O   UNL     1      -0.515  -2.926  -0.162  0.00  0.00    -0.291 OA
BRANCH  16  24
ATOM     18  C   UNL     1       0.033   1.355  -0.288  0.00  0.00    +0.001 A 
ATOM     19  C   UNL     1       1.211   2.117  -0.321  0.00  0.00    +0.002 A 
ATOM     20  C   UNL     1       2.434   1.544  -0.318  0.00  0.00    +0.026 A 
ATOM     21  C   UNL     1       2.536   0.075  -0.277  0.00  0.00    +0.043 A 
ATOM     22  N   UNL     1       3.563  -0.725  -0.265  0.00  0.00    -0.380 N 
ATOM     23  C   UNL     1       3.095  -2.114  -0.221  0.00  0.00    +0.152 C 
ATOM     24  C   UNL     1       1.584  -2.047  -0.208  0.00  0.00    +0.024 C 
ATOM     25  C   UNL     1       1.271  -0.700  -0.242  0.00  0.00    +0.006 A 
ATOM     26  C   UNL     1       0.044   0.003  -0.250  0.00  0.00    +0.010 A 
ATOM     27  H   UNL     1       4.492  -0.446  -0.283  0.00  0.00    +0.160 HD
ENDBRANCH  16  24
ENDBRANCH  15  16
ENDBRANCH  14  15
ENDBRANCH   1  14
BRANCH   5  28
ATOM     28  C   UNL     1       1.056  -7.508  -2.627  0.00  0.00    +0.142 C 
BRANCH  28  29
ATOM     29  C   UNL     1       1.221  -6.097  -3.196  0.00  0.00    +0.136 C 
ATOM     30  C   UNL     1       0.677  -6.047  -4.640  0.00  0.00    +0.035 C 
ATOM     31  C   UNL     1       1.712  -5.133  -5.350  0.00  0.00    +0.031 C 
ATOM     32  C   UNL     1       3.013  -5.525  -4.605  0.00  0.00    +0.160 C 
ATOM     33  O   UNL     1       2.611  -5.752  -3.243  0.00  0.00    -0.375 OA
ENDBRANCH  28  29
ENDBRANCH   5  28
TORSDOF 6
