REMARK  Name = ZINC39324882
REMARK  10 active torsions:
REMARK  status: ('A' for Active; 'I' for Inactive)
REMARK    1  A    between atoms: C_1  and  O_2
REMARK    2  A    between atoms: O_2  and  C_3
REMARK    3  A    between atoms: C_6  and  S_9
REMARK    4  A    between atoms: S_9  and  N_12
REMARK    5  A    between atoms: N_12  and  C_13
REMARK    6  A    between atoms: N_12  and  C_23
REMARK    7  A    between atoms: C_13  and  C_14
REMARK    8  A    between atoms: C_23  and  C_24
REMARK    9  A    between atoms: C_29  and  O_36
REMARK   10  A    between atoms: O_36  and  C_37
REMARK                            x       y       z     vdW  Elec       q    Type
REMARK                         _______ _______ _______ _____ _____    ______ ____
ROOT
ATOM      1  N   UNL     1       1.636  -2.646   5.587  0.00  0.00    -0.171 NA
ENDROOT
BRANCH   1   2
ATOM      2  S   UNL     1       2.702  -2.294   4.370  0.00  0.00    +0.061 S 
ATOM      3  O   UNL     1       3.046  -3.530   3.760  0.00  0.00    -0.153 OA
ATOM      4  O   UNL     1       3.677  -1.421   4.924  0.00  0.00    -0.153 OA
BRANCH   2   8
ATOM      5  C   UNL     1       0.441   0.099   1.260  0.00  0.00    +0.120 A 
ATOM      6  C   UNL     1       1.084   0.748   2.304  0.00  0.00    +0.047 A 
ATOM      7  C   UNL     1       1.773   0.016   3.251  0.00  0.00    +0.032 A 
ATOM      8  C   UNL     1       1.822  -1.363   3.160  0.00  0.00    +0.106 A 
ATOM      9  C   UNL     1       1.183  -2.012   2.120  0.00  0.00    +0.032 A 
ATOM     10  C   UNL     1       0.487  -1.285   1.173  0.00  0.00    +0.047 A 
BRANCH   5  12
ATOM     11  C   UNL     1      -0.242   2.238   0.479  0.00  0.00    +0.277 C 
ATOM     12  O   UNL     1      -0.237   0.817   0.327  0.00  0.00    -0.495 OA
ENDBRANCH   5  12
ENDBRANCH   2   8
ENDBRANCH   1   2
BRANCH   1  13
ATOM     13  C   UNL     1       0.929  -3.929   5.592  0.00  0.00    +0.144 C 
BRANCH  13  14
ATOM     14  C   UNL     1       1.679  -4.913   6.452  0.00  0.00    -0.028 A 
ATOM     15  C   UNL     1       2.659  -5.712   5.893  0.00  0.00    +0.009 A 
ATOM     16  C   UNL     1       3.351  -6.615   6.678  0.00  0.00    +0.050 A 
ATOM     17  C   UNL     1       3.063  -6.723   8.029  0.00  0.00    +0.166 A 
ATOM     18  C   UNL     1       2.076  -5.918   8.593  0.00  0.00    +0.167 A 
ATOM     19  C   UNL     1       1.391  -5.011   7.801  0.00  0.00    +0.054 A 
ATOM     20  O   UNL     1       1.982  -6.210   9.923  0.00  0.00    -0.453 OA
ATOM     21  C   UNL     1       2.634  -7.484  10.083  0.00  0.00    +0.466 C 
ATOM     22  O   UNL     1       3.587  -7.519   9.005  0.00  0.00    -0.453 OA
ENDBRANCH  13  14
ENDBRANCH   1  13
BRANCH   1  23
ATOM     23  C   UNL     1       1.400  -1.675   6.658  0.00  0.00    +0.126 C 
BRANCH  23  24
ATOM     24  C   UNL     1      -0.080  -1.287   6.678  0.00  0.00    +0.114 C 
ATOM     25  C   UNL     1      -0.308  -0.384   7.873  0.00  0.00    -0.003 C 
ATOM     26  C   UNL     1      -0.816   0.858   7.631  0.00  0.00    -0.004 A 
ATOM     27  C   UNL     1      -1.067   1.793   8.728  0.00  0.00    +0.055 A 
ATOM     28  C   UNL     1      -1.575   3.023   8.439  0.00  0.00    +0.121 A 
ATOM     29  C   UNL     1      -1.858   3.401   7.121  0.00  0.00    +0.047 A 
ATOM     30  C   UNL     1      -1.646   2.577   6.062  0.00  0.00    +0.027 A 
ATOM     31  C   UNL     1      -1.123   1.285   6.255  0.00  0.00    +0.041 A 
ATOM     32  N   UNL     1      -0.920   0.487   5.206  0.00  0.00    -0.284 N 
ATOM     33  C   UNL     1      -0.433  -0.737   5.314  0.00  0.00    +0.225 C 
ATOM     34  O   UNL     1      -0.270  -1.419   4.320  0.00  0.00    -0.275 OA
ATOM     35  H   UNL     1      -1.140   0.820   4.322  0.00  0.00    +0.155 HD
BRANCH  28  36
ATOM     36  O   UNL     1      -1.812   3.901   9.449  0.00  0.00    -0.495 OA
ATOM     37  C   UNL     1      -2.346   5.176   9.089  0.00  0.00    +0.277 C 
ENDBRANCH  28  36
ENDBRANCH  23  24
ENDBRANCH   1  23
TORSDOF 8
