REMARK  Name = ZINC15015728
REMARK  9 active torsions:
REMARK  status: ('A' for Active; 'I' for Inactive)
REMARK    1  A    between atoms: C_1  and  C_2
REMARK    2  A    between atoms: N_16  and  N_17
REMARK    3  A    between atoms: C_18  and  C_19
REMARK    4  A    between atoms: C_23  and  C_28
REMARK    5  A    between atoms: C_25  and  C_27
REMARK    6  A    between atoms: C_28  and  C_29
REMARK    7  A    between atoms: C_29  and  C_30
REMARK    8  A    between atoms: C_31  and  C_32
REMARK    9  A    between atoms: C_31  and  C_33
REMARK                            x       y       z     vdW  Elec       q    Type
REMARK                         _______ _______ _______ _____ _____    ______ ____
ROOT
ATOM      1  C   UNL     1      -8.244   3.376   0.856  0.00  0.00    +0.046 C 
ATOM      2  C   UNL     1      -7.262   4.494   0.619  0.00  0.00    -0.026 A 
ATOM      3  C   UNL     1      -7.720   5.775   0.390  0.00  0.00    +0.005 A 
ATOM      4  C   UNL     1      -6.828   6.813   0.170  0.00  0.00    +0.001 A 
ATOM      5  C   UNL     1      -5.470   6.575   0.180  0.00  0.00    +0.012 A 
ATOM      6  C   UNL     1      -4.995   5.287   0.411  0.00  0.00    +0.029 A 
ATOM      7  C   UNL     1      -5.896   4.234   0.633  0.00  0.00    +0.053 A 
ATOM      8  N   UNL     1      -5.170   3.071   0.835  0.00  0.00    -0.337 N 
ATOM      9  H   UNL     1      -5.559   2.200   1.010  0.00  0.00    +0.167 HD
ATOM     10  C   UNL     1      -3.824   3.327   0.751  0.00  0.00    +0.163 A 
ATOM     11  C   UNL     1      -3.645   4.701   0.487  0.00  0.00    +0.138 A 
ATOM     12  N   UNL     1      -2.419   5.187   0.364  0.00  0.00    -0.142 NA
ATOM     13  N   UNL     1      -1.400   4.407   0.485  0.00  0.00    -0.111 NA
ATOM     14  C   UNL     1      -1.543   3.109   0.734  0.00  0.00    +0.256 A 
ATOM     15  N   UNL     1      -2.744   2.561   0.863  0.00  0.00    -0.192 NA
ATOM     16  N   UNL     1      -0.416   2.313   0.854  0.00  0.00    -0.204 N 
ATOM     17  H   UNL     1      -0.509   1.365   1.036  0.00  0.00    +0.177 HD
ENDROOT
BRANCH  16  18
ATOM     18  N   UNL     1       0.858   2.876   0.709  0.00  0.00    -0.192 NA
ATOM     19  C   UNL     1       1.900   2.139   0.815  0.00  0.00    +0.107 C 
BRANCH  19  20
ATOM     20  C   UNL     1       3.271   2.745   0.658  0.00  0.00    +0.039 C 
ATOM     21  C   UNL     1       4.009   2.056  -0.492  0.00  0.00    +0.036 C 
ATOM     22  C   UNL     1       5.455   2.457  -0.492  0.00  0.00    -0.027 C 
ATOM     23  C   UNL     1       6.057   2.999   0.518  0.00  0.00    -0.073 C 
ATOM     24  C   UNL     1       5.391   3.311   1.826  0.00  0.00    +0.034 C 
ATOM     25  C   UNL     1       4.077   2.536   1.946  0.00  0.00    -0.001 C 
ATOM     26  C   UNL     1       4.374   1.046   2.131  0.00  0.00    +0.008 C 
BRANCH  23  27
ATOM     27  C   UNL     1       7.518   3.337   0.370  0.00  0.00    +0.034 C 
BRANCH  27  28
ATOM     28  C   UNL     1       7.663   4.801  -0.052  0.00  0.00    +0.031 C 
BRANCH  28  29
ATOM     29  C   UNL     1       9.124   5.139  -0.199  0.00  0.00    -0.028 C 
ATOM     30  C   UNL     1       9.570   5.642  -1.323  0.00  0.00    -0.080 C 
ATOM     31  C   UNL     1       8.605   5.994  -2.426  0.00  0.00    +0.038 C 
ATOM     32  C   UNL     1      11.048   5.869  -1.513  0.00  0.00    +0.038 C 
ENDBRANCH  28  29
ENDBRANCH  27  28
ENDBRANCH  23  27
ENDBRANCH  19  20
ENDBRANCH  16  18
TORSDOF 5
