REMARK  Name = ZINC41511936
REMARK  6 active torsions:
REMARK  status: ('A' for Active; 'I' for Inactive)
REMARK    1  A    between atoms: C_1  and  C_2
REMARK    2  A    between atoms: N_8  and  C_9
REMARK    3  A    between atoms: C_9  and  C_10
REMARK    4  A    between atoms: C_11  and  O_32
REMARK    5  A    between atoms: C_17  and  C_28
REMARK    6  A    between atoms: C_18  and  C_21
REMARK                            x       y       z     vdW  Elec       q    Type
REMARK                         _______ _______ _______ _____ _____    ______ ____
ROOT
ATOM      1  C   UNL     1       1.306  -0.767   3.586  0.00  0.00    +0.020 A 
ATOM      2  C   UNL     1       1.075  -1.880   4.376  0.00  0.00    +0.122 A 
ATOM      3  C   UNL     1       1.636  -1.978   5.647  0.00  0.00    +0.046 A 
ATOM      4  C   UNL     1       2.427  -0.974   6.130  0.00  0.00    +0.019 A 
ATOM      5  C   UNL     1       2.672   0.151   5.345  0.00  0.00    +0.065 A 
ATOM      6  C   UNL     1       2.110   0.261   4.060  0.00  0.00    +0.144 A 
ATOM      7  O   UNL     1       2.340   1.355   3.308  0.00  0.00    -0.450 OA
ATOM      8  C   UNL     1       3.322   2.212   3.595  0.00  0.00    +0.219 A 
ATOM      9  C   UNL     1       3.952   2.231   4.799  0.00  0.00    +0.076 A 
ATOM     10  C   UNL     1       3.527   1.254   5.823  0.00  0.00    +0.201 A 
ATOM     11  O   UNL     1       3.872   1.345   6.989  0.00  0.00    -0.286 OA
ENDROOT
BRANCH   9  12
ATOM     12  C   UNL     1       5.028   3.212   5.081  0.00  0.00    -0.011 A 
ATOM     13  C   UNL     1       4.710   4.546   5.330  0.00  0.00    +0.010 A 
ATOM     14  C   UNL     1       5.715   5.455   5.592  0.00  0.00    +0.016 A 
ATOM     15  C   UNL     1       7.037   5.044   5.607  0.00  0.00    +0.018 A 
ATOM     16  C   UNL     1       7.358   3.720   5.359  0.00  0.00    +0.016 A 
ATOM     17  C   UNL     1       6.360   2.802   5.102  0.00  0.00    +0.010 A 
ATOM     18 BR   UNL     1       8.409   6.295   5.966  0.00  0.00    -0.050 Br
ENDBRANCH   9  12
BRANCH   8  19
ATOM     19  C   UNL     1       3.751   3.199   2.541  0.00  0.00    +0.451 C 
ATOM     20  F   UNL     1       4.897   3.875   2.972  0.00  0.00    -0.163 F 
ATOM     21  F   UNL     1       4.031   2.518   1.351  0.00  0.00    -0.163 F 
ATOM     22  F   UNL     1       2.721   4.121   2.319  0.00  0.00    -0.163 F 
ENDBRANCH   8  19
BRANCH   2  23
ATOM     23  O   UNL     1       0.293  -2.886   3.908  0.00  0.00    -0.506 OA
ATOM     24  H   UNL     1       0.778  -3.570   3.427  0.00  0.00    +0.292 HD
ENDBRANCH   2  23
BRANCH   1  25
ATOM     25  C   UNL     1       0.693  -0.675   2.212  0.00  0.00    -0.035 C 
BRANCH  25  32
ATOM     26  C   UNL     1       0.838   0.424  -0.368  0.00  0.00    -0.013 C 
ATOM     27  C   UNL     1       1.064  -1.070  -0.122  0.00  0.00    -0.071 C 
ATOM     28  C   UNL     1       2.052  -1.612  -1.158  0.00  0.00    -0.016 C 
ATOM     29  C   UNL     1       2.275  -3.107  -0.908  0.00  0.00    -0.003 C 
ATOM     30  C   UNL     1       2.770  -3.307   0.527  0.00  0.00    -0.019 C 
ATOM     31  C   UNL     1       1.755  -2.701   1.500  0.00  0.00    -0.078 C 
ATOM     32  N   UNL     1       1.607  -1.267   1.227  0.00  0.00    +0.384 N 
ATOM     33  H   UNL     1       2.508  -0.817   1.295  0.00  0.00    -0.081 HD
ENDBRANCH  25  32
ENDBRANCH   1  25
TORSDOF 5
