REMARK  Name = ZINC36080265
REMARK  10 active torsions:
REMARK  status: ('A' for Active; 'I' for Inactive)
REMARK    1  A    between atoms: C_1  and  C_2
REMARK    2  A    between atoms: C_2  and  O_3
REMARK    3  A    between atoms: O_3  and  C_4
REMARK    4  A    between atoms: C_4  and  C_6
REMARK    5  A    between atoms: C_7  and  C_21
REMARK    6  A    between atoms: C_12  and  C_14
REMARK    7  A    between atoms: C_21  and  N_22
REMARK    8  A    between atoms: N_25  and  C_30
REMARK    9  A    between atoms: C_26  and  C_29
REMARK   10  A    between atoms: C_34  and  C_36
REMARK                            x       y       z     vdW  Elec       q    Type
REMARK                         _______ _______ _______ _____ _____    ______ ____
ROOT
ATOM      1  C   UNL     1       1.677  -2.497  -3.197  0.00  0.00    +0.079 C 
ATOM      2  C   UNL     1       1.849  -3.827  -3.032  0.00  0.00    +0.038 C 
ATOM      3  N   UNL     1       2.538  -4.567  -3.949  0.00  0.00    -0.271 N 
ATOM      4  C   UNL     1       3.087  -4.053  -5.057  0.00  0.00    +0.304 C 
ATOM      5  O   UNL     1       3.683  -4.793  -5.815  0.00  0.00    -0.252 OA
ATOM      6  N   UNL     1       3.000  -2.743  -5.359  0.00  0.00    -0.288 N 
ATOM      7  C   UNL     1       2.269  -1.858  -4.436  0.00  0.00    +0.144 C 
ATOM      8  H   UNL     1       2.636  -5.519  -3.788  0.00  0.00    +0.156 HD
ATOM      9  H   UNL     1       3.405  -2.392  -6.167  0.00  0.00    +0.151 HD
ENDROOT
BRANCH   7  10
ATOM     10  C   UNL     1       1.149  -1.202  -5.201  0.00  0.00    -0.022 A 
ATOM     11  C   UNL     1       0.322  -1.965  -6.003  0.00  0.00    +0.008 A 
ATOM     12  C   UNL     1      -0.706  -1.365  -6.706  0.00  0.00    +0.038 A 
ATOM     13  C   UNL     1      -0.907   0.001  -6.606  0.00  0.00    +0.123 A 
ATOM     14  C   UNL     1      -0.077   0.765  -5.802  0.00  0.00    +0.038 A 
ATOM     15  C   UNL     1       0.947   0.162  -5.097  0.00  0.00    +0.008 A 
ATOM     16  F   UNL     1      -1.911   0.589  -7.292  0.00  0.00    -0.205 F 
ENDBRANCH   7  10
BRANCH   1  17
ATOM     17  C   UNL     1       0.962  -1.729  -2.248  0.00  0.00    +0.339 C 
ATOM     18  O   UNL     1      -0.202  -1.440  -2.452  0.00  0.00    -0.245 OA
BRANCH  17  19
ATOM     19  O   UNL     1       1.571  -1.317  -1.116  0.00  0.00    -0.462 OA
BRANCH  19  21
ATOM     20  C   UNL     1       1.644  -0.173   1.011  0.00  0.00    +0.048 C 
ATOM     21  C   UNL     1       0.790  -0.545  -0.203  0.00  0.00    +0.229 C 
ENDBRANCH  19  21
ENDBRANCH  17  19
ENDBRANCH   1  17
BRANCH   2  22
ATOM     22  C   UNL     1       1.271  -4.504  -1.816  0.00  0.00    +0.136 C 
BRANCH  22  23
ATOM     23  N   UNL     1       0.252  -5.476  -2.235  0.00  0.00    -0.294 NA
ATOM     24  C   UNL     1      -0.899  -4.801  -2.848  0.00  0.00    +0.103 C 
ATOM     25  C   UNL     1      -1.851  -5.851  -3.432  0.00  0.00    +0.121 C 
ATOM     26  N   UNL     1      -2.187  -6.816  -2.374  0.00  0.00    -0.325 N 
ATOM     27  C   UNL     1      -1.086  -7.433  -1.619  0.00  0.00    +0.084 C 
ATOM     28  C   UNL     1      -0.164  -6.321  -1.107  0.00  0.00    +0.107 C 
ATOM     29  C   UNL     1      -1.651  -8.223  -0.437  0.00  0.00    +0.029 C 
BRANCH  26  30
ATOM     30  C   UNL     1      -3.517  -7.138  -2.094  0.00  0.00    +0.030 A 
ATOM     31  C   UNL     1      -4.351  -6.199  -1.500  0.00  0.00    +0.023 A 
ATOM     32  C   UNL     1      -5.665  -6.521  -1.224  0.00  0.00    +0.002 A 
ATOM     33  C   UNL     1      -6.152  -7.777  -1.539  0.00  0.00    +0.003 A 
ATOM     34  C   UNL     1      -5.324  -8.714  -2.130  0.00  0.00    -0.049 A 
ATOM     35  C   UNL     1      -4.010  -8.397  -2.413  0.00  0.00    +0.026 A 
ATOM     36  C   UNL     1      -5.859 -10.082  -2.469  0.00  0.00    +0.044 C 
ENDBRANCH  26  30
ENDBRANCH  22  23
ENDBRANCH   2  22
TORSDOF 7
