REMARK  Name = ZINC05797596
REMARK  7 active torsions:
REMARK  status: ('A' for Active; 'I' for Inactive)
REMARK    1  A    between atoms: C_1  and  C_2
REMARK    2  A    between atoms: C_2  and  N_3
REMARK    3  A    between atoms: C_14  and  C_16
REMARK    4  A    between atoms: N_17  and  N_18
REMARK    5  A    between atoms: C_19  and  C_21
REMARK    6  A    between atoms: C_21  and  O_22
REMARK    7  A    between atoms: O_22  and  C_23
REMARK                            x       y       z     vdW  Elec       q    Type
REMARK                         _______ _______ _______ _____ _____    ______ ____
ROOT
ATOM      1  C   UNL     1      -0.727   8.911   0.057  0.00  0.00    +0.138 C 
ATOM      2  N   UNL     1      -0.150  10.074   0.058  0.00  0.00    -0.188 NA
ENDROOT
BRANCH   1  14
ATOM      3  N   UNL     1       2.180   4.106   0.003  0.00  0.00    -0.340 N 
ATOM      4  C   UNL     1       1.164   3.167   0.008  0.00  0.00    +0.050 A 
ATOM      5  C   UNL     1       1.175   1.775   0.000  0.00  0.00    +0.026 A 
ATOM      6  C   UNL     1      -0.013   1.076   0.008  0.00  0.00    +0.002 A 
ATOM      7  C   UNL     1      -1.226   1.747   0.017  0.00  0.00    +0.001 A 
ATOM      8  C   UNL     1      -1.257   3.125   0.031  0.00  0.00    +0.010 A 
ATOM      9  C   UNL     1      -0.065   3.844   0.023  0.00  0.00    +0.008 A 
ATOM     10  C   UNL     1       0.252   5.284   0.028  0.00  0.00    +0.008 A 
ATOM     11  C   UNL     1       1.653   5.384   0.015  0.00  0.00    +0.050 A 
ATOM     12  C   UNL     1       2.253   6.642   0.016  0.00  0.00    +0.027 A 
ATOM     13  C   UNL     1       1.487   7.771   0.030  0.00  0.00    +0.011 A 
ATOM     14  C   UNL     1       0.090   7.684   0.043  0.00  0.00    -0.005 A 
ATOM     15  C   UNL     1      -0.528   6.434   0.042  0.00  0.00    +0.020 A 
BRANCH   3  17
ATOM     16  C   UNL     1       4.095   3.688  -1.459  0.00  0.00    +0.027 C 
ATOM     17  C   UNL     1       3.611   3.790  -0.012  0.00  0.00    +0.119 C 
ENDBRANCH   3  17
ENDBRANCH   1  14
BRANCH   2  18
ATOM     18  N   UNL     1      -0.926  11.241   0.072  0.00  0.00    -0.204 N 
ATOM     19  C   UNL     1      -0.328  12.448   0.073  0.00  0.00    +0.270 C 
ATOM     20  O   UNL     1       0.883  12.525   0.061  0.00  0.00    -0.270 OA
ATOM     21  H   UNL     1      -1.894  11.179   0.082  0.00  0.00    +0.177 HD
BRANCH  19  22
ATOM     22  C   UNL     1      -1.162  13.703   0.088  0.00  0.00    +0.326 C 
BRANCH  22  23
ATOM     23  O   UNL     1      -0.304  14.846   0.086  0.00  0.00    -0.483 OA
BRANCH  23  24
ATOM     24  C   UNL     1      -0.902  16.066   0.099  0.00  0.00    +0.122 A 
ATOM     25  C   UNL     1      -2.298  16.150   0.107  0.00  0.00    +0.046 A 
ATOM     26  C   UNL     1      -2.925  17.357   0.126  0.00  0.00    +0.012 A 
ATOM     27  C   UNL     1      -2.164  18.538   0.125  0.00  0.00    -0.018 A 
ATOM     28  C   UNL     1      -2.779  19.802   0.137  0.00  0.00    +0.008 A 
ATOM     29  C   UNL     1      -2.011  20.925   0.136  0.00  0.00    +0.001 A 
ATOM     30  C   UNL     1      -0.620  20.844   0.122  0.00  0.00    +0.001 A 
ATOM     31  C   UNL     1       0.011  19.638   0.109  0.00  0.00    +0.008 A 
ATOM     32  C   UNL     1      -0.749  18.456   0.111  0.00  0.00    -0.014 A 
ATOM     33  C   UNL     1      -0.132  17.194   0.098  0.00  0.00    +0.054 A 
ENDBRANCH  23  24
ENDBRANCH  22  23
ENDBRANCH  19  22
ENDBRANCH   2  18
TORSDOF 6
