REMARK  Name = ZINC59040022
REMARK  10 active torsions:
REMARK  status: ('A' for Active; 'I' for Inactive)
REMARK    1  A    between atoms: C_1  and  O_2
REMARK    2  A    between atoms: O_2  and  C_3
REMARK    3  A    between atoms: C_5  and  C_13
REMARK    4  A    between atoms: C_6  and  N_10
REMARK    5  A    between atoms: C_8  and  O_9
REMARK    6  A    between atoms: N_14  and  N_15
REMARK    7  A    between atoms: C_18  and  S_21
REMARK    8  A    between atoms: S_21  and  C_22
REMARK    9  A    between atoms: C_22  and  C_23
REMARK   10  A    between atoms: N_25  and  C_26
REMARK                            x       y       z     vdW  Elec       q    Type
REMARK                         _______ _______ _______ _____ _____    ______ ____
ROOT
ATOM      1  N   UNL     1      -6.992   0.552  -0.414  0.00  0.00    -0.205 N 
ATOM      2  C   UNL     1      -8.214  -0.022  -0.384  0.00  0.00    +0.232 A 
ATOM      3  N   UNL     1      -8.485  -1.313  -0.554  0.00  0.00    -0.186 NA
ATOM      4  C   UNL     1      -9.801  -1.461  -0.450  0.00  0.00    +0.211 A 
ATOM      5  N   UNL     1     -10.345  -0.267  -0.216  0.00  0.00    -0.144 NA
ATOM      6  N   UNL     1      -9.406   0.616  -0.167  0.00  0.00    -0.245 N 
ATOM      7  H   UNL     1      -6.901   1.507  -0.273  0.00  0.00    +0.177 HD
ATOM      8  H   UNL     1      -9.524   1.565  -0.006  0.00  0.00    +0.192 HD
ENDROOT
BRANCH   1  10
ATOM      9  C   UNL     1      -4.741   0.394  -0.659  0.00  0.00    +0.140 C 
ATOM     10  N   UNL     1      -5.945  -0.171  -0.630  0.00  0.00    -0.187 NA
BRANCH   9  13
ATOM     11  C   UNL     1      -1.234  -0.554  -1.273  0.00  0.00    +0.162 A 
ATOM     12  C   UNL     1      -2.336   0.217  -1.045  0.00  0.00    +0.061 A 
ATOM     13  C   UNL     1      -3.601  -0.393  -0.895  0.00  0.00    +0.028 A 
ATOM     14  C   UNL     1      -3.715  -1.803  -0.982  0.00  0.00    +0.138 A 
ATOM     15  C   UNL     1      -2.609  -2.560  -1.210  0.00  0.00    +0.082 A 
ATOM     16  C   UNL     1      -1.359  -1.952  -1.363  0.00  0.00    +0.161 A 
BRANCH  14  17
ATOM     17  N   UNL     1      -5.038  -2.451  -0.826  0.00  0.00    +0.057 N 
ATOM     18  O   UNL     1      -5.767  -2.209   0.244  0.00  0.00    -0.126 OA
ATOM     19  O   UNL     1      -5.484  -3.269  -1.756  0.00  0.00    -0.126 OA
ENDBRANCH  14  17
BRANCH  11  21
ATOM     20  C   UNL     1       0.038   1.454  -1.314  0.00  0.00    +0.277 C 
ATOM     21  O   UNL     1      -0.016   0.030  -1.418  0.00  0.00    -0.491 OA
ENDBRANCH  11  21
BRANCH  16  22
ATOM     22  O   UNL     1      -0.264  -2.712  -1.595  0.00  0.00    -0.503 OA
ATOM     23  H   UNL     1       0.191  -3.001  -0.792  0.00  0.00    +0.292 HD
ENDBRANCH  16  22
ENDBRANCH   9  13
ENDBRANCH   1  10
BRANCH   4  24
ATOM     24  S   UNL     1     -10.680  -2.981  -0.598  0.00  0.00    -0.075 S 
BRANCH  24  25
ATOM     25  C   UNL     1     -12.415  -2.509  -0.359  0.00  0.00    +0.173 C 
BRANCH  25  26
ATOM     26  C   UNL     1     -13.288  -3.734  -0.462  0.00  0.00    +0.227 C 
ATOM     27  O   UNL     1     -12.788  -4.818  -0.675  0.00  0.00    -0.275 OA
ATOM     28  N   UNL     1     -14.623  -3.624  -0.317  0.00  0.00    -0.285 N 
ATOM     29  H   UNL     1     -15.030  -2.749  -0.221  0.00  0.00    +0.155 HD
BRANCH  28  30
ATOM     30  C   UNL     1     -15.423  -4.774  -0.304  0.00  0.00    +0.037 A 
ATOM     31  C   UNL     1     -16.706  -4.734  -0.834  0.00  0.00    +0.027 A 
ATOM     32  C   UNL     1     -17.495  -5.867  -0.821  0.00  0.00    +0.051 A 
ATOM     33  C   UNL     1     -17.010  -7.049  -0.280  0.00  0.00    +0.162 A 
ATOM     34  C   UNL     1     -15.725  -7.093   0.248  0.00  0.00    +0.164 A 
ATOM     35  C   UNL     1     -14.932  -5.956   0.232  0.00  0.00    +0.072 A 
ATOM     36  O   UNL     1     -15.229  -8.245   0.776  0.00  0.00    -0.485 OA
ATOM     37  C   UNL     1     -16.179  -9.263   1.109  0.00  0.00    +0.270 C 
ATOM     38  C   UNL     1     -17.153  -9.413  -0.067  0.00  0.00    +0.270 C 
ATOM     39  O   UNL     1     -17.804  -8.155  -0.273  0.00  0.00    -0.485 OA
ENDBRANCH  28  30
ENDBRANCH  25  26
ENDBRANCH  24  25
ENDBRANCH   4  24
TORSDOF 9
