REMARK  Name = ZINC16399619
REMARK  10 active torsions:
REMARK  status: ('A' for Active; 'I' for Inactive)
REMARK    1  A    between atoms: C_3  and  C_17
REMARK    2  A    between atoms: C_5  and  O_7
REMARK    3  A    between atoms: O_7  and  C_8
REMARK    4  A    between atoms: C_8  and  C_9
REMARK    5  A    between atoms: C_17  and  N_50
REMARK    6  A    between atoms: C_18  and  C_19
REMARK    7  A    between atoms: C_18  and  N_50
REMARK    8  A    between atoms: C_19  and  N_20
REMARK    9  A    between atoms: N_20  and  C_21
REMARK   10  A    between atoms: C_24  and  N_28
REMARK                            x       y       z     vdW  Elec       q    Type
REMARK                         _______ _______ _______ _____ _____    ______ ____
ROOT
ATOM      1  C   UNL     1      -3.969  -4.984  -0.011  0.00  0.00    -0.047 C 
ENDROOT
BRANCH   1   4
ATOM      2  C   UNL     1      -5.671  -1.613   0.018  0.00  0.00    +0.004 A 
ATOM      3  C   UNL     1      -5.469  -2.981   0.009  0.00  0.00    +0.002 A 
ATOM      4  C   UNL     1      -4.185  -3.493  -0.000  0.00  0.00    -0.061 A 
ATOM      5  C   UNL     1      -3.100  -2.638  -0.005  0.00  0.00    +0.047 A 
ATOM      6  C   UNL     1      -3.299  -1.265   0.009  0.00  0.00    +0.121 A 
ATOM      7  C   UNL     1      -4.589  -0.754   0.018  0.00  0.00    +0.045 A 
BRANCH   6   8
ATOM      8  O   UNL     1      -2.233  -0.422   0.009  0.00  0.00    -0.487 OA
BRANCH   8   9
ATOM      9  C   UNL     1      -2.514   0.979   0.019  0.00  0.00    +0.266 C 
BRANCH   9  10
ATOM     10  C   UNL     1      -1.219   1.750   0.017  0.00  0.00    +0.008 A 
ATOM     11  C   UNL     1      -0.013   1.076   0.008  0.00  0.00    +0.010 A 
ATOM     12  C   UNL     1       1.175   1.783   0.000  0.00  0.00    +0.020 A 
ATOM     13  C   UNL     1       1.157   3.166   0.008  0.00  0.00    +0.042 A 
ATOM     14  C   UNL     1      -0.050   3.842   0.023  0.00  0.00    +0.040 A 
ATOM     15  C   UNL     1      -1.238   3.134   0.031  0.00  0.00    +0.049 A 
ATOM     16 CL   UNL     1      -2.754   3.981   0.049  0.00  0.00    -0.083 Cl
ATOM     17 CL   UNL     1       2.648   4.054  -0.001  0.00  0.00    -0.083 Cl
ENDBRANCH   9  10
ENDBRANCH   8   9
ENDBRANCH   6   8
ENDBRANCH   1   4
BRANCH   1  18
ATOM     18  N   UNL     1      -3.906  -5.453  -1.408  0.00  0.00    +0.383 N 
ATOM     19  H   UNL     1      -3.129  -4.985  -1.888  0.00  0.00    -0.085 HD
ATOM     20  H   UNL     1      -4.788  -5.225  -1.882  0.00  0.00    -0.085 HD
BRANCH  18  21
ATOM     21  C   UNL     1      -3.695  -6.913  -1.449  0.00  0.00    -0.063 C 
BRANCH  21  22
ATOM     22  C   UNL     1      -3.634  -7.370  -2.907  0.00  0.00    +0.082 C 
BRANCH  22  23
ATOM     23  N   UNL     1      -3.425  -8.819  -2.957  0.00  0.00    -0.345 N 
ATOM     24  H   UNL     1      -3.348  -9.326  -2.134  0.00  0.00    +0.146 HD
BRANCH  23  25
ATOM     25  C   UNL     1      -3.335  -9.470  -4.190  0.00  0.00    +0.046 A 
ATOM     26  C   UNL     1      -3.444  -8.746  -5.370  0.00  0.00    +0.026 A 
ATOM     27  C   UNL     1      -3.355  -9.392  -6.587  0.00  0.00    +0.034 A 
ATOM     28  C   UNL     1      -3.157 -10.760  -6.632  0.00  0.00    +0.128 A 
ATOM     29  C   UNL     1      -3.048 -11.486  -5.460  0.00  0.00    +0.054 A 
ATOM     30  C   UNL     1      -3.130 -10.844  -4.239  0.00  0.00    +0.064 A 
ATOM     31 CL   UNL     1      -2.985 -11.754  -2.767  0.00  0.00    -0.082 Cl
BRANCH  28  32
ATOM     32  N   UNL     1      -3.062 -11.450  -7.938  0.00  0.00    +0.056 N 
ATOM     33  O   UNL     1      -3.158 -10.812  -8.972  0.00  0.00    -0.126 OA
ATOM     34  O   UNL     1      -2.887 -12.654  -7.980  0.00  0.00    -0.126 OA
ENDBRANCH  28  32
ENDBRANCH  23  25
ENDBRANCH  22  23
ENDBRANCH  21  22
ENDBRANCH  18  21
ENDBRANCH   1  18
TORSDOF 10
