REMARK  Name = ZINC63314346
REMARK  12 active torsions:
REMARK  status: ('A' for Active; 'I' for Inactive)
REMARK    1  A    between atoms: C_1  and  C_2
REMARK    2  A    between atoms: C_2  and  O_3
REMARK    3  A    between atoms: O_3  and  C_4
REMARK    4  A    between atoms: C_9  and  S_14
REMARK    5  A    between atoms: S_14  and  C_15
REMARK    6  A    between atoms: C_15  and  C_16
REMARK    7  A    between atoms: C_17  and  C_32
REMARK    8  A    between atoms: C_18  and  C_24
REMARK    9  A    between atoms: C_26  and  C_31
REMARK   10  A    between atoms: C_29  and  C_30
REMARK   11  A    between atoms: C_32  and  O_34
REMARK   12  A    between atoms: O_34  and  C_35
REMARK                            x       y       z     vdW  Elec       q    Type
REMARK                         _______ _______ _______ _____ _____    ______ ____
ROOT
ATOM      1  C   UNL     1       5.699  -6.229   1.267  0.00  0.00    +0.034 C 
ATOM      2  C   UNL     1       5.857  -7.097   0.244  0.00  0.00    +0.079 C 
ATOM      3  C   UNL     1       7.227  -7.716   0.051  0.00  0.00    +0.144 C 
ATOM      4  N   UNL     1       8.280  -7.317   1.000  0.00  0.00    -0.288 N 
ATOM      5  C   UNL     1       7.967  -6.438   1.972  0.00  0.00    +0.304 C 
ATOM      6  O   UNL     1       8.829  -6.102   2.761  0.00  0.00    -0.252 OA
ATOM      7  N   UNL     1       6.740  -5.917   2.094  0.00  0.00    -0.272 N 
ATOM      8  H   UNL     1       9.177  -7.680   0.927  0.00  0.00    +0.151 HD
ATOM      9  H   UNL     1       6.580  -5.285   2.813  0.00  0.00    +0.156 HD
ENDROOT
BRANCH   3  10
ATOM     10  C   UNL     1       7.075  -9.213   0.128  0.00  0.00    -0.019 A 
ATOM     11  C   UNL     1       7.193  -9.858   1.345  0.00  0.00    +0.009 A 
ATOM     12  C   UNL     1       7.054 -11.231   1.416  0.00  0.00    -0.050 A 
ATOM     13  C   UNL     1       6.797 -11.960   0.270  0.00  0.00    +0.003 A 
ATOM     14  C   UNL     1       6.679 -11.316  -0.947  0.00  0.00    +0.004 A 
ATOM     15  C   UNL     1       6.813  -9.942  -1.017  0.00  0.00    -0.045 A 
ATOM     16  C   UNL     1       6.679  -9.238  -2.343  0.00  0.00    +0.044 C 
ATOM     17  C   UNL     1       7.182 -11.934   2.743  0.00  0.00    +0.044 C 
ENDBRANCH   3  10
BRANCH   2  18
ATOM     18  C   UNL     1       4.782  -7.418  -0.616  0.00  0.00    +0.339 C 
ATOM     19  O   UNL     1       4.153  -8.446  -0.447  0.00  0.00    -0.245 OA
BRANCH  18  20
ATOM     20  O   UNL     1       4.452  -6.583  -1.624  0.00  0.00    -0.465 OA
ATOM     21  C   UNL     1       3.355  -6.970  -2.454  0.00  0.00    +0.280 C 
ENDBRANCH  18  20
ENDBRANCH   2  18
BRANCH   1  22
ATOM     22  C   UNL     1       4.353  -5.591   1.496  0.00  0.00    +0.124 C 
BRANCH  22  23
ATOM     23  S   UNL     1       3.551  -6.367   2.925  0.00  0.00    -0.109 S 
BRANCH  23  29
ATOM     24  C   UNL     1       0.870  -1.675   0.739  0.00  0.00    +0.123 A 
ATOM     25  C   UNL     1       0.256  -2.663  -0.139  0.00  0.00    +0.048 A 
ATOM     26  C   UNL     1       0.308  -3.982   0.128  0.00  0.00    +0.031 A 
ATOM     27  C   UNL     1       1.002  -4.456   1.335  0.00  0.00    +0.061 A 
ATOM     28  N   UNL     1       1.198  -5.648   1.821  0.00  0.00    -0.355 N 
ATOM     29  C   UNL     1       1.964  -5.498   3.064  0.00  0.00    +0.236 C 
ATOM     30  N   UNL     1       2.192  -4.059   3.240  0.00  0.00    -0.355 N 
ATOM     31  C   UNL     1       1.630  -3.448   2.232  0.00  0.00    +0.064 A 
ATOM     32  C   UNL     1       1.532  -2.034   1.866  0.00  0.00    +0.073 A 
ATOM     33  H   UNL     1       0.892  -6.483   1.433  0.00  0.00    +0.162 HD
ATOM     34  H   UNL     1       2.670  -3.638   3.971  0.00  0.00    +0.162 HD
BRANCH  24  35
ATOM     35  O   UNL     1       0.782  -0.361   0.415  0.00  0.00    -0.492 OA
BRANCH  35  37
ATOM     36  C   UNL     1       0.081   1.483  -0.980  0.00  0.00    +0.048 C 
ATOM     37  C   UNL     1       0.075  -0.034  -0.782  0.00  0.00    +0.225 C 
ENDBRANCH  35  37
ENDBRANCH  24  35
ENDBRANCH  23  29
ENDBRANCH  22  23
ENDBRANCH   1  22
TORSDOF 8
