REMARK  Name = ZINC00647136
REMARK  9 active torsions:
REMARK  status: ('A' for Active; 'I' for Inactive)
REMARK    1  A    between atoms: C_1  and  C_2
REMARK    2  A    between atoms: C_3  and  C_21
REMARK    3  A    between atoms: C_4  and  C_11
REMARK    4  A    between atoms: N_9  and  C_10
REMARK    5  A    between atoms: C_21  and  O_23
REMARK    6  A    between atoms: O_23  and  C_24
REMARK    7  A    between atoms: C_24  and  C_25
REMARK    8  A    between atoms: C_25  and  C_26
REMARK    9  A    between atoms: C_25  and  C_27
REMARK                            x       y       z     vdW  Elec       q    Type
REMARK                         _______ _______ _______ _____ _____    ______ ____
ROOT
ATOM      1  C   UNL     1      -0.364   1.206  -0.073  0.00  0.00    +0.061 C 
ATOM      2  C   UNL     1      -0.310  -0.299  -0.042  0.00  0.00    +0.024 C 
ATOM      3  C   UNL     1      -1.433  -0.999   0.233  0.00  0.00    +0.078 C 
ATOM      4  C   UNL     1      -1.334  -2.510   0.254  0.00  0.00    +0.145 C 
ATOM      5  N   UNL     1      -0.013  -3.097  -0.028  0.00  0.00    -0.288 N 
ATOM      6  C   UNL     1       1.016  -2.266  -0.285  0.00  0.00    +0.307 C 
ATOM      7  O   UNL     1       2.110  -2.741  -0.519  0.00  0.00    -0.252 OA
ATOM      8  N   UNL     1       0.871  -0.935  -0.297  0.00  0.00    -0.262 N 
ATOM      9  C   UNL     1       2.048  -0.114  -0.593  0.00  0.00    +0.139 C 
ATOM     10  H   UNL     1       0.113  -4.059  -0.029  0.00  0.00    +0.151 HD
ENDROOT
BRANCH   4  11
ATOM     11  C   UNL     1      -1.771  -2.985   1.616  0.00  0.00    -0.005 A 
ATOM     12  C   UNL     1      -0.835  -3.163   2.618  0.00  0.00    +0.056 A 
ATOM     13  C   UNL     1      -1.234  -3.600   3.870  0.00  0.00    +0.167 A 
ATOM     14  C   UNL     1      -2.580  -3.859   4.118  0.00  0.00    +0.167 A 
ATOM     15  C   UNL     1      -3.513  -3.679   3.110  0.00  0.00    +0.065 A 
ATOM     16  C   UNL     1      -3.108  -3.237   1.863  0.00  0.00    +0.027 A 
ATOM     17 BR   UNL     1      -4.385  -2.984   0.491  0.00  0.00    -0.050 Br
ATOM     18  O   UNL     1      -2.714  -4.272   5.412  0.00  0.00    -0.453 OA
ATOM     19  C   UNL     1      -1.391  -4.655   5.832  0.00  0.00    +0.466 C 
ATOM     20  O   UNL     1      -0.525  -3.851   5.010  0.00  0.00    -0.453 OA
ENDBRANCH   4  11
BRANCH   3  21
ATOM     21  C   UNL     1      -2.658  -0.342   0.492  0.00  0.00    +0.339 C 
ATOM     22  O   UNL     1      -3.016  -0.152   1.639  0.00  0.00    -0.245 OA
BRANCH  21  23
ATOM     23  O   UNL     1      -3.431   0.074  -0.533  0.00  0.00    -0.461 OA
BRANCH  23  24
ATOM     24  C   UNL     1      -4.597   0.830  -0.201  0.00  0.00    +0.235 C 
BRANCH  24  25
ATOM     25  C   UNL     1      -5.404   1.107  -1.472  0.00  0.00    +0.020 C 
ATOM     26  C   UNL     1      -5.909  -0.214  -2.054  0.00  0.00    +0.010 C 
ATOM     27  C   UNL     1      -6.596   2.005  -1.133  0.00  0.00    +0.010 C 
ENDBRANCH  24  25
ENDBRANCH  23  24
ENDBRANCH  21  23
ENDBRANCH   3  21
TORSDOF 5
