REMARK  Name = ZINC16033093
REMARK  8 active torsions:
REMARK  status: ('A' for Active; 'I' for Inactive)
REMARK    1  A    between atoms: C_1  and  C_2
REMARK    2  A    between atoms: C_2  and  C_3
REMARK    3  A    between atoms: C_2  and  C_4
REMARK    4  A    between atoms: C_4  and  C_5
REMARK    5  A    between atoms: C_5  and  C_7
REMARK    6  A    between atoms: C_5  and  N_16
REMARK    7  A    between atoms: N_9  and  C_10
REMARK    8  A    between atoms: C_17  and  C_19
REMARK                            x       y       z     vdW  Elec       q    Type
REMARK                         _______ _______ _______ _____ _____    ______ ____
ROOT
ATOM      1  C   UNL     1       2.381  -0.999  -0.106  0.00  0.00    +0.167 C 
ATOM      2  C   UNL     1       1.554  -0.250  -1.160  0.00  0.00    +0.069 C 
ATOM      3  C   UNL     1       0.088  -0.557  -0.988  0.00  0.00    -0.015 A 
ATOM      4  C   UNL     1      -1.034   0.161  -1.567  0.00  0.00    +0.003 A 
ATOM      5  C   UNL     1      -1.107   1.282  -2.399  0.00  0.00    +0.010 A 
ATOM      6  C   UNL     1      -2.363   1.701  -2.765  0.00  0.00    +0.001 A 
ATOM      7  C   UNL     1      -3.509   1.052  -2.337  0.00  0.00    +0.002 A 
ATOM      8  C   UNL     1      -3.465  -0.061  -1.514  0.00  0.00    +0.026 A 
ATOM      9  C   UNL     1      -2.203  -0.509  -1.127  0.00  0.00    +0.047 A 
ATOM     10  N   UNL     1      -1.802  -1.550  -0.340  0.00  0.00    -0.356 N 
ATOM     11  H   UNL     1      -2.396  -2.180   0.096  0.00  0.00    +0.166 HD
ATOM     12  C   UNL     1      -0.436  -1.569  -0.261  0.00  0.00    +0.046 A 
ATOM     13  C   UNL     1       0.411  -2.548   0.515  0.00  0.00    +0.155 C 
ATOM     14  N   UNL     1       1.801  -2.338   0.049  0.00  0.00    -0.273 N 
ATOM     15  C   UNL     1       2.338  -3.528  -0.253  0.00  0.00    +0.248 C 
ATOM     16  O   UNL     1       3.513  -3.724  -0.495  0.00  0.00    -0.270 OA
ATOM     17  C   UNL     1       1.294  -4.557  -0.245  0.00  0.00    +0.042 A 
ATOM     18  C   UNL     1       0.090  -3.967   0.192  0.00  0.00    -0.009 A 
ATOM     19  C   UNL     1      -1.082  -4.687   0.258  0.00  0.00    +0.006 A 
ATOM     20  C   UNL     1      -1.023  -6.028  -0.112  0.00  0.00    +0.000 A 
ATOM     21  C   UNL     1       0.153  -6.617  -0.528  0.00  0.00    +0.001 A 
ATOM     22  C   UNL     1       1.341  -5.905  -0.607  0.00  0.00    +0.013 A 
ENDROOT
BRANCH   1  24
ATOM     23  N   UNL     1       4.787  -0.458   0.094  0.00  0.00    -0.302 N 
ATOM     24  C   UNL     1       3.812  -1.113  -0.567  0.00  0.00    +0.235 C 
ATOM     25  O   UNL     1       4.086  -1.794  -1.532  0.00  0.00    -0.274 OA
ATOM     26  H   UNL     1       4.580   0.028   0.907  0.00  0.00    +0.150 HD
BRANCH  23  27
ATOM     27  C   UNL     1       6.160  -0.479  -0.417  0.00  0.00    +0.159 C 
BRANCH  27  28
ATOM     28  C   UNL     1       7.125  -0.329   0.730  0.00  0.00    +0.234 C 
ATOM     29  O   UNL     1       6.724   0.027   1.818  0.00  0.00    -0.274 OA
ATOM     30  N   UNL     1       8.434  -0.590   0.548  0.00  0.00    -0.311 N 
ATOM     31  H   UNL     1       8.767  -0.805  -0.338  0.00  0.00    +0.149 HD
BRANCH  30  32
ATOM     32  C   UNL     1       9.355  -0.550   1.686  0.00  0.00    +0.073 C 
ATOM     33  C   UNL     1       9.824   0.888   1.913  0.00  0.00    +0.022 C 
ATOM     34  C   UNL     1      10.786   0.930   3.102  0.00  0.00    +0.002 C 
ATOM     35  C   UNL     1      11.995   0.039   2.812  0.00  0.00    +0.000 C 
ATOM     36  C   UNL     1      11.526  -1.400   2.586  0.00  0.00    +0.002 C 
ATOM     37  C   UNL     1      10.565  -1.442   1.396  0.00  0.00    +0.022 C 
ENDBRANCH  30  32
ENDBRANCH  27  28
BRANCH  27  38
ATOM     38  C   UNL     1       6.355   0.676  -1.402  0.00  0.00    +0.034 C 
BRANCH  38  40
ATOM     39  C   UNL     1       7.793  -0.688  -2.922  0.00  0.00    +0.007 C 
ATOM     40  C   UNL     1       7.737   0.567  -2.049  0.00  0.00    -0.015 C 
ATOM     41  C   UNL     1       7.995   1.802  -2.914  0.00  0.00    +0.007 C 
ENDBRANCH  38  40
ENDBRANCH  27  38
ENDBRANCH  23  27
ENDBRANCH   1  24
TORSDOF 6
