REMARK  Name = ZINC08833893
REMARK  12 active torsions:
REMARK  status: ('A' for Active; 'I' for Inactive)
REMARK    1  A    between atoms: C_10  and  C_11
REMARK    2  A    between atoms: C_10  and  N_71
REMARK    3  A    between atoms: C_11  and  C_13
REMARK    4  A    between atoms: C_11  and  O_36
REMARK    5  A    between atoms: C_13  and  O_14
REMARK    6  A    between atoms: O_14  and  C_15
REMARK    7  A    between atoms: C_18  and  O_21
REMARK    8  A    between atoms: O_21  and  C_22
REMARK    9  A    between atoms: C_22  and  C_23
REMARK   10  A    between atoms: C_23  and  C_25
REMARK   11  A    between atoms: C_23  and  O_35
REMARK   12  A    between atoms: C_25  and  N_73
REMARK                            x       y       z     vdW  Elec       q    Type
REMARK                         _______ _______ _______ _____ _____    ______ ____
ROOT
ATOM      1  C   UNL     1       1.218   1.656  -9.776  0.00  0.00    +0.121 A 
ATOM      2  C   UNL     1      -0.044   2.229  -9.716  0.00  0.00    +0.049 A 
ATOM      3  C   UNL     1      -0.607   2.534  -8.492  0.00  0.00    +0.049 A 
ATOM      4  C   UNL     1       0.089   2.269  -7.323  0.00  0.00    +0.121 A 
ATOM      5  C   UNL     1       1.354   1.702  -7.382  0.00  0.00    +0.049 A 
ATOM      6  C   UNL     1       1.915   1.392  -8.606  0.00  0.00    +0.049 A 
ENDROOT
BRANCH   1   7
ATOM      7  O   UNL     1       1.771   1.355 -10.980  0.00  0.00    -0.489 OA
BRANCH   7   8
ATOM      8  C   UNL     1       3.074   0.767 -10.967  0.00  0.00    +0.258 C 
BRANCH   8   9
ATOM      9  C   UNL     1       3.528   0.500 -12.403  0.00  0.00    +0.135 C 
BRANCH   9  10
ATOM     10  O   UNL     1       3.680   1.742 -13.093  0.00  0.00    -0.390 OA
ATOM     11  H   UNL     1       4.331   2.337 -12.694  0.00  0.00    +0.210 HD
ENDBRANCH   9  10
BRANCH   9  12
ATOM     12  C   UNL     1       4.866  -0.241 -12.386  0.00  0.00    -0.043 C 
BRANCH  12  22
ATOM     13  C   UNL     1       7.893  -2.021 -17.769  0.00  0.00    +0.000 A 
ATOM     14  C   UNL     1       8.838  -1.674 -16.821  0.00  0.00    +0.000 A 
ATOM     15  C   UNL     1       8.437  -1.312 -15.551  0.00  0.00    +0.002 A 
ATOM     16  C   UNL     1       7.090  -1.294 -15.220  0.00  0.00    -0.061 A 
ATOM     17  C   UNL     1       6.148  -1.637 -16.166  0.00  0.00    -0.048 A 
ATOM     18  C   UNL     1       6.553  -2.002 -17.441  0.00  0.00    +0.004 A 
ATOM     19  C   UNL     1       4.673  -1.627 -15.855  0.00  0.00    +0.017 C 
ATOM     20  C   UNL     1       4.459  -1.613 -14.341  0.00  0.00    -0.074 C 
ATOM     21  C   UNL     1       6.701  -0.896 -13.820  0.00  0.00    -0.043 C 
ATOM     22  N   UNL     1       5.278  -0.519 -13.779  0.00  0.00    +0.384 N 
ATOM     23  H   UNL     1       5.139   0.328 -14.343  0.00  0.00    -0.081 HD
ENDBRANCH  12  22
ENDBRANCH   9  12
ENDBRANCH   8   9
ENDBRANCH   7   8
ENDBRANCH   1   7
BRANCH   4  24
ATOM     24  O   UNL     1      -0.465   2.570  -6.118  0.00  0.00    -0.489 OA
BRANCH  24  25
ATOM     25  C   UNL     1       0.309   2.270  -4.955  0.00  0.00    +0.258 C 
BRANCH  25  26
ATOM     26  C   UNL     1      -0.472   2.675  -3.704  0.00  0.00    +0.135 C 
BRANCH  26  27
ATOM     27  O   UNL     1      -0.643   4.094  -3.688  0.00  0.00    -0.390 OA
ATOM     28  H   UNL     1       0.187   4.590  -3.679  0.00  0.00    +0.210 HD
ENDBRANCH  26  27
BRANCH  26  29
ATOM     29  C   UNL     1       0.300   2.241  -2.457  0.00  0.00    -0.043 C 
BRANCH  29  39
ATOM     30  C   UNL     1       0.096   1.907  -0.065  0.00  0.00    -0.074 C 
ATOM     31  C   UNL     1      -0.548   2.523   1.178  0.00  0.00    +0.017 C 
ATOM     32  C   UNL     1      -2.053   2.473   1.049  0.00  0.00    -0.048 A 
ATOM     33  C   UNL     1      -2.819   2.650   2.192  0.00  0.00    +0.004 A 
ATOM     34  C   UNL     1      -4.197   2.616   2.120  0.00  0.00    +0.000 A 
ATOM     35  C   UNL     1      -4.817   2.405   0.903  0.00  0.00    +0.000 A 
ATOM     36  C   UNL     1      -4.056   2.227  -0.235  0.00  0.00    +0.002 A 
ATOM     37  C   UNL     1      -2.671   2.260  -0.164  0.00  0.00    -0.061 A 
ATOM     38  C   UNL     1      -1.883   2.057  -1.432  0.00  0.00    -0.043 C 
ATOM     39  N   UNL     1      -0.506   2.546  -1.253  0.00  0.00    +0.384 N 
ATOM     40  H   UNL     1      -0.526   3.563  -1.113  0.00  0.00    -0.081 HD
ENDBRANCH  29  39
ENDBRANCH  26  29
ENDBRANCH  25  26
ENDBRANCH  24  25
ENDBRANCH   4  24
TORSDOF 12
