REMARK  Name = ZINC09673337
REMARK  11 active torsions:
REMARK  status: ('A' for Active; 'I' for Inactive)
REMARK    1  A    between atoms: C_4  and  C_7
REMARK    2  A    between atoms: C_7  and  C_8
REMARK    3  A    between atoms: C_8  and  C_10
REMARK    4  A    between atoms: C_8  and  N_28
REMARK    5  A    between atoms: N_12  and  C_13
REMARK    6  A    between atoms: C_13  and  C_14
REMARK    7  A    between atoms: C_14  and  C_15
REMARK    8  A    between atoms: C_15  and  N_67
REMARK    9  A    between atoms: N_18  and  C_21
REMARK   10  A    between atoms: N_28  and  S_29
REMARK   11  A    between atoms: S_29  and  C_32
REMARK                            x       y       z     vdW  Elec       q    Type
REMARK                         _______ _______ _______ _____ _____    ______ ____
ROOT
ATOM      1  C   UNL     1      -1.976  -7.919  -3.010  0.00  0.00    +0.232 C 
ATOM      2  O   UNL     1      -1.700  -8.708  -2.131  0.00  0.00    -0.274 OA
ATOM      3  N   UNL     1      -1.923  -6.594  -2.767  0.00  0.00    -0.314 N 
ATOM      4  H   UNL     1      -2.144  -5.963  -3.469  0.00  0.00    +0.149 HD
ENDROOT
BRANCH   1   5
ATOM      5  C   UNL     1      -2.379  -8.419  -4.373  0.00  0.00    +0.166 C 
BRANCH   5   6
ATOM      6  N   UNL     1      -2.359  -9.884  -4.381  0.00  0.00    -0.177 NA
ATOM      7  H   UNL     1      -2.615 -10.377  -3.586  0.00  0.00    +0.149 HD
BRANCH   6   8
ATOM      8  S   UNL     1      -1.899 -10.698  -5.747  0.00  0.00    +0.065 S 
ATOM      9  O   UNL     1      -1.957 -12.083  -5.434  0.00  0.00    -0.153 OA
ATOM     10  O   UNL     1      -2.630 -10.129  -6.825  0.00  0.00    -0.153 OA
BRANCH   8  11
ATOM     11  C   UNL     1      -0.202 -10.318  -6.034  0.00  0.00    +0.142 A 
ATOM     12  C   UNL     1       0.904 -10.960  -5.585  0.00  0.00    +0.036 A 
ATOM     13  C   UNL     1       2.150 -10.478  -5.941  0.00  0.00    +0.010 A 
ATOM     14  C   UNL     1       2.228  -9.378  -6.729  0.00  0.00    +0.047 A 
ATOM     15  S   UNL     1       0.506  -8.992  -6.997  0.00  0.00    -0.077 S 
ENDBRANCH   8  11
ENDBRANCH   6   8
ENDBRANCH   5   6
BRANCH   5  16
ATOM     16  C   UNL     1      -3.790  -7.926  -4.701  0.00  0.00    +0.065 C 
BRANCH  16  20
ATOM     17  C   UNL     1      -4.797  -9.048  -8.698  0.00  0.00    +0.000 A 
ATOM     18  C   UNL     1      -5.088  -9.898  -7.647  0.00  0.00    +0.000 A 
ATOM     19  C   UNL     1      -4.762  -9.535  -6.354  0.00  0.00    +0.004 A 
ATOM     20  C   UNL     1      -4.145  -8.322  -6.111  0.00  0.00    -0.045 A 
ATOM     21  C   UNL     1      -3.859  -7.470  -7.161  0.00  0.00    +0.004 A 
ATOM     22  C   UNL     1      -4.180  -7.835  -8.455  0.00  0.00    +0.000 A 
ENDBRANCH  16  20
ENDBRANCH   5  16
ENDBRANCH   1   5
BRANCH   3  23
ATOM     23  C   UNL     1      -1.532  -6.108  -1.441  0.00  0.00    +0.102 C 
BRANCH  23  24
ATOM     24  C   UNL     1      -1.553  -4.578  -1.433  0.00  0.00    +0.000 C 
BRANCH  24  25
ATOM     25  C   UNL     1      -1.144  -4.070  -0.049  0.00  0.00    -0.077 C 
BRANCH  25  31
ATOM     26  C   UNL     1      -0.554  -2.073   1.188  0.00  0.00    -0.060 C 
ATOM     27  C   UNL     1      -0.665  -0.546   1.194  0.00  0.00    +0.086 C 
ATOM     28  N   UNL     1       0.002  -0.004   0.002  0.00  0.00    -0.331 N 
ATOM     29  C   UNL     1      -0.608  -0.532  -1.226  0.00  0.00    +0.086 C 
ATOM     30  C   UNL     1      -0.496  -2.059  -1.232  0.00  0.00    -0.060 C 
ATOM     31  N   UNL     1      -1.190  -2.592  -0.041  0.00  0.00    +0.382 N 
ATOM     32  H   UNL     1      -2.171  -2.289  -0.063  0.00  0.00    -0.082 HD
BRANCH  28  33
ATOM     33  C   UNL     1      -0.017   1.394   0.010  0.00  0.00    +0.065 A 
ATOM     34  C   UNL     1      -1.228   2.074   0.019  0.00  0.00    +0.026 A 
ATOM     35  C   UNL     1      -1.243   3.455   0.031  0.00  0.00    +0.002 A 
ATOM     36  C   UNL     1      -0.055   4.162   0.024  0.00  0.00    +0.003 A 
ATOM     37  C   UNL     1       1.154   3.490   0.009  0.00  0.00    +0.040 A 
ATOM     38  C   UNL     1       1.177   2.108   0.002  0.00  0.00    +0.144 A 
ATOM     39  F   UNL     1       2.357   1.451  -0.013  0.00  0.00    -0.204 F 
ENDBRANCH  28  33
ENDBRANCH  25  31
ENDBRANCH  24  25
ENDBRANCH  23  24
ENDBRANCH   3  23
TORSDOF 11
