REMARK  Name = ZINC28291790
REMARK  10 active torsions:
REMARK  status: ('A' for Active; 'I' for Inactive)
REMARK    1  A    between atoms: C_1  and  C_2
REMARK    2  A    between atoms: C_10  and  C_11
REMARK    3  A    between atoms: N_13  and  C_14
REMARK    4  A    between atoms: C_14  and  C_15
REMARK    5  A    between atoms: C_15  and  C_17
REMARK    6  A    between atoms: C_15  and  N_27
REMARK    7  A    between atoms: C_20  and  C_23
REMARK    8  A    between atoms: C_23  and  C_24
REMARK    9  A    between atoms: C_23  and  C_25
REMARK   10  A    between atoms: C_23  and  C_26
REMARK                            x       y       z     vdW  Elec       q    Type
REMARK                         _______ _______ _______ _____ _____    ______ ____
ROOT
ATOM      1  C   UNL     1       3.567   2.193  -0.146  0.00  0.00    -0.020 C 
ENDROOT
BRANCH   1   2
ATOM      2  C   UNL     1       4.276   1.002  -0.740  0.00  0.00    -0.059 A 
ATOM      3  C   UNL     1       3.797   0.421  -1.899  0.00  0.00    +0.002 A 
ATOM      4  C   UNL     1       4.449  -0.668  -2.446  0.00  0.00    +0.004 A 
ATOM      5  C   UNL     1       5.574  -1.182  -1.828  0.00  0.00    -0.042 A 
ATOM      6  C   UNL     1       6.049  -0.604  -0.666  0.00  0.00    +0.004 A 
ATOM      7  C   UNL     1       5.400   0.488  -0.122  0.00  0.00    +0.002 A 
BRANCH   5   8
ATOM      8  C   UNL     1       6.282  -2.373  -2.421  0.00  0.00    -0.013 C 
ATOM      9  C   UNL     1       6.282  -3.522  -1.410  0.00  0.00    +0.015 C 
ATOM     10  C   UNL     1       5.557  -2.815  -3.694  0.00  0.00    +0.015 C 
ATOM     11  C   UNL     1       7.724  -1.993  -2.761  0.00  0.00    +0.015 C 
ENDBRANCH   5   8
ENDBRANCH   1   2
BRANCH   1  12
ATOM     12  N   UNL     1       3.356   3.206  -1.188  0.00  0.00    +0.385 N 
ATOM     13  C   UNL     1       2.761   4.441  -0.617  0.00  0.00    -0.078 C 
ATOM     14  C   UNL     1       3.097   5.520  -1.677  0.00  0.00    -0.020 C 
ATOM     15  C   UNL     1       4.512   5.114  -2.147  0.00  0.00    -0.020 C 
ATOM     16  C   UNL     1       4.640   3.620  -1.794  0.00  0.00    -0.078 C 
ATOM     17  H   UNL     1       2.692   2.738  -1.930  0.00  0.00    -0.081 HD
ENDBRANCH   1  12
BRANCH   1  18
ATOM     18  C   UNL     1       2.216   1.752   0.419  0.00  0.00    +0.094 C 
BRANCH  18  21
ATOM     19  C   UNL     1       0.372   2.742   1.668  0.00  0.00    +0.280 C 
ATOM     20  O   UNL     1      -0.274   1.734   1.457  0.00  0.00    -0.267 OA
ATOM     21  N   UNL     1       1.629   2.850   1.192  0.00  0.00    -0.310 N 
ATOM     22  H   UNL     1       2.213   3.762   1.383  0.00  0.00    +0.149 HD
BRANCH  19  32
ATOM     23  C   UNL     1      -2.503   2.757   2.853  0.00  0.00    +0.048 C 
ATOM     24  C   UNL     1      -1.474   3.853   2.956  0.00  0.00    +0.008 A 
ATOM     25  C   UNL     1      -1.625   5.139   3.636  0.00  0.00    +0.025 A 
ATOM     26  C   UNL     1      -2.659   5.746   4.353  0.00  0.00    +0.027 A 
ATOM     27  C   UNL     1      -2.479   6.998   4.873  0.00  0.00    +0.019 A 
ATOM     28  C   UNL     1      -1.276   7.668   4.692  0.00  0.00    +0.019 A 
ATOM     29  C   UNL     1      -0.244   7.086   3.988  0.00  0.00    +0.048 A 
ATOM     30  C   UNL     1      -0.404   5.814   3.450  0.00  0.00    +0.136 A 
ATOM     31  O   UNL     1       0.402   5.007   2.733  0.00  0.00    -0.450 OA
ATOM     32  C   UNL     1      -0.219   3.846   2.438  0.00  0.00    +0.193 A 
ATOM     33 BR   UNL     1      -3.877   7.822   5.844  0.00  0.00    -0.050 Br
ENDBRANCH  19  32
ENDBRANCH  18  21
ENDBRANCH   1  18
TORSDOF 6
