REMARK  Name = ZINC18143459
REMARK  16 active torsions:
REMARK  status: ('A' for Active; 'I' for Inactive)
REMARK    1  A    between atoms: C_1  and  C_2
REMARK    2  A    between atoms: C_2  and  N_3
REMARK    3  A    between atoms: N_3  and  C_4
REMARK    4  A    between atoms: N_3  and  C_6
REMARK    5  A    between atoms: C_4  and  C_5
REMARK    6  A    between atoms: C_6  and  C_7
REMARK    7  A    between atoms: C_7  and  C_8
REMARK    8  A    between atoms: C_8  and  C_9
REMARK    9  A    between atoms: C_9  and  C_11
REMARK   10  A    between atoms: C_9  and  N_12
REMARK   11  A    between atoms: N_12  and  C_13
REMARK   12  A    between atoms: C_15  and  C_25
REMARK   13  A    between atoms: C_20  and  O_23
REMARK   14  A    between atoms: O_23  and  C_24
REMARK   15  A    between atoms: C_26  and  C_27
REMARK   16  A    between atoms: C_30  and  N_33
REMARK                            x       y       z     vdW  Elec       q    Type
REMARK                         _______ _______ _______ _____ _____    ______ ____
ROOT
ATOM      1  C   UNL     1      -2.886   6.501   4.041  0.00  0.00    +0.039 A 
ATOM      2  C   UNL     1      -3.280   7.823   3.965  0.00  0.00    +0.049 A 
ATOM      3  C   UNL     1      -2.790   8.633   2.929  0.00  0.00    +0.041 A 
ATOM      4  N   UNL     1      -1.956   8.160   2.017  0.00  0.00    -0.355 N 
ATOM      5  C   UNL     1      -1.540   6.890   2.039  0.00  0.00    +0.049 A 
ATOM      6  C   UNL     1      -1.992   6.013   3.055  0.00  0.00    +0.023 A 
ATOM      7  C   UNL     1      -1.556   4.682   3.069  0.00  0.00    +0.057 A 
ATOM      8  C   UNL     1      -0.682   4.244   2.098  0.00  0.00    +0.121 A 
ATOM      9  C   UNL     1      -0.239   5.112   1.097  0.00  0.00    +0.047 A 
ATOM     10  C   UNL     1      -0.653   6.407   1.060  0.00  0.00    +0.030 A 
ATOM     11  H   UNL     1      -1.589   8.817   1.214  0.00  0.00    +0.166 HD
ENDROOT
BRANCH   1  12
ATOM     12  N   UNL     1      -3.352   5.674   5.054  0.00  0.00    -0.341 N 
ATOM     13  H   UNL     1      -3.029   4.623   5.099  0.00  0.00    +0.146 HD
BRANCH  12  14
ATOM     14  C   UNL     1      -4.276   6.200   6.062  0.00  0.00    +0.067 C 
ATOM     15  C   UNL     1      -3.479   6.875   7.181  0.00  0.00    +0.028 C 
BRANCH  14  16
ATOM     16  C   UNL     1      -5.102   5.052   6.645  0.00  0.00    +0.020 C 
BRANCH  16  17
ATOM     17  C   UNL     1      -5.992   4.457   5.552  0.00  0.00    -0.017 C 
BRANCH  17  18
ATOM     18  C   UNL     1      -6.818   3.309   6.135  0.00  0.00    -0.079 C 
BRANCH  18  19
ATOM     19  N   UNL     1      -7.673   2.738   5.086  0.00  0.00    +0.379 N 
ATOM     20  H   UNL     1      -8.231   3.563   4.619  0.00  0.00    -0.082 HD
BRANCH  19  22
ATOM     21  C   UNL     1      -6.052   0.953   4.659  0.00  0.00    -0.017 C 
ATOM     22  C   UNL     1      -6.865   2.092   4.042  0.00  0.00    -0.082 C 
ENDBRANCH  19  22
BRANCH  19  23
ATOM     23  C   UNL     1      -8.647   1.797   5.654  0.00  0.00    -0.082 C 
ATOM     24  C   UNL     1      -9.752   1.527   4.630  0.00  0.00    -0.017 C 
ENDBRANCH  19  23
ENDBRANCH  18  19
ENDBRANCH  17  18
ENDBRANCH  16  17
ENDBRANCH  14  16
ENDBRANCH  12  14
ENDBRANCH   1  12
BRANCH   8  25
ATOM     25  O   UNL     1      -0.253   2.954   2.111  0.00  0.00    -0.495 OA
ATOM     26  C   UNL     1       0.647   2.560   1.073  0.00  0.00    +0.277 C 
ENDBRANCH   8  25
BRANCH   3  27
ATOM     27  C   UNL     1      -3.215  10.040   2.855  0.00  0.00    +0.026 C 
ATOM     28  C   UNL     1      -2.756  10.829   1.869  0.00  0.00    +0.010 C 
BRANCH  28  29
ATOM     29  C   UNL     1      -3.182  12.238   1.795  0.00  0.00    -0.025 A 
ATOM     30  C   UNL     1      -4.067  12.756   2.744  0.00  0.00    +0.010 A 
ATOM     31  C   UNL     1      -4.457  14.076   2.671  0.00  0.00    +0.033 A 
ATOM     32  C   UNL     1      -3.982  14.886   1.654  0.00  0.00    +0.126 A 
ATOM     33  C   UNL     1      -3.109  14.380   0.707  0.00  0.00    +0.033 A 
ATOM     34  C   UNL     1      -2.706  13.062   0.771  0.00  0.00    +0.010 A 
BRANCH  32  35
ATOM     35  N   UNL     1      -4.410  16.302   1.579  0.00  0.00    +0.056 N 
ATOM     36  O   UNL     1      -3.993  17.017   0.685  0.00  0.00    -0.126 OA
ATOM     37  O   UNL     1      -5.178  16.751   2.411  0.00  0.00    -0.126 OA
ENDBRANCH  32  35
ENDBRANCH  28  29
ENDBRANCH   3  27
TORSDOF 12
