REMARK  Name = ZINC13369213
REMARK  7 active torsions:
REMARK  status: ('A' for Active; 'I' for Inactive)
REMARK    1  A    between atoms: C_1  and  C_2
REMARK    2  A    between atoms: C_2  and  C_4
REMARK    3  A    between atoms: C_2  and  N_19
REMARK    4  A    between atoms: N_6  and  C_7
REMARK    5  A    between atoms: C_7  and  C_8
REMARK    6  A    between atoms: C_8  and  C_9
REMARK    7  A    between atoms: C_26  and  C_28
REMARK                            x       y       z     vdW  Elec       q    Type
REMARK                         _______ _______ _______ _____ _____    ______ ____
ROOT
ATOM      1  C   UNL     1       1.361   2.854   1.254  0.00  0.00    +0.042 C 
ATOM      2  C   UNL     1       1.280   1.980   0.001  0.00  0.00    +0.190 C 
ENDROOT
BRANCH   2   3
ATOM      3  N   UNL     1       2.407   1.043  -0.015  0.00  0.00    -0.251 N 
ATOM      4  C   UNL     1       3.362   0.967  -0.996  0.00  0.00    +0.070 A 
ATOM      5  C   UNL     1       3.581   1.664  -2.183  0.00  0.00    +0.029 A 
ATOM      6  C   UNL     1       4.651   1.348  -2.970  0.00  0.00    +0.022 A 
ATOM      7  C   UNL     1       5.530   0.335  -2.603  0.00  0.00    +0.042 A 
ATOM      8  C   UNL     1       5.343  -0.360  -1.441  0.00  0.00    +0.032 A 
ATOM      9  C   UNL     1       4.252  -0.056  -0.622  0.00  0.00    +0.029 A 
ATOM     10  C   UNL     1       3.753  -0.591   0.649  0.00  0.00    +0.100 A 
ATOM     11  N   UNL     1       2.673   0.082   0.965  0.00  0.00    -0.169 NA
ATOM     12 CL   UNL     1       6.881  -0.044  -3.624  0.00  0.00    -0.084 Cl
BRANCH  10  13
ATOM     13  C   UNL     1       4.360  -1.693   1.434  0.00  0.00    +0.003 A 
ATOM     14  C   UNL     1       4.967  -2.765   0.781  0.00  0.00    +0.010 A 
ATOM     15  C   UNL     1       5.534  -3.785   1.518  0.00  0.00    +0.001 A 
ATOM     16  C   UNL     1       5.492  -3.751   2.900  0.00  0.00    +0.000 A 
ATOM     17  C   UNL     1       4.886  -2.692   3.553  0.00  0.00    +0.001 A 
ATOM     18  C   UNL     1       4.320  -1.663   2.827  0.00  0.00    +0.010 A 
ENDBRANCH  10  13
ENDBRANCH   2   3
BRANCH   2  19
ATOM     19  C   UNL     1      -0.014   1.209   0.009  0.00  0.00    +0.237 C 
ATOM     20  O   UNL     1       0.002  -0.004   0.002  0.00  0.00    -0.273 OA
ATOM     21  N   UNL     1      -1.191   1.867   0.018  0.00  0.00    -0.313 N 
ATOM     22  H   UNL     1      -1.204   2.837   0.023  0.00  0.00    +0.149 HD
BRANCH  21  23
ATOM     23  C   UNL     1      -2.449   1.117   0.020  0.00  0.00    +0.109 C 
BRANCH  23  24
ATOM     24  C   UNL     1      -3.626   2.095   0.031  0.00  0.00    +0.056 C 
BRANCH  24  25
ATOM     25  C   UNL     1      -4.920   1.324   0.033  0.00  0.00    -0.021 A 
ATOM     26  C   UNL     1      -5.662   1.007  -1.040  0.00  0.00    +0.087 A 
ATOM     27  N   UNL     1      -6.768   0.301  -0.650  0.00  0.00    -0.360 N 
ATOM     28  H   UNL     1      -7.451  -0.040  -1.249  0.00  0.00    +0.165 HD
ATOM     29  C   UNL     1      -6.768   0.149   0.718  0.00  0.00    +0.047 A 
ATOM     30  C   UNL     1      -5.611   0.784   1.206  0.00  0.00    +0.003 A 
ATOM     31  C   UNL     1      -5.345   0.789   2.576  0.00  0.00    +0.010 A 
ATOM     32  C   UNL     1      -6.212   0.178   3.438  0.00  0.00    +0.001 A 
ATOM     33  C   UNL     1      -7.355  -0.449   2.962  0.00  0.00    +0.002 A 
ATOM     34  C   UNL     1      -7.636  -0.467   1.613  0.00  0.00    +0.026 A 
ENDBRANCH  24  25
ENDBRANCH  23  24
ENDBRANCH  21  23
ENDBRANCH   2  19
TORSDOF 6
