REMARK  Name = ZINC35682874
REMARK  5 active torsions:
REMARK  status: ('A' for Active; 'I' for Inactive)
REMARK    1  A    between atoms: C_1  and  O_2
REMARK    2  A    between atoms: O_2  and  C_3
REMARK    3  A    between atoms: C_5  and  C_10
REMARK    4  A    between atoms: C_8  and  O_9
REMARK    5  A    between atoms: N_11  and  C_12
REMARK                            x       y       z     vdW  Elec       q    Type
REMARK                         _______ _______ _______ _____ _____    ______ ____
ROOT
ATOM      1  C   UNL     1       3.615   0.432   6.172  0.00  0.00    +0.209 C 
ATOM      2  N   UNL     1       3.555   1.727   6.125  0.00  0.00    -0.155 NA
ATOM      3  N   UNL     1       4.101   2.550   7.098  0.00  0.00    -0.234 N 
ATOM      4  C   UNL     1       5.146   2.178   7.957  0.00  0.00    +0.066 C 
ATOM      5  C   UNL     1       5.397   0.895   8.247  0.00  0.00    +0.017 C 
ATOM      6  S   UNL     1       4.419  -0.379   7.512  0.00  0.00    -0.051 S 
ATOM      7  C   UNL     1       6.485   0.521   9.219  0.00  0.00    +0.049 C 
ATOM      8  C   UNL     1       7.684   1.455   9.080  0.00  0.00    +0.041 C 
ATOM      9  C   UNL     1       7.221   2.888   9.129  0.00  0.00    -0.038 A 
ATOM     10  C   UNL     1       5.989   3.229   8.570  0.00  0.00    +0.001 A 
ATOM     11  C   UNL     1       5.558   4.556   8.593  0.00  0.00    +0.010 A 
ATOM     12  C   UNL     1       6.352   5.520   9.180  0.00  0.00    +0.001 A 
ATOM     13  C   UNL     1       7.568   5.173   9.742  0.00  0.00    +0.000 A 
ATOM     14  C   UNL     1       8.002   3.858   9.717  0.00  0.00    +0.004 A 
ATOM     15  H   UNL     1       3.736   3.445   7.191  0.00  0.00    +0.174 HD
ENDROOT
BRANCH   1  17
ATOM     16  C   UNL     1       2.453   0.296   4.188  0.00  0.00    +0.121 C 
ATOM     17  N   UNL     1       3.052  -0.301   5.186  0.00  0.00    -0.228 NA
BRANCH  16  20
ATOM     18  C   UNL     1       0.626  -0.619   1.042  0.00  0.00    +0.162 A 
ATOM     19  C   UNL     1       1.200   0.136   2.047  0.00  0.00    +0.058 A 
ATOM     20  C   UNL     1       1.841  -0.501   3.116  0.00  0.00    -0.003 A 
ATOM     21  C   UNL     1       1.897  -1.899   3.161  0.00  0.00    +0.013 A 
ATOM     22  C   UNL     1       1.322  -2.643   2.154  0.00  0.00    +0.050 A 
ATOM     23  C   UNL     1       0.682  -2.011   1.097  0.00  0.00    +0.158 A 
BRANCH  18  25
ATOM     24  C   UNL     1      -0.017   1.425   0.010  0.00  0.00    +0.277 C 
ATOM     25  O   UNL     1       0.002  -0.004   0.002  0.00  0.00    -0.491 OA
ENDBRANCH  18  25
BRANCH  23  26
ATOM     26  O   UNL     1       0.112  -2.751   0.110  0.00  0.00    -0.503 OA
ATOM     27  H   UNL     1       0.708  -2.952  -0.624  0.00  0.00    +0.292 HD
ENDBRANCH  23  26
ENDBRANCH  16  20
ENDBRANCH   1  17
TORSDOF 4
