REMARK  Name = ZINC04814157
REMARK  2 active torsions:
REMARK  status: ('A' for Active; 'I' for Inactive)
REMARK    1  A    between atoms: C_4  and  C_7
REMARK    2  A    between atoms: C_12  and  C_17
REMARK                            x       y       z     vdW  Elec       q    Type
REMARK                         _______ _______ _______ _____ _____    ______ ____
ROOT
ATOM      1  C   UNL     1       3.711  -0.707  -0.038  0.00  0.00    +0.175 C 
ATOM      2  C   UNL     1       3.816  -1.577   1.196  0.00  0.00    +0.041 C 
ATOM      3  C   UNL     1       3.679  -2.919   1.141  0.00  0.00    +0.020 C 
ATOM      4  C   UNL     1       3.772  -3.760   2.393  0.00  0.00    +0.060 C 
ATOM      5  C   UNL     1       4.732  -3.101   3.385  0.00  0.00    +0.032 C 
ATOM      6  C   UNL     1       4.209  -1.696   3.701  0.00  0.00    +0.088 C 
ATOM      7  C   UNL     1       4.067  -0.927   2.417  0.00  0.00    +0.164 C 
ATOM      8  O   UNL     1       4.173   0.284   2.435  0.00  0.00    -0.292 OA
ATOM      9  N   UNL     1       3.456  -3.577  -0.044  0.00  0.00    -0.287 N 
ATOM     10  C   UNL     1       3.662  -2.881  -1.224  0.00  0.00    +0.218 A 
ATOM     11  N   UNL     1       3.787  -1.533  -1.236  0.00  0.00    -0.221 N 
ATOM     12  N   UNL     1       3.988  -1.169  -2.566  0.00  0.00    -0.156 NA
ATOM     13  C   UNL     1       3.968  -2.275  -3.268  0.00  0.00    +0.247 A 
ATOM     14  N   UNL     1       3.770  -3.308  -2.453  0.00  0.00    -0.201 NA
ATOM     15  H   UNL     1       3.164  -4.502  -0.055  0.00  0.00    +0.155 HD
ENDROOT
BRANCH   5  16
ATOM     16  C   UNL     1       4.793  -3.917   4.651  0.00  0.00    -0.043 A 
ATOM     17  C   UNL     1       3.645  -4.135   5.389  0.00  0.00    +0.005 A 
ATOM     18  C   UNL     1       3.701  -4.883   6.549  0.00  0.00    +0.020 A 
ATOM     19  C   UNL     1       4.906  -5.415   6.972  0.00  0.00    +0.041 A 
ATOM     20  C   UNL     1       6.055  -5.196   6.233  0.00  0.00    +0.020 A 
ATOM     21  C   UNL     1       5.997  -4.452   5.070  0.00  0.00    +0.005 A 
ATOM     22 CL   UNL     1       4.977  -6.355   8.430  0.00  0.00    -0.084 Cl
ENDBRANCH   5  16
BRANCH   1  26
ATOM     23  C   UNL     1      -0.017   1.378   0.010  0.00  0.00    +0.000 A 
ATOM     24  C   UNL     1       1.171   2.086   0.002  0.00  0.00    +0.000 A 
ATOM     25  C   UNL     1       2.377   1.411  -0.013  0.00  0.00    +0.006 A 
ATOM     26  C   UNL     1       2.396   0.029  -0.020  0.00  0.00    -0.018 A 
ATOM     27  C   UNL     1       1.208  -0.679  -0.012  0.00  0.00    +0.006 A 
ATOM     28  C   UNL     1       0.002  -0.004   0.002  0.00  0.00    +0.000 A 
ENDBRANCH   1  26
TORSDOF 2
