REMARK  Name = ZINC20714090
REMARK  4 active torsions:
REMARK  status: ('A' for Active; 'I' for Inactive)
REMARK    1  A    between atoms: C_1  and  C_2
REMARK    2  A    between atoms: C_7  and  C_8
REMARK    3  A    between atoms: C_18  and  N_25
REMARK    4  A    between atoms: C_21  and  O_24
REMARK                            x       y       z     vdW  Elec       q    Type
REMARK                         _______ _______ _______ _____ _____    ______ ____
ROOT
ATOM      1  C   UNL     1       3.731  -1.770  -0.770  0.00  0.00    +0.105 C 
ATOM      2  C   UNL     1       2.640  -2.429   0.049  0.00  0.00    +0.029 C 
ATOM      3  C   UNL     1       2.168  -3.833  -0.344  0.00  0.00    +0.033 C 
ATOM      4  C   UNL     1       0.714  -3.810   0.134  0.00  0.00    -0.030 C 
ATOM      5  C   UNL     1       0.262  -2.560   0.148  0.00  0.00    -0.023 C 
ATOM      6  C   UNL     1       1.338  -1.664  -0.343  0.00  0.00    +0.051 C 
ATOM      7  C   UNL     1       1.500  -0.275   0.138  0.00  0.00    +0.014 A 
ATOM      8  C   UNL     1       0.423   0.474   0.569  0.00  0.00    +0.132 A 
ATOM      9  C   UNL     1       0.597   1.776   0.997  0.00  0.00    +0.037 A 
ATOM     10  C   UNL     1       1.862   2.335   0.988  0.00  0.00    +0.049 A 
ATOM     11  C   UNL     1       2.946   1.594   0.560  0.00  0.00    +0.138 A 
ATOM     12  C   UNL     1       2.784   0.270   0.133  0.00  0.00    +0.076 A 
ATOM     13  N   UNL     1       3.923  -0.417  -0.225  0.00  0.00    -0.334 N 
ATOM     14  H   UNL     1       4.937  -0.004  -0.121  0.00  0.00    +0.147 HD
ENDROOT
BRANCH   1  21
ATOM     15  C   UNL     1       5.862  -1.361  -2.678  0.00  0.00    +0.044 C 
ATOM     16  C   UNL     1       6.029  -2.364  -1.565  0.00  0.00    -0.045 A 
ATOM     17  C   UNL     1       7.202  -3.087  -1.457  0.00  0.00    +0.004 A 
ATOM     18  C   UNL     1       7.356  -4.006  -0.436  0.00  0.00    +0.000 A 
ATOM     19  C   UNL     1       6.336  -4.202   0.478  0.00  0.00    +0.000 A 
ATOM     20  C   UNL     1       5.165  -3.475   0.372  0.00  0.00    +0.006 A 
ATOM     21  C   UNL     1       5.010  -2.559  -0.652  0.00  0.00    -0.024 A 
ENDBRANCH   1  21
BRANCH   8  22
ATOM     22  N   UNL     1      -0.931  -0.124   0.574  0.00  0.00    +0.057 N 
ATOM     23  O   UNL     1      -1.357  -0.674  -0.426  0.00  0.00    -0.126 OA
ATOM     24  O   UNL     1      -1.619  -0.067   1.577  0.00  0.00    -0.126 OA
ENDBRANCH   8  22
BRANCH  11  25
ATOM     25  O   UNL     1       4.185   2.156   0.553  0.00  0.00    -0.505 OA
ATOM     26  H   UNL     1       5.052   1.572   0.214  0.00  0.00    +0.292 HD
ENDBRANCH  11  25
TORSDOF 3
