REMARK  Name = ZINC00887592
REMARK  10 active torsions:
REMARK  status: ('A' for Active; 'I' for Inactive)
REMARK    1  A    between atoms: C_1  and  C_2
REMARK    2  A    between atoms: C_5  and  C_7
REMARK    3  A    between atoms: C_7  and  C_9
REMARK    4  A    between atoms: C_7  and  N_19
REMARK    5  A    between atoms: N_11  and  C_12
REMARK    6  A    between atoms: C_12  and  C_13
REMARK    7  A    between atoms: N_19  and  C_20
REMARK    8  A    between atoms: C_27  and  C_29
REMARK    9  A    between atoms: C_29  and  N_30
REMARK   10  A    between atoms: C_32  and  C_35
REMARK                            x       y       z     vdW  Elec       q    Type
REMARK                         _______ _______ _______ _____ _____    ______ ____
ROOT
ATOM      1  N   UNL     1       2.643  -2.796  -1.199  0.00  0.00    -0.251 N 
ATOM      2  C   UNL     1       2.831  -3.888  -1.968  0.00  0.00    +0.244 C 
ATOM      3  O   UNL     1       2.107  -4.852  -1.839  0.00  0.00    -0.273 OA
ENDROOT
BRANCH   1   4
ATOM      4  C   UNL     1       3.593  -1.768  -1.200  0.00  0.00    +0.038 A 
ATOM      5  C   UNL     1       4.793  -1.931  -1.879  0.00  0.00    +0.025 A 
ATOM      6  C   UNL     1       5.728  -0.914  -1.879  0.00  0.00    +0.022 A 
ATOM      7  C   UNL     1       5.470   0.265  -1.203  0.00  0.00    +0.041 A 
ATOM      8  C   UNL     1       4.274   0.430  -0.526  0.00  0.00    +0.022 A 
ATOM      9  C   UNL     1       3.333  -0.581  -0.528  0.00  0.00    +0.025 A 
ATOM     10 CL   UNL     1       6.648   1.540  -1.204  0.00  0.00    -0.084 Cl
ENDBRANCH   1   4
BRANCH   1  11
ATOM     11  C   UNL     1       1.445  -2.687  -0.363  0.00  0.00    +0.233 C 
BRANCH  11  16
ATOM     12  C   UNL     1       0.354   2.015  -1.829  0.00  0.00    +0.086 C 
ATOM     13  C   UNL     1       0.185   0.578  -1.406  0.00  0.00    +0.102 A 
ATOM     14  C   UNL     1      -0.986  -0.069  -1.270  0.00  0.00    +0.045 A 
ATOM     15  C   UNL     1      -0.680  -1.387  -0.859  0.00  0.00    +0.047 A 
ATOM     16  C   UNL     1       0.660  -1.466  -0.769  0.00  0.00    +0.135 A 
ATOM     17  O   UNL     1       1.179  -0.275  -1.107  0.00  0.00    -0.462 OA
ENDBRANCH  11  16
BRANCH  11  18
ATOM     18  C   UNL     1       1.851  -2.564   1.083  0.00  0.00    +0.242 C 
ATOM     19  O   UNL     1       3.026  -2.569   1.385  0.00  0.00    -0.273 OA
ATOM     20  N   UNL     1       0.909  -2.450   2.040  0.00  0.00    -0.309 N 
ATOM     21  H   UNL     1      -0.030  -2.447   1.798  0.00  0.00    +0.149 HD
BRANCH  20  22
ATOM     22  C   UNL     1       1.304  -2.332   3.446  0.00  0.00    +0.139 C 
BRANCH  22  23
ATOM     23  C   UNL     1       0.072  -2.219   4.306  0.00  0.00    -0.030 A 
ATOM     24  C   UNL     1      -0.464  -0.975   4.586  0.00  0.00    +0.005 A 
ATOM     25  C   UNL     1      -1.594  -0.872   5.375  0.00  0.00    +0.000 A 
ATOM     26  C   UNL     1      -2.189  -2.011   5.883  0.00  0.00    +0.000 A 
ATOM     27  C   UNL     1      -1.654  -3.254   5.602  0.00  0.00    +0.000 A 
ATOM     28  C   UNL     1      -0.526  -3.358   4.810  0.00  0.00    +0.005 A 
ENDBRANCH  22  23
ENDBRANCH  20  22
ENDBRANCH  11  18
ENDBRANCH   1  11
BRANCH   2  29
ATOM     29  C   UNL     1       3.941  -3.910  -2.987  0.00  0.00    +0.264 C 
BRANCH  29  30
ATOM     30  N   UNL     1       3.630  -4.894  -4.027  0.00  0.00    -0.154 N 
ATOM     31  N   UNL     1       3.962  -6.139  -3.998  0.00  0.00    -0.129 NA
ATOM     32  C   UNL     1       3.509  -6.703  -5.102  0.00  0.00    +0.211 A 
ATOM     33  N   UNL     1       2.888  -5.738  -5.798  0.00  0.00    -0.107 NA
ATOM     34  N   UNL     1       2.977  -4.651  -5.109  0.00  0.00    -0.045 NA
BRANCH  32  35
ATOM     35  C   UNL     1       3.657  -8.121  -5.496  0.00  0.00    +0.060 A 
ATOM     36  C   UNL     1       3.214  -8.753  -6.626  0.00  0.00    +0.019 A 
ATOM     37  C   UNL     1       3.474 -10.097  -6.778  0.00  0.00    +0.008 A 
ATOM     38  C   UNL     1       4.159 -10.753  -5.806  0.00  0.00    +0.046 A 
ATOM     39  S   UNL     1       4.468  -9.451  -4.624  0.00  0.00    -0.093 S 
ENDBRANCH  32  35
ENDBRANCH  29  30
ENDBRANCH   2  29
TORSDOF 9
