REMARK  Name = ZINC38645887
REMARK  7 active torsions:
REMARK  status: ('A' for Active; 'I' for Inactive)
REMARK    1  A    between atoms: C_1  and  C_2
REMARK    2  A    between atoms: C_2  and  C_3
REMARK    3  A    between atoms: C_2  and  C_4
REMARK    4  A    between atoms: C_2  and  N_5
REMARK    5  A    between atoms: C_6  and  C_8
REMARK    6  A    between atoms: N_17  and  N_18
REMARK    7  A    between atoms: N_18  and  C_19
REMARK                            x       y       z     vdW  Elec       q    Type
REMARK                         _______ _______ _______ _____ _____    ______ ____
ROOT
ATOM      1  C   UNL     1       2.559  -0.645  -2.560  0.00  0.00    +0.086 C 
ATOM      2  C   UNL     1       3.805  -0.089  -2.768  0.00  0.00    +0.025 C 
ATOM      3  C   UNL     1       4.505  -0.264  -3.980  0.00  0.00    -0.015 A 
ATOM      4  C   UNL     1       5.845   0.145  -4.091  0.00  0.00    +0.008 A 
ATOM      5  C   UNL     1       6.523  -0.052  -5.258  0.00  0.00    +0.001 A 
ATOM      6  C   UNL     1       5.908  -0.650  -6.351  0.00  0.00    +0.001 A 
ATOM      7  C   UNL     1       4.590  -1.050  -6.280  0.00  0.00    +0.011 A 
ATOM      8  C   UNL     1       3.877  -0.855  -5.100  0.00  0.00    +0.013 A 
ATOM      9  C   UNL     1       2.454  -1.244  -4.995  0.00  0.00    +0.137 C 
ATOM     10  N   UNL     1       1.678  -1.371  -6.055  0.00  0.00    -0.178 NA
ATOM     11  C   UNL     1       1.960  -1.485  -3.615  0.00  0.00    +0.218 C 
ATOM     12  O   UNL     1       1.110  -2.323  -3.368  0.00  0.00    -0.285 OA
ENDROOT
BRANCH   1  14
ATOM     13  N   UNL     1       0.625  -0.961  -1.099  0.00  0.00    -0.306 N 
ATOM     14  C   UNL     1       1.839  -0.409  -1.297  0.00  0.00    +0.248 C 
ATOM     15  O   UNL     1       2.340   0.285  -0.432  0.00  0.00    -0.270 OA
ATOM     16  H   UNL     1       0.226  -1.514  -1.789  0.00  0.00    +0.150 HD
BRANCH  13  18
ATOM     17  C   UNL     1      -0.334   0.775   0.332  0.00  0.00    +0.031 C 
ATOM     18  C   UNL     1      -0.091  -0.725   0.157  0.00  0.00    +0.026 C 
ATOM     19  C   UNL     1       0.747  -1.246   1.327  0.00  0.00    +0.031 C 
ATOM     20  C   UNL     1      -1.433  -1.459   0.124  0.00  0.00    +0.031 C 
ENDBRANCH  13  18
ENDBRANCH   1  14
BRANCH  10  21
ATOM     21  N   UNL     1       0.443  -1.713  -5.912  0.00  0.00    -0.236 N 
ATOM     22  H   UNL     1       0.084  -1.875  -5.026  0.00  0.00    +0.174 HD
BRANCH  21  23
ATOM     23  C   UNL     1      -0.373  -1.847  -7.026  0.00  0.00    +0.060 A 
ATOM     24  C   UNL     1       0.164  -1.727  -8.308  0.00  0.00    +0.025 A 
ATOM     25  C   UNL     1      -0.643  -1.860  -9.418  0.00  0.00    +0.003 A 
ATOM     26  C   UNL     1      -2.000  -2.114  -9.278  0.00  0.00    +0.012 A 
ATOM     27  C   UNL     1      -2.557  -2.237  -8.010  0.00  0.00    +0.035 A 
ATOM     28  C   UNL     1      -1.739  -2.109  -6.871  0.00  0.00    +0.056 A 
ATOM     29  C   UNL     1      -2.330  -2.247  -5.527  0.00  0.00    +0.196 C 
ATOM     30  O   UNL     1      -1.709  -1.894  -4.543  0.00  0.00    -0.287 OA
ATOM     31  C   UNL     1      -3.687  -2.821  -5.389  0.00  0.00    +0.033 A 
ATOM     32  C   UNL     1      -4.160  -3.229  -4.147  0.00  0.00    +0.012 A 
ATOM     33  C   UNL     1      -5.432  -3.763  -4.037  0.00  0.00    +0.001 A 
ATOM     34  C   UNL     1      -6.237  -3.893  -5.154  0.00  0.00    +0.001 A 
ATOM     35  C   UNL     1      -5.781  -3.492  -6.398  0.00  0.00    +0.012 A 
ATOM     36  C   UNL     1      -4.505  -2.954  -6.526  0.00  0.00    +0.033 A 
ATOM     37  C   UNL     1      -4.002  -2.508  -7.847  0.00  0.00    +0.195 C 
ATOM     38  O   UNL     1      -4.762  -2.381  -8.786  0.00  0.00    -0.287 OA
ENDBRANCH  21  23
ENDBRANCH  10  21
TORSDOF 4
