REMARK  Name = ZINC63557901
REMARK  10 active torsions:
REMARK  status: ('A' for Active; 'I' for Inactive)
REMARK    1  A    between atoms: C_1  and  C_2
REMARK    2  A    between atoms: C_2  and  C_3
REMARK    3  A    between atoms: C_3  and  C_4
REMARK    4  A    between atoms: C_8  and  N_11
REMARK    5  A    between atoms: C_12  and  C_14
REMARK    6  A    between atoms: N_19  and  C_21
REMARK    7  A    between atoms: C_21  and  C_22
REMARK    8  A    between atoms: C_22  and  C_23
REMARK    9  A    between atoms: C_26  and  O_32
REMARK   10  A    between atoms: O_32  and  C_33
REMARK                            x       y       z     vdW  Elec       q    Type
REMARK                         _______ _______ _______ _____ _____    ______ ____
ROOT
ATOM      1  C   UNL     1      -4.374  -4.597  -4.721  0.00  0.00    +0.101 C 
ATOM      2  C   UNL     1      -5.409  -3.473  -4.483  0.00  0.00    +0.110 C 
ATOM      3  C   UNL     1      -6.637  -3.933  -5.238  0.00  0.00    +0.216 C 
ATOM      4  O   UNL     1      -7.572  -3.224  -5.541  0.00  0.00    -0.276 OA
ATOM      5  N   UNL     1      -6.539  -5.243  -5.525  0.00  0.00    -0.300 N 
ATOM      6  C   UNL     1      -5.286  -5.810  -5.011  0.00  0.00    +0.121 C 
ENDROOT
BRANCH   1   8
ATOM      7  N   UNL     1      -2.724  -3.863  -3.031  0.00  0.00    -0.290 N 
ATOM      8  C   UNL     1      -3.541  -4.833  -3.487  0.00  0.00    +0.220 C 
ATOM      9  O   UNL     1      -3.605  -5.895  -2.905  0.00  0.00    -0.275 OA
ATOM     10  H   UNL     1      -2.672  -3.014  -3.496  0.00  0.00    +0.151 HD
BRANCH   7  14
ATOM     11  C   UNL     1      -1.413  -2.063   0.004  0.00  0.00    +0.130 C 
ATOM     12  N   UNL     1      -2.796  -2.628  -0.089  0.00  0.00    -0.241 NA
ATOM     13  N   UNL     1      -2.743  -3.993  -0.599  0.00  0.00    -0.227 NA
ATOM     14  C   UNL     1      -1.913  -4.092  -1.832  0.00  0.00    +0.216 C 
ATOM     15  S   UNL     1      -0.710  -2.719  -1.571  0.00  0.00    -0.102 S 
ATOM     16  H   UNL     1      -3.261  -2.594   0.805  0.00  0.00    +0.142 HD
ATOM     17  H   UNL     1      -2.414  -4.632   0.110  0.00  0.00    +0.143 HD
BRANCH  11  18
ATOM     18  C   UNL     1      -1.433  -0.534   0.013  0.00  0.00    +0.031 C 
BRANCH  18  20
ATOM     19  C   UNL     1      -0.019   1.526   0.010  0.00  0.00    +0.004 C 
ATOM     20  C   UNL     1       0.002  -0.004   0.002  0.00  0.00    -0.001 C 
ENDBRANCH  18  20
ENDBRANCH  11  18
ENDBRANCH   7  14
ENDBRANCH   1   8
BRANCH   5  21
ATOM     21  C   UNL     1      -7.552  -6.006  -6.258  0.00  0.00    +0.112 C 
BRANCH  21  22
ATOM     22  C   UNL     1      -7.248  -5.951  -7.757  0.00  0.00    +0.052 C 
BRANCH  22  23
ATOM     23  C   UNL     1      -8.290  -6.736  -8.510  0.00  0.00    -0.040 C 
ATOM     24  C   UNL     1      -9.410  -6.250  -9.093  0.00  0.00    +0.002 A 
ATOM     25  C   UNL     1      -9.973  -4.900  -9.195  0.00  0.00    +0.055 A 
ATOM     26  C   UNL     1     -11.141  -4.712  -9.856  0.00  0.00    +0.121 A 
ATOM     27  C   UNL     1     -11.843  -5.773 -10.455  0.00  0.00    +0.047 A 
ATOM     28  C   UNL     1     -11.405  -7.050 -10.414  0.00  0.00    +0.029 A 
ATOM     29  C   UNL     1     -10.151  -7.367  -9.724  0.00  0.00    +0.043 A 
ATOM     30  N   UNL     1      -9.514  -8.497  -9.539  0.00  0.00    -0.380 N 
ATOM     31  C   UNL     1      -8.292  -8.225  -8.774  0.00  0.00    +0.144 C 
ATOM     32  H   UNL     1      -9.801  -9.367  -9.858  0.00  0.00    +0.160 HD
BRANCH  26  33
ATOM     33  O   UNL     1     -11.651  -3.456  -9.943  0.00  0.00    -0.495 OA
ATOM     34  C   UNL     1     -12.884  -3.304 -10.648  0.00  0.00    +0.277 C 
ENDBRANCH  26  33
ENDBRANCH  22  23
ENDBRANCH  21  22
ENDBRANCH   5  21
TORSDOF 8
