REMARK  Name = ZINC05602816
REMARK  5 active torsions:
REMARK  status: ('A' for Active; 'I' for Inactive)
REMARK    1  A    between atoms: C_1  and  C_2
REMARK    2  A    between atoms: C_4  and  C_25
REMARK    3  A    between atoms: N_8  and  N_9
REMARK    4  A    between atoms: C_10  and  C_11
REMARK    5  A    between atoms: C_12  and  O_24
REMARK                            x       y       z     vdW  Elec       q    Type
REMARK                         _______ _______ _______ _____ _____    ______ ____
ROOT
ATOM      1  C   UNL     1       0.056  -1.843   5.949  0.00  0.00    +0.047 A 
ATOM      2  C   UNL     1       0.031  -0.445   5.937  0.00  0.00    +0.126 A 
ATOM      3  C   UNL     1       0.026   0.258   7.134  0.00  0.00    +0.049 A 
ATOM      4  C   UNL     1       0.046  -0.406   8.343  0.00  0.00    +0.050 A 
ATOM      5  C   UNL     1       0.072  -1.795   8.383  0.00  0.00    +0.136 A 
ATOM      6  C   UNL     1       0.072  -2.522   7.182  0.00  0.00    +0.036 A 
ATOM      7  C   UNL     1       0.096  -3.925   7.579  0.00  0.00    +0.002 A 
ATOM      8  C   UNL     1       0.101  -3.946   8.925  0.00  0.00    +0.109 A 
ATOM      9  O   UNL     1       0.096  -2.689   9.396  0.00  0.00    -0.459 OA
ATOM     10  C   UNL     1       0.123  -5.219   9.739  0.00  0.00    +0.075 C 
ATOM     11  C   UNL     1      -0.285  -6.385   8.833  0.00  0.00    +0.008 C 
ATOM     12  C   UNL     1       0.546  -6.349   7.547  0.00  0.00    +0.005 C 
ATOM     13  C   UNL     1       0.114  -5.146   6.699  0.00  0.00    +0.039 C 
ENDROOT
BRANCH   1  15
ATOM     14  N   UNL     1       0.046  -1.962   3.551  0.00  0.00    -0.187 NA
ATOM     15  C   UNL     1       0.061  -2.596   4.685  0.00  0.00    +0.142 C 
BRANCH  14  23
ATOM     16  C   UNL     1      -0.018   1.503   0.010  0.00  0.00    +0.066 C 
ATOM     17  C   UNL     1       0.002  -0.004   0.002  0.00  0.00    +0.044 A 
ATOM     18  C   UNL     1       0.006  -0.699  -1.198  0.00  0.00    +0.046 A 
ATOM     19  C   UNL     1       0.025  -2.085  -1.161  0.00  0.00    +0.044 A 
ATOM     20  N   UNL     1       0.040  -2.699   0.010  0.00  0.00    -0.218 NA
ATOM     21  C   UNL     1       0.035  -2.005   1.139  0.00  0.00    +0.235 A 
ATOM     22  N   UNL     1       0.022  -0.679   1.139  0.00  0.00    -0.218 NA
ATOM     23  N   UNL     1       0.051  -2.680   2.348  0.00  0.00    -0.205 N 
ATOM     24  C   UNL     1       0.030  -2.882  -2.440  0.00  0.00    +0.066 C 
ATOM     25  H   UNL     1       0.064  -3.650   2.361  0.00  0.00    +0.177 HD
ENDBRANCH  14  23
ENDBRANCH   1  15
BRANCH   2  26
ATOM     26  O   UNL     1       0.012   0.225   4.755  0.00  0.00    -0.506 OA
ATOM     27  H   UNL     1      -0.877   0.403   4.418  0.00  0.00    +0.292 HD
ENDBRANCH   2  26
TORSDOF 3
