REMARK  Name = ZINC14358009
REMARK  8 active torsions:
REMARK  status: ('A' for Active; 'I' for Inactive)
REMARK    1  A    between atoms: C_1  and  C_2
REMARK    2  A    between atoms: C_7  and  N_63
REMARK    3  A    between atoms: C_9  and  C_11
REMARK    4  A    between atoms: C_12  and  C_13
REMARK    5  A    between atoms: C_12  and  N_63
REMARK    6  A    between atoms: N_15  and  C_16
REMARK    7  A    between atoms: C_18  and  S_23
REMARK    8  A    between atoms: S_23  and  N_26
REMARK                            x       y       z     vdW  Elec       q    Type
REMARK                         _______ _______ _______ _____ _____    ______ ____
ROOT
ATOM      1  C   UNL     1      -1.236   3.140   0.018  0.00  0.00    +0.054 A 
ATOM      2  C   UNL     1      -0.129   3.712  -0.594  0.00  0.00    +0.053 A 
ATOM      3  C   UNL     1       1.073   3.034  -0.618  0.00  0.00    +0.107 A 
ATOM      4  C   UNL     1       1.176   1.785  -0.032  0.00  0.00    +0.030 A 
ATOM      5  C   UNL     1       0.077   1.212   0.579  0.00  0.00    +0.024 A 
ATOM      6  C   UNL     1      -1.131   1.883   0.602  0.00  0.00    +0.062 A 
ATOM      7 CL   UNL     1      -2.514   1.160   1.363  0.00  0.00    -0.082 Cl
ENDROOT
BRANCH   1  10
ATOM      8  C   UNL     1      -2.473   5.169   0.152  0.00  0.00    +0.200 C 
ATOM      9  O   UNL     1      -1.431   5.791   0.145  0.00  0.00    -0.278 OA
ATOM     10  N   UNL     1      -2.456   3.826   0.044  0.00  0.00    -0.286 N 
ATOM     11  H   UNL     1      -3.290   3.334  -0.017  0.00  0.00    +0.155 HD
BRANCH   8  12
ATOM     12  C   UNL     1      -3.785   5.899   0.281  0.00  0.00    +0.016 C 
BRANCH  12  13
ATOM     13  N   UNL     1      -3.525   7.347   0.383  0.00  0.00    +0.387 N 
ATOM     14  H   UNL     1      -2.942   7.529   1.208  0.00  0.00    -0.085 HD
ATOM     15  H   UNL     1      -3.032   7.663  -0.461  0.00  0.00    -0.085 HD
BRANCH  13  21
ATOM     16  C   UNL     1      -3.309  11.635   0.320  0.00  0.00    +0.008 C 
ATOM     17  C   UNL     1      -3.508  10.206   0.829  0.00  0.00    -0.013 C 
ATOM     18  C   UNL     1      -3.933  10.243   2.298  0.00  0.00    +0.003 C 
ATOM     19  C   UNL     1      -4.132   8.814   2.807  0.00  0.00    -0.001 C 
ATOM     20  C   UNL     1      -5.218   8.124   1.980  0.00  0.00    -0.015 C 
ATOM     21  C   UNL     1      -4.794   8.088   0.510  0.00  0.00    -0.068 C 
ATOM     22  C   UNL     1      -4.595   9.517   0.001  0.00  0.00    -0.025 C 
ATOM     23  C   UNL     1      -4.170   9.480  -1.468  0.00  0.00    +0.006 C 
ENDBRANCH  13  21
ENDBRANCH  12  13
ENDBRANCH   8  12
ENDBRANCH   1  10
BRANCH   3  24
ATOM     24  S   UNL     1       2.478   3.760  -1.395  0.00  0.00    +0.061 S 
ATOM     25  O   UNL     1       2.265   5.165  -1.389  0.00  0.00    -0.153 OA
ATOM     26  O   UNL     1       3.624   3.160  -0.805  0.00  0.00    -0.153 OA
BRANCH  24  27
ATOM     27  N   UNL     1       2.460   3.285  -2.982  0.00  0.00    -0.177 NA
ATOM     28  C   UNL     1       3.149   2.068  -3.349  0.00  0.00    +0.109 C 
ATOM     29  C   UNL     1       4.617   2.383  -3.703  0.00  0.00    +0.017 C 
ATOM     30  C   UNL     1       4.690   3.101  -4.985  0.00  0.00    +0.001 C 
ATOM     31  C   UNL     1       4.000   4.462  -4.984  0.00  0.00    +0.001 C 
ATOM     32  C   UNL     1       2.532   4.278  -5.277  0.00  0.00    +0.017 C 
ATOM     33  C   UNL     1       1.745   4.125  -3.963  0.00  0.00    +0.109 C 
ENDBRANCH  24  27
ENDBRANCH   3  24
TORSDOF 6
