REMARK  Name = ZINC20751782
REMARK  5 active torsions:
REMARK  status: ('A' for Active; 'I' for Inactive)
REMARK    1  A    between atoms: C_1  and  N_2
REMARK    2  A    between atoms: N_5  and  S_8
REMARK    3  A    between atoms: S_8  and  C_11
REMARK    4  A    between atoms: C_24  and  C_27
REMARK    5  A    between atoms: C_36  and  O_37
REMARK                            x       y       z     vdW  Elec       q    Type
REMARK                         _______ _______ _______ _____ _____    ______ ____
ROOT
ATOM      1  C   UNL     1       7.522  -0.060  -0.733  0.00  0.00    +0.106 A 
ATOM      2  C   UNL     1       6.963  -0.346  -1.965  0.00  0.00    +0.030 A 
ATOM      3  C   UNL     1       5.608  -0.596  -2.060  0.00  0.00    +0.025 A 
ATOM      4  C   UNL     1       4.813  -0.561  -0.921  0.00  0.00    +0.031 A 
ATOM      5  C   UNL     1       5.370  -0.276   0.316  0.00  0.00    -0.018 A 
ATOM      6  C   UNL     1       6.732  -0.025   0.399  0.00  0.00    +0.034 A 
ATOM      7  C   UNL     1       4.554  -0.232   1.569  0.00  0.00    +0.049 C 
ATOM      8  C   UNL     1       4.318   1.188   2.025  0.00  0.00    -0.023 C 
ATOM      9  C   UNL     1       3.118   1.305   2.540  0.00  0.00    -0.030 C 
ATOM     10  C   UNL     1       2.392  -0.025   2.504  0.00  0.00    +0.033 C 
ATOM     11  C   UNL     1       3.139  -0.812   1.387  0.00  0.00    +0.029 C 
ATOM     12  C   UNL     1       2.558  -0.358   0.044  0.00  0.00    +0.109 C 
ATOM     13  N   UNL     1       3.442  -0.815  -1.034  0.00  0.00    -0.336 N 
ATOM     14  H   UNL     1       3.022  -1.342  -1.903  0.00  0.00    +0.147 HD
ENDROOT
BRANCH  12  15
ATOM     15  C   UNL     1       2.464   1.145   0.017  0.00  0.00    +0.022 A 
ATOM     16  C   UNL     1       1.332   1.792   0.541  0.00  0.00    -0.009 A 
ATOM     17  C   UNL     1       0.268   1.061   1.097  0.00  0.00    +0.009 A 
ATOM     18  C   UNL     1      -0.816   1.720   1.590  0.00  0.00    +0.001 A 
ATOM     19  C   UNL     1      -0.884   3.112   1.561  0.00  0.00    +0.001 A 
ATOM     20  C   UNL     1       0.127   3.852   1.030  0.00  0.00    +0.008 A 
ATOM     21  C   UNL     1       1.261   3.207   0.506  0.00  0.00    -0.017 A 
ATOM     22  C   UNL     1       2.324   3.939  -0.051  0.00  0.00    +0.012 A 
ATOM     23  C   UNL     1       3.406   3.284  -0.549  0.00  0.00    +0.046 A 
ATOM     24  C   UNL     1       3.479   1.887  -0.516  0.00  0.00    +0.122 A 
BRANCH  24  25
ATOM     25  O   UNL     1       4.573   1.261  -1.022  0.00  0.00    -0.506 OA
ATOM     26  H   UNL     1       5.395   1.852  -1.454  0.00  0.00    +0.292 HD
ENDBRANCH  24  25
ENDBRANCH  12  15
BRANCH   1  27
ATOM     27  S   UNL     1       9.250   0.261  -0.607  0.00  0.00    +0.061 S 
ATOM     28  O   UNL     1       9.621  -0.035   0.732  0.00  0.00    -0.153 OA
ATOM     29  O   UNL     1       9.862  -0.368  -1.724  0.00  0.00    -0.153 OA
BRANCH  27  34
ATOM     30  C   UNL     1       8.003   5.770  -1.476  0.00  0.00    -0.096 C 
ATOM     31  N   UNL     1       8.812   4.568  -1.234  0.00  0.00    +0.380 N 
ATOM     32  C   UNL     1       8.453   3.941   0.045  0.00  0.00    -0.062 C 
ATOM     33  C   UNL     1       9.434   2.804   0.346  0.00  0.00    +0.091 C 
ATOM     34  N   UNL     1       9.460   1.892  -0.807  0.00  0.00    -0.180 NA
ATOM     35  C   UNL     1       9.684   2.465  -2.143  0.00  0.00    +0.091 C 
ATOM     36  C   UNL     1       8.687   3.617  -2.346  0.00  0.00    -0.062 C 
ATOM     37  H   UNL     1       9.866   4.874  -1.172  0.00  0.00    -0.082 HD
ENDBRANCH  27  34
ENDBRANCH   1  27
TORSDOF 4
