REMARK  Name = ZINC63069343
REMARK  10 active torsions:
REMARK  status: ('A' for Active; 'I' for Inactive)
REMARK    1  A    between atoms: C_1  and  C_2
REMARK    2  A    between atoms: C_2  and  C_3
REMARK    3  A    between atoms: C_2  and  C_4
REMARK    4  A    between atoms: C_4  and  C_6
REMARK    5  A    between atoms: C_4  and  N_28
REMARK    6  A    between atoms: N_8  and  C_9
REMARK    7  A    between atoms: C_9  and  C_10
REMARK    8  A    between atoms: C_10  and  C_12
REMARK    9  A    between atoms: C_10  and  C_19
REMARK   10  A    between atoms: C_29  and  C_31
REMARK                            x       y       z     vdW  Elec       q    Type
REMARK                         _______ _______ _______ _____ _____    ______ ____
ROOT
ATOM      1  C   UNL     1      -2.768   1.462  -2.944  0.00  0.00    +0.116 C 
ENDROOT
BRANCH   1   4
ATOM      2  C   UNL     1      -2.074  -0.231  -1.335  0.00  0.00    +0.234 C 
ATOM      3  O   UNL     1      -2.511  -1.081  -2.081  0.00  0.00    -0.274 OA
ATOM      4  N   UNL     1      -2.204   1.073  -1.649  0.00  0.00    -0.313 N 
ATOM      5  H   UNL     1      -1.924   1.754  -1.018  0.00  0.00    +0.149 HD
BRANCH   2   6
ATOM      6  C   UNL     1      -1.386  -0.633  -0.056  0.00  0.00    +0.161 C 
BRANCH   6   7
ATOM      7  N   UNL     1      -1.702  -2.030   0.251  0.00  0.00    -0.301 N 
ATOM      8  C   UNL     1      -1.649  -2.470   1.523  0.00  0.00    +0.255 C 
ATOM      9  O   UNL     1      -1.340  -1.709   2.416  0.00  0.00    -0.272 OA
ATOM     10  H   UNL     1      -1.949  -2.639  -0.463  0.00  0.00    +0.150 HD
BRANCH   8  11
ATOM     11  C   UNL     1      -1.974  -3.908   1.838  0.00  0.00    +0.261 C 
ATOM     12  C   UNL     1      -3.475  -4.202   1.598  0.00  0.00    +0.084 C 
ATOM     13  C   UNL     1      -3.792  -5.141   2.750  0.00  0.00    +0.015 C 
ATOM     14  C   UNL     1      -2.808  -5.045   3.617  0.00  0.00    +0.184 C 
ATOM     15  O   UNL     1      -1.845  -4.168   3.249  0.00  0.00    -0.487 OA
ENDBRANCH   8  11
ENDBRANCH   6   7
BRANCH   6  17
ATOM     16  C   UNL     1       0.820  -0.801   1.106  0.00  0.00    +0.009 C 
ATOM     17  C   UNL     1       0.127  -0.476  -0.219  0.00  0.00    +0.012 C 
ATOM     18  C   UNL     1       0.625  -1.434  -1.303  0.00  0.00    +0.009 C 
ENDBRANCH   6  17
ENDBRANCH   2   6
ENDBRANCH   1   4
BRANCH   1  19
ATOM     19  C   UNL     1      -2.804   2.988  -3.047  0.00  0.00    +0.066 C 
BRANCH  19  20
ATOM     20  C   UNL     1      -3.269   3.388  -4.423  0.00  0.00    -0.033 C 
ATOM     21  C   UNL     1      -2.585   4.121  -5.332  0.00  0.00    -0.000 A 
ATOM     22  C   UNL     1      -1.255   4.742  -5.310  0.00  0.00    +0.010 A 
ATOM     23  C   UNL     1      -0.835   5.431  -6.396  0.00  0.00    +0.001 A 
ATOM     24  C   UNL     1      -1.636   5.566  -7.538  0.00  0.00    +0.002 A 
ATOM     25  C   UNL     1      -2.869   5.023  -7.633  0.00  0.00    +0.026 A 
ATOM     26  C   UNL     1      -3.411   4.277  -6.550  0.00  0.00    +0.043 A 
ATOM     27  N   UNL     1      -4.561   3.665  -6.401  0.00  0.00    -0.380 N 
ATOM     28  C   UNL     1      -4.591   3.045  -5.072  0.00  0.00    +0.145 C 
ATOM     29  H   UNL     1      -5.270   3.626  -7.061  0.00  0.00    +0.160 HD
ENDBRANCH  19  20
BRANCH  19  30
ATOM     30  C   UNL     1      -3.755   3.539  -2.016  0.00  0.00    -0.020 A 
ATOM     31  C   UNL     1      -5.087   3.167  -2.035  0.00  0.00    +0.006 A 
ATOM     32  C   UNL     1      -5.959   3.672  -1.089  0.00  0.00    +0.000 A 
ATOM     33  C   UNL     1      -5.501   4.550  -0.124  0.00  0.00    +0.001 A 
ATOM     34  C   UNL     1      -4.171   4.922  -0.104  0.00  0.00    +0.020 A 
ATOM     35  C   UNL     1      -3.296   4.412  -1.047  0.00  0.00    +0.045 A 
ATOM     36 CL   UNL     1      -1.623   4.875  -1.018  0.00  0.00    -0.083 Cl
ENDBRANCH  19  30
ENDBRANCH   1  19
TORSDOF 8
