REMARK  Name = ZINC10387053
REMARK  4 active torsions:
REMARK  status: ('A' for Active; 'I' for Inactive)
REMARK    1  A    between atoms: C_6  and  N_7
REMARK    2  A    between atoms: C_12  and  N_16
REMARK    3  A    between atoms: N_16  and  N_17
REMARK    4  A    between atoms: C_18  and  C_20
REMARK                            x       y       z     vdW  Elec       q    Type
REMARK                         _______ _______ _______ _____ _____    ______ ____
ROOT
ATOM      1  N   UNL     1      -4.654   0.770   0.028  0.00  0.00    -0.214 N 
ATOM      2  C   UNL     1      -3.634   1.679   0.028  0.00  0.00    +0.168 A 
ATOM      3  C   UNL     1      -2.436   0.937   0.019  0.00  0.00    +0.080 A 
ATOM      4  C   UNL     1      -2.795  -0.429   0.013  0.00  0.00    +0.148 A 
ATOM      5  N   UNL     1      -4.096  -0.515   0.019  0.00  0.00    -0.172 NA
ATOM      6  C   UNL     1      -1.216   1.640   0.017  0.00  0.00    +0.149 A 
ATOM      7  N   UNL     1      -1.253   2.968   0.030  0.00  0.00    -0.219 NA
ATOM      8  C   UNL     1      -2.402   3.621   0.033  0.00  0.00    +0.225 A 
ATOM      9  N   UNL     1      -3.566   3.008   0.035  0.00  0.00    -0.216 NA
ENDROOT
BRANCH   1  15
ATOM     10  C   UNL     1      -6.916   0.263  -0.653  0.00  0.00    +0.029 A 
ATOM     11  C   UNL     1      -8.265   0.561  -0.643  0.00  0.00    +0.023 A 
ATOM     12  C   UNL     1      -8.726   1.664   0.053  0.00  0.00    +0.059 A 
ATOM     13  C   UNL     1      -7.836   2.473   0.742  0.00  0.00    +0.061 A 
ATOM     14  C   UNL     1      -6.487   2.175   0.740  0.00  0.00    +0.049 A 
ATOM     15  C   UNL     1      -6.022   1.071   0.037  0.00  0.00    +0.069 A 
ATOM     16 CL   UNL     1      -8.418   3.856   1.614  0.00  0.00    -0.082 Cl
ATOM     17 CL   UNL     1     -10.421   2.037   0.062  0.00  0.00    -0.082 Cl
ENDBRANCH   1  15
BRANCH   6  18
ATOM     18  N   UNL     1      -0.011   0.966   0.007  0.00  0.00    -0.247 N 
ATOM     19  H   UNL     1       0.002  -0.004   0.002  0.00  0.00    +0.172 HD
BRANCH  18  20
ATOM     20  N   UNL     1       1.193   1.683  -0.000  0.00  0.00    -0.231 N 
ATOM     21  C   UNL     1       2.369   1.025  -0.015  0.00  0.00    +0.262 C 
ATOM     22  O   UNL     1       2.385  -0.191  -0.022  0.00  0.00    -0.269 OA
ATOM     23  H   UNL     1       1.179   2.653   0.005  0.00  0.00    +0.173 HD
BRANCH  21  24
ATOM     24  C   UNL     1       3.638   1.781  -0.023  0.00  0.00    +0.057 A 
ATOM     25  C   UNL     1       3.622   3.177  -0.015  0.00  0.00    +0.016 A 
ATOM     26  C   UNL     1       4.810   3.877  -0.023  0.00  0.00    +0.021 A 
ATOM     27  C   UNL     1       6.018   3.199  -0.038  0.00  0.00    +0.042 A 
ATOM     28  C   UNL     1       6.041   1.815  -0.046  0.00  0.00    +0.040 A 
ATOM     29  C   UNL     1       4.859   1.102  -0.033  0.00  0.00    +0.054 A 
ATOM     30 CL   UNL     1       4.889  -0.634  -0.034  0.00  0.00    -0.083 Cl
ATOM     31 CL   UNL     1       7.508   4.088  -0.048  0.00  0.00    -0.083 Cl
ENDBRANCH  21  24
ENDBRANCH  18  20
ENDBRANCH   6  18
TORSDOF 4
