REMARK  Name = ZINC00554111
REMARK  4 active torsions:
REMARK  status: ('A' for Active; 'I' for Inactive)
REMARK    1  A    between atoms: C_1  and  C_2
REMARK    2  A    between atoms: N_4  and  N_5
REMARK    3  A    between atoms: C_13  and  S_15
REMARK    4  A    between atoms: S_15  and  C_16
REMARK                            x       y       z     vdW  Elec       q    Type
REMARK                         _______ _______ _______ _____ _____    ______ ____
ROOT
ATOM      1  N   UNL     1      -0.493   4.223  -0.886  0.00  0.00    -0.248 N 
ATOM      2  C   UNL     1       0.873   4.426  -0.806  0.00  0.00    +0.148 A 
ATOM      3  C   UNL     1       1.749   3.455  -0.239  0.00  0.00    +0.052 A 
ATOM      4  C   UNL     1       1.381   2.163   0.319  0.00  0.00    -0.025 A 
ATOM      5  C   UNL     1       2.389   1.403   0.803  0.00  0.00    -0.004 A 
ATOM      6  S   UNL     1       3.862   2.358   0.544  0.00  0.00    -0.073 S 
ATOM      7  C   UNL     1       3.130   3.773  -0.212  0.00  0.00    +0.115 A 
ATOM      8  N   UNL     1       3.623   4.904  -0.679  0.00  0.00    -0.215 NA
ATOM      9  C   UNL     1       2.751   5.771  -1.197  0.00  0.00    +0.191 A 
ATOM     10  N   UNL     1       1.448   5.538  -1.255  0.00  0.00    -0.205 NA
ATOM     11  C   UNL     1       2.282   0.045   1.426  0.00  0.00    +0.043 C 
ATOM     12  C   UNL     1       0.810  -0.217   1.775  0.00  0.00    +0.005 C 
ATOM     13  C   UNL     1      -0.053   0.148   0.563  0.00  0.00    +0.005 C 
ATOM     14  C   UNL     1      -0.060   1.664   0.369  0.00  0.00    +0.037 C 
ATOM     15  H   UNL     1      -0.915   3.540  -0.342  0.00  0.00    +0.172 HD
ENDROOT
BRANCH   1  19
ATOM     16  C   UNL     1      -3.432   5.648  -2.764  0.00  0.00    +0.110 C 
ATOM     17  C   UNL     1      -2.599   4.807  -1.831  0.00  0.00    +0.226 C 
ATOM     18  O   UNL     1      -3.126   3.953  -1.150  0.00  0.00    -0.275 OA
ATOM     19  N   UNL     1      -1.268   5.005  -1.753  0.00  0.00    -0.236 N 
ATOM     20  H   UNL     1      -0.846   5.688  -2.298  0.00  0.00    +0.173 HD
ENDBRANCH   1  19
BRANCH   9  21
ATOM     21  S   UNL     1       3.361   7.296  -1.835  0.00  0.00    -0.089 S 
ATOM     22  C   UNL     1       5.130   7.087  -1.511  0.00  0.00    +0.093 C 
ENDBRANCH   9  21
TORSDOF 2
