REMARK  Name = ZINC12565517
REMARK  3 active torsions:
REMARK  status: ('A' for Active; 'I' for Inactive)
REMARK    1  A    between atoms: N_13  and  C_17
REMARK    2  A    between atoms: C_17  and  C_18
REMARK    3  A    between atoms: N_20  and  C_21
REMARK                            x       y       z     vdW  Elec       q    Type
REMARK                         _______ _______ _______ _____ _____    ______ ____
ROOT
ATOM      1  C   UNL     1       1.450   4.119  -3.583  0.00  0.00    +0.001 A 
ATOM      2  C   UNL     1       1.908   5.422  -3.518  0.00  0.00    +0.004 A 
ATOM      3  C   UNL     1       1.956   6.076  -2.303  0.00  0.00    +0.046 A 
ATOM      4  C   UNL     1       1.545   5.428  -1.143  0.00  0.00    +0.126 A 
ATOM      5  C   UNL     1       1.083   4.124  -1.211  0.00  0.00    +0.027 A 
ATOM      6  C   UNL     1       1.039   3.473  -2.433  0.00  0.00    +0.010 A 
ATOM      7  C   UNL     1       0.625   3.397   0.022  0.00  0.00    +0.144 C 
ATOM      8  C   UNL     1       1.119   4.102   1.281  0.00  0.00    +0.081 C 
ATOM      9  C   UNL     1       0.842   5.605   1.134  0.00  0.00    +0.232 C 
ATOM     10  O   UNL     1       1.610   6.100   0.036  0.00  0.00    -0.492 OA
ATOM     11  C   UNL     1      -0.882   3.285   0.038  0.00  0.00    +0.252 C 
ATOM     12  O   UNL     1      -1.686   4.192   0.057  0.00  0.00    -0.272 OA
ATOM     13  N   UNL     1      -1.145   1.961   0.019  0.00  0.00    -0.215 N 
ATOM     14  C   UNL     1      -0.020   1.236   0.003  0.00  0.00    +0.310 C 
ATOM     15  O   UNL     1       0.000   0.021  -0.012  0.00  0.00    -0.252 OA
ATOM     16  N   UNL     1       1.086   2.003  -0.001  0.00  0.00    -0.281 N 
ATOM     17  H   UNL     1       2.006   1.697  -0.016  0.00  0.00    +0.152 HD
ENDROOT
BRANCH  13  18
ATOM     18  C   UNL     1      -2.494   1.389   0.021  0.00  0.00    +0.214 C 
BRANCH  18  19
ATOM     19  C   UNL     1      -2.947   1.177   1.442  0.00  0.00    +0.235 C 
ATOM     20  O   UNL     1      -2.216   1.473   2.363  0.00  0.00    -0.274 OA
ATOM     21  N   UNL     1      -4.165   0.656   1.690  0.00  0.00    -0.283 N 
ATOM     22  H   UNL     1      -4.776   0.480   0.957  0.00  0.00    +0.155 HD
BRANCH  21  23
ATOM     23  C   UNL     1      -4.550   0.371   3.006  0.00  0.00    +0.048 A 
ATOM     24  C   UNL     1      -4.124   1.184   4.047  0.00  0.00    +0.025 A 
ATOM     25  C   UNL     1      -4.509   0.904   5.343  0.00  0.00    +0.017 A 
ATOM     26  C   UNL     1      -5.311  -0.193   5.606  0.00  0.00    +0.019 A 
ATOM     27  C   UNL     1      -5.733  -1.009   4.572  0.00  0.00    +0.032 A 
ATOM     28  C   UNL     1      -5.355  -0.730   3.272  0.00  0.00    +0.040 A 
ATOM     29 BR   UNL     1      -5.931  -1.845   1.858  0.00  0.00    -0.048 Br
ATOM     30 BR   UNL     1      -5.831  -0.578   7.383  0.00  0.00    -0.050 Br
ENDBRANCH  21  23
ENDBRANCH  18  19
ENDBRANCH  13  18
TORSDOF 3
