REMARK  Name = ZINC02309119
REMARK  6 active torsions:
REMARK  status: ('A' for Active; 'I' for Inactive)
REMARK    1  A    between atoms: C_6  and  C_7
REMARK    2  A    between atoms: C_7  and  C_8
REMARK    3  A    between atoms: C_7  and  C_15
REMARK    4  A    between atoms: C_7  and  O_26
REMARK    5  A    between atoms: N_17  and  N_18
REMARK    6  A    between atoms: N_18  and  C_19
REMARK                            x       y       z     vdW  Elec       q    Type
REMARK                         _______ _______ _______ _____ _____    ______ ____
ROOT
ATOM      1  C   UNL     1       2.462   0.920  -0.017  0.00  0.00    +0.194 C 
ENDROOT
BRANCH   1   7
ATOM      2  C   UNL     1       3.626   1.721  -2.082  0.00  0.00    +0.009 A 
ATOM      3  C   UNL     1       4.702   1.713  -2.950  0.00  0.00    +0.020 A 
ATOM      4  C   UNL     1       5.780   0.882  -2.707  0.00  0.00    +0.041 A 
ATOM      5  C   UNL     1       5.784   0.062  -1.592  0.00  0.00    +0.020 A 
ATOM      6  C   UNL     1       4.710   0.075  -0.722  0.00  0.00    +0.009 A 
ATOM      7  C   UNL     1       3.633   0.906  -0.966  0.00  0.00    -0.003 A 
ATOM      8 CL   UNL     1       7.129   0.867  -3.800  0.00  0.00    -0.084 Cl
ENDBRANCH   1   7
BRANCH   1   9
ATOM      9  C   UNL     1       1.936  -0.482   0.152  0.00  0.00    -0.003 A 
ATOM     10  C   UNL     1       2.574  -1.362   1.005  0.00  0.00    +0.009 A 
ATOM     11  C   UNL     1       2.089  -2.646   1.164  0.00  0.00    +0.020 A 
ATOM     12  C   UNL     1       0.970  -3.055   0.461  0.00  0.00    +0.041 A 
ATOM     13  C   UNL     1       0.334  -2.175  -0.398  0.00  0.00    +0.020 A 
ATOM     14  C   UNL     1       0.818  -0.889  -0.552  0.00  0.00    +0.009 A 
ATOM     15 CL   UNL     1       0.363  -4.670   0.655  0.00  0.00    -0.084 Cl
ENDBRANCH   1   9
BRANCH   1  16
ATOM     16  C   UNL     1       2.906   1.454   1.321  0.00  0.00    +0.270 C 
ATOM     17  O   UNL     1       4.069   1.367   1.653  0.00  0.00    -0.270 OA
ATOM     18  N   UNL     1       2.010   2.028   2.148  0.00  0.00    -0.234 N 
ATOM     19  H   UNL     1       1.079   2.097   1.883  0.00  0.00    +0.173 HD
BRANCH  18  20
ATOM     20  N   UNL     1       2.424   2.529   3.389  0.00  0.00    -0.264 N 
ATOM     21  H   UNL     1       3.354   2.460   3.655  0.00  0.00    +0.170 HD
BRANCH  20  22
ATOM     22  C   UNL     1       1.495   3.130   4.245  0.00  0.00    +0.045 A 
ATOM     23  C   UNL     1       0.164   3.235   3.864  0.00  0.00    +0.027 A 
ATOM     24  C   UNL     1      -0.752   3.824   4.713  0.00  0.00    +0.040 A 
ATOM     25  C   UNL     1      -0.342   4.319   5.939  0.00  0.00    +0.124 A 
ATOM     26  C   UNL     1       0.986   4.221   6.319  0.00  0.00    +0.040 A 
ATOM     27  C   UNL     1       1.904   3.627   5.476  0.00  0.00    +0.027 A 
ATOM     28  F   UNL     1      -1.239   4.900   6.766  0.00  0.00    -0.205 F 
ENDBRANCH  20  22
ENDBRANCH  18  20
ENDBRANCH   1  16
BRANCH   1  29
ATOM     29  O   UNL     1       1.430   1.756  -0.545  0.00  0.00    -0.371 OA
ATOM     30  H   UNL     1       1.699   2.675  -0.679  0.00  0.00    +0.212 HD
ENDBRANCH   1  29
TORSDOF 6
