REMARK  Name = ZINC27019990
REMARK  10 active torsions:
REMARK  status: ('A' for Active; 'I' for Inactive)
REMARK    1  A    between atoms: C_1  and  C_2
REMARK    2  A    between atoms: C_2  and  N_3
REMARK    3  A    between atoms: N_3  and  C_4
REMARK    4  A    between atoms: N_3  and  S_6
REMARK    5  A    between atoms: C_4  and  C_5
REMARK    6  A    between atoms: S_6  and  C_9
REMARK    7  A    between atoms: C_12  and  C_15
REMARK    8  A    between atoms: N_19  and  C_20
REMARK    9  A    between atoms: N_26  and  C_27
REMARK   10  A    between atoms: C_27  and  C_28
REMARK                            x       y       z     vdW  Elec       q    Type
REMARK                         _______ _______ _______ _____ _____    ______ ____
ROOT
ATOM      1  C   UNL     1      -2.905  -2.378   0.166  0.00  0.00    +0.058 A 
ATOM      2  C   UNL     1      -3.393  -1.542  -0.774  0.00  0.00    +0.075 A 
ATOM      3  S   UNL     1      -2.656   0.016  -0.306  0.00  0.00    -0.059 S 
ATOM      4  C   UNL     1      -1.736  -0.560   1.112  0.00  0.00    +0.152 A 
ATOM      5  N   UNL     1      -0.954   0.118   1.930  0.00  0.00    -0.336 N 
ATOM      6  N   UNL     1      -2.063  -1.895   1.130  0.00  0.00    -0.317 N 
ATOM      7  H   UNL     1      -0.394  -0.408   2.717  0.00  0.00    +0.168 HD
ENDROOT
BRANCH   1  11
ATOM      8  C   UNL     1      -3.978  -6.488   0.128  0.00  0.00    +0.106 A 
ATOM      9  C   UNL     1      -4.965  -5.519   0.099  0.00  0.00    +0.029 A 
ATOM     10  C   UNL     1      -4.623  -4.182   0.111  0.00  0.00    +0.012 A 
ATOM     11  C   UNL     1      -3.279  -3.809   0.153  0.00  0.00    -0.001 A 
ATOM     12  C   UNL     1      -2.288  -4.792   0.177  0.00  0.00    +0.012 A 
ATOM     13  C   UNL     1      -2.644  -6.125   0.170  0.00  0.00    +0.029 A 
BRANCH   8  14
ATOM     14  S   UNL     1      -4.423  -8.193   0.113  0.00  0.00    +0.061 S 
ATOM     15  O   UNL     1      -3.338  -8.901   0.696  0.00  0.00    -0.153 OA
ATOM     16  O   UNL     1      -5.747  -8.272   0.623  0.00  0.00    -0.153 OA
BRANCH  14  17
ATOM     17  N   UNL     1      -4.498  -8.665  -1.473  0.00  0.00    -0.177 NA
BRANCH  17  19
ATOM     18  C   UNL     1      -3.314 -10.722  -2.062  0.00  0.00    +0.022 C 
ATOM     19  C   UNL     1      -3.304  -9.194  -2.137  0.00  0.00    +0.106 C 
ENDBRANCH  17  19
BRANCH  17  20
ATOM     20  C   UNL     1      -5.758  -8.553  -2.212  0.00  0.00    +0.106 C 
ATOM     21  C   UNL     1      -5.781  -7.232  -2.984  0.00  0.00    +0.022 C 
ENDBRANCH  17  20
ENDBRANCH  14  17
ENDBRANCH   8  14
ENDBRANCH   1  11
BRANCH   5  22
ATOM     22  C   UNL     1      -0.840   1.474   1.800  0.00  0.00    +0.041 A 
ATOM     23  C   UNL     1       0.210   2.022   1.058  0.00  0.00    +0.025 A 
ATOM     24  C   UNL     1       0.315   3.391   0.926  0.00  0.00    +0.002 A 
ATOM     25  C   UNL     1      -0.609   4.222   1.535  0.00  0.00    +0.000 A 
ATOM     26  C   UNL     1      -1.648   3.686   2.276  0.00  0.00    +0.002 A 
ATOM     27  C   UNL     1      -1.769   2.319   2.412  0.00  0.00    +0.025 A 
ENDBRANCH   5  22
BRANCH   6  28
ATOM     28  C   UNL     1      -1.521  -2.784   2.161  0.00  0.00    +0.151 C 
BRANCH  28  29
ATOM     29  C   UNL     1      -2.518  -2.920   3.282  0.00  0.00    -0.013 C 
ATOM     30  C   UNL     1      -2.973  -4.102   3.615  0.00  0.00    +0.005 C 
ENDBRANCH  28  29
ENDBRANCH   6  28
TORSDOF 8
