REMARK  Name = ZINC02366943
REMARK  12 active torsions:
REMARK  status: ('A' for Active; 'I' for Inactive)
REMARK    1  A    between atoms: C_1  and  C_2
REMARK    2  A    between atoms: C_4  and  C_30
REMARK    3  A    between atoms: C_5  and  N_9
REMARK    4  A    between atoms: C_10  and  C_12
REMARK    5  A    between atoms: C_12  and  S_13
REMARK    6  A    between atoms: S_13  and  C_14
REMARK    7  A    between atoms: C_17  and  C_20
REMARK    8  A    between atoms: N_18  and  N_19
REMARK    9  A    between atoms: C_23  and  C_26
REMARK   10  A    between atoms: C_26  and  C_27
REMARK   11  A    between atoms: C_26  and  C_28
REMARK   12  A    between atoms: C_26  and  C_29
REMARK                            x       y       z     vdW  Elec       q    Type
REMARK                         _______ _______ _______ _____ _____    ______ ____
ROOT
ATOM      1  C   UNL     1       3.657  -6.552  -1.271  0.00  0.00    +0.209 A 
ATOM      2  N   UNL     1       2.580  -7.128  -0.785  0.00  0.00    -0.121 NA
ATOM      3  N   UNL     1       2.691  -8.406  -0.859  0.00  0.00    -0.127 NA
ATOM      4  C   UNL     1       3.849  -8.725  -1.388  0.00  0.00    +0.182 A 
ATOM      5  N   UNL     1       4.503  -7.548  -1.668  0.00  0.00    -0.224 N 
ENDROOT
BRANCH   4   6
ATOM      6  C   UNL     1       4.354 -10.092  -1.636  0.00  0.00    +0.021 A 
ATOM      7  C   UNL     1       3.475 -11.176  -1.633  0.00  0.00    +0.012 A 
ATOM      8  C   UNL     1       3.953 -12.448  -1.870  0.00  0.00    +0.005 A 
ATOM      9  C   UNL     1       5.302 -12.652  -2.100  0.00  0.00    -0.042 A 
ATOM     10  C   UNL     1       6.180 -11.583  -2.099  0.00  0.00    +0.005 A 
ATOM     11  C   UNL     1       5.714 -10.305  -1.869  0.00  0.00    +0.012 A 
BRANCH   9  12
ATOM     12  C   UNL     1       5.818 -14.046  -2.353  0.00  0.00    -0.013 C 
ATOM     13  C   UNL     1       6.847 -14.411  -1.281  0.00  0.00    +0.015 C 
ATOM     14  C   UNL     1       4.654 -15.038  -2.300  0.00  0.00    +0.015 C 
ATOM     15  C   UNL     1       6.476 -14.104  -3.733  0.00  0.00    +0.015 C 
ENDBRANCH   9  12
ENDBRANCH   4   6
BRANCH   5  16
ATOM     16  N   UNL     1       5.741  -7.404  -2.227  0.00  0.00    -0.295 N 
ATOM     17  H   UNL     1       6.465  -7.475  -1.527  0.00  0.00    +0.163 HD
ATOM     18  H   UNL     1       5.885  -8.078  -2.965  0.00  0.00    +0.163 HD
ENDBRANCH   5  16
BRANCH   1  19
ATOM     19  S   UNL     1       3.957  -4.820  -1.382  0.00  0.00    -0.075 S 
BRANCH  19  20
ATOM     20  C   UNL     1       2.415  -4.188  -0.674  0.00  0.00    +0.173 C 
BRANCH  20  22
ATOM     21  N   UNL     1       1.396  -1.988  -0.182  0.00  0.00    -0.283 N 
ATOM     22  C   UNL     1       2.446  -2.682  -0.667  0.00  0.00    +0.228 C 
ATOM     23  O   UNL     1       3.414  -2.093  -1.097  0.00  0.00    -0.275 OA
ATOM     24  H   UNL     1       0.645  -2.459   0.212  0.00  0.00    +0.155 HD
BRANCH  21  29
ATOM     25  C   UNL     1       1.372   3.680  -0.444  0.00  0.00    +0.044 C 
ATOM     26  C   UNL     1       1.379   2.175  -0.375  0.00  0.00    -0.049 A 
ATOM     27  C   UNL     1       0.945   1.534   0.771  0.00  0.00    +0.008 A 
ATOM     28  C   UNL     1       0.949   0.155   0.839  0.00  0.00    -0.028 A 
ATOM     29  C   UNL     1       1.391  -0.590  -0.247  0.00  0.00    +0.055 A 
ATOM     30  C   UNL     1       1.827   0.055  -1.397  0.00  0.00    +0.063 A 
ATOM     31  C   UNL     1       1.820   1.436  -1.458  0.00  0.00    +0.025 A 
ATOM     32 CL   UNL     1       2.381  -0.871  -2.757  0.00  0.00    -0.082 Cl
ATOM     33  C   UNL     1       0.474  -0.541   2.088  0.00  0.00    +0.046 C 
ENDBRANCH  21  29
ENDBRANCH  20  22
ENDBRANCH  19  20
ENDBRANCH   1  19
TORSDOF 7
