REMARK  Name = ZINC39676474
REMARK  5 active torsions:
REMARK  status: ('A' for Active; 'I' for Inactive)
REMARK    1  A    between atoms: C_6  and  C_11
REMARK    2  A    between atoms: C_11  and  C_12
REMARK    3  A    between atoms: C_12  and  N_13
REMARK    4  A    between atoms: C_14  and  C_16
REMARK    5  A    between atoms: C_27  and  C_29
REMARK                            x       y       z     vdW  Elec       q    Type
REMARK                         _______ _______ _______ _____ _____    ______ ____
ROOT
ATOM      1  C   UNL     1      -9.355   0.673  -2.447  0.00  0.00    +0.100 C 
ATOM      2  C   UNL     1      -9.910  -0.700  -2.007  0.00  0.00    +0.121 C 
ATOM      3  N   UNL     1     -11.082  -0.929  -2.885  0.00  0.00    -0.296 N 
ATOM      4  C   UNL     1     -10.653  -0.421  -4.210  0.00  0.00    +0.115 C 
ATOM      5  C   UNL     1      -9.844   0.852  -3.894  0.00  0.00    -0.004 C 
ATOM      6  C   UNL     1      -8.655   0.970  -4.843  0.00  0.00    -0.010 C 
ATOM      7  C   UNL     1      -9.166   1.206  -6.267  0.00  0.00    -0.082 C 
ATOM      8  N   UNL     1      -9.971   2.433  -6.303  0.00  0.00    +0.379 N 
ATOM      9  C   UNL     1     -11.162   2.276  -5.460  0.00  0.00    -0.082 C 
ATOM     10  C   UNL     1     -10.735   2.085  -4.002  0.00  0.00    -0.010 C 
ATOM     11  C   UNL     1     -12.269  -1.474  -2.554  0.00  0.00    +0.249 C 
ATOM     12  O   UNL     1     -13.103  -1.682  -3.413  0.00  0.00    -0.270 OA
ATOM     13  H   UNL     1      -9.419   3.206  -5.963  0.00  0.00    -0.086 HD
ATOM     14  H   UNL     1     -10.255   2.619  -7.253  0.00  0.00    -0.086 HD
ENDROOT
BRANCH  11  15
ATOM     15  C   UNL     1     -12.555  -1.820  -1.146  0.00  0.00    +0.073 A 
ATOM     16  C   UNL     1     -11.534  -2.288  -0.317  0.00  0.00    +0.036 A 
ATOM     17  C   UNL     1     -11.809  -2.608   0.997  0.00  0.00    +0.042 A 
ATOM     18  C   UNL     1     -13.094  -2.467   1.494  0.00  0.00    +0.023 A 
ATOM     19  C   UNL     1     -14.111  -2.005   0.680  0.00  0.00    +0.040 A 
ATOM     20  C   UNL     1     -13.849  -1.675  -0.637  0.00  0.00    +0.136 A 
ATOM     21  F   UNL     1     -14.842  -1.217  -1.431  0.00  0.00    -0.205 F 
ATOM     22 CL   UNL     1     -10.540  -3.191   2.029  0.00  0.00    -0.084 Cl
ENDBRANCH  11  15
BRANCH   1  24
ATOM     23  N   UNL     1      -7.179   1.816  -2.165  0.00  0.00    -0.315 N 
ATOM     24  C   UNL     1      -7.848   0.670  -2.398  0.00  0.00    +0.218 C 
ATOM     25  O   UNL     1      -7.239  -0.365  -2.570  0.00  0.00    -0.275 OA
ATOM     26  H   UNL     1      -7.667   2.643  -2.028  0.00  0.00    +0.149 HD
BRANCH  23  27
ATOM     27  C   UNL     1      -5.715   1.812  -2.119  0.00  0.00    +0.109 C 
BRANCH  27  28
ATOM     28  C   UNL     1      -5.210   3.230  -1.841  0.00  0.00    +0.056 C 
BRANCH  28  34
ATOM     29  C   UNL     1      -0.608   3.497  -4.621  0.00  0.00    +0.022 A 
ATOM     30  C   UNL     1      -0.403   3.368  -3.265  0.00  0.00    +0.027 A 
ATOM     31  C   UNL     1      -1.494   3.286  -2.405  0.00  0.00    +0.047 A 
ATOM     32  N   UNL     1      -1.617   3.155  -1.040  0.00  0.00    -0.360 N 
ATOM     33  C   UNL     1      -2.940   3.122  -0.693  0.00  0.00    +0.087 A 
ATOM     34  C   UNL     1      -3.704   3.226  -1.792  0.00  0.00    -0.021 A 
ATOM     35  C   UNL     1      -2.795   3.336  -2.936  0.00  0.00    +0.004 A 
ATOM     36  C   UNL     1      -2.981   3.467  -4.314  0.00  0.00    +0.030 A 
ATOM     37  C   UNL     1      -1.895   3.552  -5.140  0.00  0.00    +0.042 A 
ATOM     38 CL   UNL     1      -2.127   3.715  -6.853  0.00  0.00    -0.084 Cl
ATOM     39  H   UNL     1      -0.876   3.096  -0.416  0.00  0.00    +0.165 HD
ENDBRANCH  28  34
ENDBRANCH  27  28
ENDBRANCH  23  27
ENDBRANCH   1  24
TORSDOF 5
