REMARK  Name = ZINC09732841
REMARK  5 active torsions:
REMARK  status: ('A' for Active; 'I' for Inactive)
REMARK    1  A    between atoms: C_1  and  C_2
REMARK    2  A    between atoms: C_2  and  C_4
REMARK    3  A    between atoms: C_2  and  N_14
REMARK    4  A    between atoms: N_17  and  N_18
REMARK    5  A    between atoms: C_19  and  C_21
REMARK                            x       y       z     vdW  Elec       q    Type
REMARK                         _______ _______ _______ _____ _____    ______ ____
ROOT
ATOM      1  N   UNL     1      -1.372  -0.511   0.012  0.00  0.00    -0.292 N 
ATOM      2  C   UNL     1      -2.029  -0.655   1.181  0.00  0.00    +0.316 C 
ATOM      3  O   UNL     1      -1.480  -0.364   2.226  0.00  0.00    -0.251 OA
ATOM      4  N   UNL     1      -3.293  -1.122   1.190  0.00  0.00    -0.218 N 
ATOM      5  H   UNL     1      -1.810  -0.743  -0.822  0.00  0.00    +0.151 HD
ATOM      6  H   UNL     1      -3.765  -1.225   2.031  0.00  0.00    +0.174 HD
ENDROOT
BRANCH   4   7
ATOM      7  N   UNL     1      -3.925  -1.457  -0.014  0.00  0.00    -0.229 N 
ATOM      8  C   UNL     1      -5.190  -1.923  -0.005  0.00  0.00    +0.260 C 
ATOM      9  O   UNL     1      -5.782  -2.053   1.049  0.00  0.00    -0.269 OA
ATOM     10  H   UNL     1      -3.453  -1.353  -0.855  0.00  0.00    +0.173 HD
BRANCH   8  11
ATOM     11  C   UNL     1      -5.856  -2.277  -1.275  0.00  0.00    +0.038 A 
ATOM     12  C   UNL     1      -5.176  -2.134  -2.486  0.00  0.00    +0.016 A 
ATOM     13  C   UNL     1      -5.803  -2.466  -3.668  0.00  0.00    +0.039 A 
ATOM     14  C   UNL     1      -7.106  -2.940  -3.656  0.00  0.00    +0.123 A 
ATOM     15  C   UNL     1      -7.785  -3.083  -2.456  0.00  0.00    +0.039 A 
ATOM     16  C   UNL     1      -7.166  -2.760  -1.268  0.00  0.00    +0.016 A 
ATOM     17  F   UNL     1      -7.715  -3.263  -4.818  0.00  0.00    -0.205 F 
ENDBRANCH   8  11
ENDBRANCH   4   7
BRANCH   1  19
ATOM     18  C   UNL     1      -0.019   1.526   0.010  0.00  0.00    +0.033 C 
ATOM     19  C   UNL     1       0.002  -0.004   0.002  0.00  0.00    +0.102 C 
BRANCH  19  20
ATOM     20  C   UNL     1       0.707  -0.490  -1.238  0.00  0.00    -0.027 A 
ATOM     21  C   UNL     1       0.040  -0.523  -2.448  0.00  0.00    +0.006 A 
ATOM     22  C   UNL     1       0.691  -0.972  -3.578  0.00  0.00    +0.004 A 
ATOM     23  C   UNL     1       2.014  -1.390  -3.511  0.00  0.00    -0.044 A 
ATOM     24  C   UNL     1       2.680  -1.353  -2.307  0.00  0.00    -0.044 A 
ATOM     25  C   UNL     1       2.023  -0.899  -1.170  0.00  0.00    +0.009 A 
ATOM     26  C   UNL     1       4.119  -1.776  -2.163  0.00  0.00    +0.035 C 
ATOM     27  C   UNL     1       4.551  -2.625  -3.357  0.00  0.00    +0.005 C 
ATOM     28  C   UNL     1       4.183  -1.876  -4.642  0.00  0.00    +0.005 C 
ATOM     29  C   UNL     1       2.662  -1.876  -4.781  0.00  0.00    +0.035 C 
ENDBRANCH  19  20
ENDBRANCH   1  19
TORSDOF 4
