REMARK  Name = ZINC63308269
REMARK  12 active torsions:
REMARK  status: ('A' for Active; 'I' for Inactive)
REMARK    1  A    between atoms: C_1  and  C_2
REMARK    2  A    between atoms: C_2  and  C_3
REMARK    3  A    between atoms: C_3  and  C_4
REMARK    4  A    between atoms: C_4  and  C_5
REMARK    5  A    between atoms: C_5  and  C_6
REMARK    6  A    between atoms: C_6  and  C_7
REMARK    7  A    between atoms: C_7  and  N_9
REMARK    8  A    between atoms: N_11  and  C_12
REMARK    9  A    between atoms: C_12  and  C_13
REMARK   10  A    between atoms: C_13  and  C_14
REMARK   11  A    between atoms: C_26  and  C_31
REMARK   12  A    between atoms: C_28  and  C_30
REMARK                            x       y       z     vdW  Elec       q    Type
REMARK                         _______ _______ _______ _____ _____    ______ ____
ROOT
ATOM      1  N   UNL     1      -4.438  -5.863   0.256  0.00  0.00    -0.147 NA
ATOM      2  C   UNL     1      -5.672  -6.339   0.347  0.00  0.00    +0.196 C 
ATOM      3  N   UNL     1      -6.737  -5.495   0.248  0.00  0.00    -0.357 N 
ATOM      4  N   UNL     1      -5.876  -7.676   0.539  0.00  0.00    -0.297 N 
ATOM      5  C   UNL     1      -4.798  -8.551   0.531  0.00  0.00    +0.231 A 
ATOM      6  N   UNL     1      -3.570  -8.063   0.445  0.00  0.00    -0.217 NA
ATOM      7  C   UNL     1      -2.521  -8.868   0.435  0.00  0.00    +0.044 A 
ATOM      8  C   UNL     1      -2.720 -10.238   0.516  0.00  0.00    +0.046 A 
ATOM      9  C   UNL     1      -4.018 -10.714   0.604  0.00  0.00    +0.044 A 
ATOM     10  N   UNL     1      -5.022  -9.853   0.614  0.00  0.00    -0.217 NA
ATOM     11  C   UNL     1      -4.282 -12.195   0.694  0.00  0.00    +0.066 C 
ATOM     12  C   UNL     1      -1.127  -8.304   0.337  0.00  0.00    +0.066 C 
ATOM     13  H   UNL     1      -6.774  -8.014   0.681  0.00  0.00    +0.171 HD
ATOM     14  H   UNL     1      -6.596  -4.562   0.022  0.00  0.00    +0.162 HD
ENDROOT
BRANCH   1  15
ATOM     15  C   UNL     1      -4.225  -4.549   0.309  0.00  0.00    +0.239 C 
ATOM     16  O   UNL     1      -5.166  -3.784   0.385  0.00  0.00    -0.274 OA
BRANCH  15  17
ATOM     17  C   UNL     1      -2.817  -4.011   0.275  0.00  0.00    +0.098 C 
BRANCH  17  18
ATOM     18  C   UNL     1      -2.853  -2.483   0.348  0.00  0.00    +0.009 C 
BRANCH  18  19
ATOM     19  C   UNL     1      -1.424  -1.938   0.313  0.00  0.00    +0.000 C 
BRANCH  19  20
ATOM     20  C   UNL     1      -1.460  -0.410   0.386  0.00  0.00    -0.000 C 
BRANCH  20  22
ATOM     21  C   UNL     1      -0.067   1.664   0.424  0.00  0.00    +0.004 C 
ATOM     22  C   UNL     1      -0.031   0.136   0.351  0.00  0.00    -0.003 C 
ENDBRANCH  20  22
ENDBRANCH  19  20
ENDBRANCH  18  19
ENDBRANCH  17  18
ENDBRANCH  15  17
ENDBRANCH   1  15
BRANCH   3  23
ATOM     23  C   UNL     1      -8.093  -5.996   0.483  0.00  0.00    +0.120 C 
BRANCH  23  24
ATOM     24  C   UNL     1      -9.104  -4.885   0.192  0.00  0.00    +0.054 C 
BRANCH  24  25
ATOM     25  C   UNL     1     -10.489  -5.360   0.550  0.00  0.00    -0.040 C 
ATOM     26  C   UNL     1     -11.142  -5.157   1.717  0.00  0.00    -0.001 A 
ATOM     27  C   UNL     1     -10.773  -4.460   2.955  0.00  0.00    +0.010 A 
ATOM     28  C   UNL     1     -11.658  -4.425   3.977  0.00  0.00    +0.001 A 
ATOM     29  C   UNL     1     -12.916  -5.036   3.884  0.00  0.00    +0.002 A 
ATOM     30  C   UNL     1     -13.327  -5.694   2.779  0.00  0.00    +0.026 A 
ATOM     31  C   UNL     1     -12.477  -5.794   1.644  0.00  0.00    +0.043 A 
ATOM     32  N   UNL     1     -12.642  -6.368   0.477  0.00  0.00    -0.380 N 
ATOM     33  C   UNL     1     -11.432  -6.156  -0.325  0.00  0.00    +0.144 C 
ATOM     34  H   UNL     1     -13.434  -6.850   0.190  0.00  0.00    +0.160 HD
ENDBRANCH  24  25
ENDBRANCH  23  24
ENDBRANCH   3  23
TORSDOF 9
