REMARK  Name = ZINC39668849
REMARK  4 active torsions:
REMARK  status: ('A' for Active; 'I' for Inactive)
REMARK    1  A    between atoms: C_10  and  C_12
REMARK    2  A    between atoms: C_12  and  N_13
REMARK    3  A    between atoms: C_14  and  C_16
REMARK    4  A    between atoms: C_27  and  C_29
REMARK                            x       y       z     vdW  Elec       q    Type
REMARK                         _______ _______ _______ _____ _____    ______ ____
ROOT
ATOM      1  C   UNL     1       8.473  -1.417  -2.172  0.00  0.00    +0.100 C 
ATOM      2  C   UNL     1       9.025  -1.083  -0.768  0.00  0.00    +0.121 C 
ATOM      3  N   UNL     1      10.451  -0.749  -0.997  0.00  0.00    -0.296 N 
ATOM      4  C   UNL     1      10.450   0.024  -2.262  0.00  0.00    +0.115 C 
ATOM      5  C   UNL     1       9.411  -0.688  -3.149  0.00  0.00    -0.004 C 
ATOM      6  C   UNL     1      10.100  -1.692  -4.068  0.00  0.00    -0.010 C 
ATOM      7  C   UNL     1      10.983  -0.940  -5.067  0.00  0.00    -0.082 C 
ATOM      8  N   UNL     1      10.158  -0.015  -5.853  0.00  0.00    +0.379 N 
ATOM      9  C   UNL     1       9.572   1.004  -4.973  0.00  0.00    -0.082 C 
ATOM     10  C   UNL     1       8.629   0.334  -3.969  0.00  0.00    -0.010 C 
ATOM     11  C   UNL     1      11.509  -1.075  -0.228  0.00  0.00    +0.249 C 
ATOM     12  O   UNL     1      12.613  -0.646  -0.500  0.00  0.00    -0.270 OA
ATOM     13  H   UNL     1      10.731   0.435  -6.551  0.00  0.00    -0.086 HD
ATOM     14  H   UNL     1       9.419  -0.529  -6.308  0.00  0.00    -0.086 HD
ENDROOT
BRANCH  11  15
ATOM     15  C   UNL     1      11.327  -1.952   0.946  0.00  0.00    +0.072 A 
ATOM     16  C   UNL     1      10.155  -1.878   1.702  0.00  0.00    +0.016 A 
ATOM     17  C   UNL     1       9.991  -2.701   2.796  0.00  0.00    +0.001 A 
ATOM     18  C   UNL     1      10.984  -3.600   3.147  0.00  0.00    +0.003 A 
ATOM     19  C   UNL     1      12.147  -3.680   2.405  0.00  0.00    +0.039 A 
ATOM     20  C   UNL     1      12.324  -2.866   1.301  0.00  0.00    +0.135 A 
ATOM     21  F   UNL     1      13.458  -2.949   0.573  0.00  0.00    -0.205 F 
ENDBRANCH  11  15
BRANCH   1  23
ATOM     22  N   UNL     1       6.200  -1.530  -3.141  0.00  0.00    -0.312 N 
ATOM     23  C   UNL     1       7.063  -0.904  -2.317  0.00  0.00    +0.218 C 
ATOM     24  O   UNL     1       6.705   0.072  -1.692  0.00  0.00    -0.275 OA
ATOM     25  H   UNL     1       6.486  -2.310  -3.641  0.00  0.00    +0.149 HD
BRANCH  22  26
ATOM     26  C   UNL     1       4.829  -1.032  -3.282  0.00  0.00    +0.140 C 
BRANCH  26  36
ATOM     27  C   UNL     1       0.059  -0.455  -4.598  0.00  0.00    +0.000 A 
ATOM     28  C   UNL     1       0.671  -0.551  -3.362  0.00  0.00    +0.000 A 
ATOM     29  C   UNL     1       1.966  -1.023  -3.270  0.00  0.00    +0.006 A 
ATOM     30  C   UNL     1       2.656  -1.400  -4.412  0.00  0.00    -0.014 A 
ATOM     31  C   UNL     1       2.046  -1.300  -5.645  0.00  0.00    -0.040 A 
ATOM     32  C   UNL     1       0.746  -0.830  -5.736  0.00  0.00    +0.004 A 
ATOM     33  C   UNL     1       2.768  -1.688  -6.910  0.00  0.00    +0.063 C 
ATOM     34  C   UNL     1       3.985  -2.549  -6.569  0.00  0.00    +0.165 C 
ATOM     35  O   UNL     1       4.728  -1.895  -5.533  0.00  0.00    -0.370 OA
ATOM     36  C   UNL     1       4.064  -1.915  -4.269  0.00  0.00    +0.165 C 
ENDBRANCH  26  36
ENDBRANCH  22  26
ENDBRANCH   1  23
TORSDOF 4
