REMARK  Name = ZINC39608196
REMARK  10 active torsions:
REMARK  status: ('A' for Active; 'I' for Inactive)
REMARK    1  A    between atoms: C_1  and  C_2
REMARK    2  A    between atoms: C_2  and  N_3
REMARK    3  A    between atoms: C_4  and  C_10
REMARK    4  A    between atoms: C_6  and  C_8
REMARK    5  A    between atoms: C_14  and  C_23
REMARK    6  A    between atoms: N_25  and  C_26
REMARK    7  A    between atoms: C_26  and  C_28
REMARK    8  A    between atoms: C_26  and  C_29
REMARK    9  A    between atoms: C_29  and  C_30
REMARK   10  A    between atoms: C_29  and  C_31
REMARK                            x       y       z     vdW  Elec       q    Type
REMARK                         _______ _______ _______ _____ _____    ______ ____
ROOT
ATOM      1  C   UNL     1      -1.436  -0.453  -2.907  0.00  0.00    +0.266 C 
ATOM      2  O   UNL     1      -1.786  -0.775  -4.027  0.00  0.00    -0.268 OA
ATOM      3  N   UNL     1      -2.325   0.094  -2.055  0.00  0.00    -0.295 N 
ATOM      4  C   UNL     1      -2.116   0.454  -0.632  0.00  0.00    +0.121 C 
ATOM      5  C   UNL     1      -2.871   1.790  -0.453  0.00  0.00    +0.100 C 
ATOM      6  C   UNL     1      -3.931   1.795  -1.567  0.00  0.00    -0.004 C 
ATOM      7  C   UNL     1      -3.731   0.477  -2.329  0.00  0.00    +0.115 C 
ATOM      8  C   UNL     1      -3.708   2.978  -2.504  0.00  0.00    -0.010 C 
ATOM      9  C   UNL     1      -4.808   2.994  -3.569  0.00  0.00    -0.082 C 
ATOM     10  N   UNL     1      -6.120   3.099  -2.919  0.00  0.00    +0.379 N 
ATOM     11  C   UNL     1      -6.365   1.911  -2.092  0.00  0.00    -0.082 C 
ATOM     12  C   UNL     1      -5.331   1.850  -0.964  0.00  0.00    -0.010 C 
ATOM     13  H   UNL     1      -6.140   3.923  -2.337  0.00  0.00    -0.086 HD
ATOM     14  H   UNL     1      -6.838   3.171  -3.624  0.00  0.00    -0.086 HD
ENDROOT
BRANCH   1  16
ATOM     15  N   UNL     1       0.955   0.275  -2.459  0.00  0.00    -0.258 N 
ATOM     16  C   UNL     1      -0.043  -0.659  -2.485  0.00  0.00    +0.138 A 
ATOM     17  C   UNL     1       0.522  -1.840  -2.032  0.00  0.00    +0.071 A 
ATOM     18  C   UNL     1       1.857  -1.529  -1.756  0.00  0.00    +0.075 A 
ATOM     19  N   UNL     1       2.041  -0.265  -2.037  0.00  0.00    -0.175 NA
ATOM     20  C   UNL     1       2.901  -2.483  -1.235  0.00  0.00    +0.069 C 
ATOM     21 BR   UNL     1      -0.330  -3.516  -1.829  0.00  0.00    -0.046 Br
BRANCH  15  23
ATOM     22  C   UNL     1       0.998   1.800  -4.371  0.00  0.00    +0.029 C 
ATOM     23  C   UNL     1       0.808   1.677  -2.857  0.00  0.00    +0.141 C 
ENDBRANCH  15  23
ENDBRANCH   1  16
BRANCH   5  24
ATOM     24  C   UNL     1      -3.530   1.843   0.901  0.00  0.00    +0.218 C 
ATOM     25  O   UNL     1      -3.837   0.816   1.467  0.00  0.00    -0.275 OA
ATOM     26  N   UNL     1      -3.776   3.033   1.485  0.00  0.00    -0.312 N 
ATOM     27  H   UNL     1      -3.601   3.856   1.002  0.00  0.00    +0.149 HD
BRANCH  26  28
ATOM     28  C   UNL     1      -4.310   3.084   2.848  0.00  0.00    +0.072 C 
ATOM     29  C   UNL     1      -5.834   2.955   2.804  0.00  0.00    +0.028 C 
BRANCH  28  30
ATOM     30  C   UNL     1      -3.930   4.417   3.495  0.00  0.00    +0.003 C 
ATOM     31  C   UNL     1      -4.618   5.561   2.748  0.00  0.00    +0.009 C 
ATOM     32  C   UNL     1      -4.378   4.420   4.958  0.00  0.00    +0.009 C 
ENDBRANCH  28  30
ENDBRANCH  26  28
ENDBRANCH   5  24
TORSDOF 5
