REMARK  Name = ZINC33514678
REMARK  10 active torsions:
REMARK  status: ('A' for Active; 'I' for Inactive)
REMARK    1  A    between atoms: C_1  and  C_2
REMARK    2  A    between atoms: C_2  and  C_3
REMARK    3  A    between atoms: C_2  and  C_4
REMARK    4  A    between atoms: C_7  and  N_10
REMARK    5  A    between atoms: C_11  and  C_13
REMARK    6  A    between atoms: C_16  and  C_31
REMARK    7  A    between atoms: C_17  and  C_18
REMARK    8  A    between atoms: C_17  and  C_19
REMARK    9  A    between atoms: N_21  and  N_22
REMARK   10  A    between atoms: N_22  and  C_23
REMARK                            x       y       z     vdW  Elec       q    Type
REMARK                         _______ _______ _______ _____ _____    ______ ____
ROOT
ATOM      1  C   UNL     1      -4.644   4.468  -0.058  0.00  0.00    +0.117 C 
ATOM      2  C   UNL     1      -4.514   5.273   1.272  0.00  0.00    +0.026 C 
ATOM      3  C   UNL     1      -3.081   5.855   1.222  0.00  0.00    +0.015 C 
ATOM      4  C   UNL     1      -2.507   5.335  -0.127  0.00  0.00    +0.022 C 
ATOM      5  C   UNL     1      -3.799   5.372  -1.026  0.00  0.00    -0.003 C 
ATOM      6  C   UNL     1      -3.581   4.717  -2.391  0.00  0.00    +0.013 C 
ATOM      7  C   UNL     1      -4.377   6.783  -1.153  0.00  0.00    +0.013 C 
ATOM      8  C   UNL     1      -2.365   3.821   0.074  0.00  0.00    +0.109 C 
ATOM      9  N   UNL     1      -1.247   3.151   0.186  0.00  0.00    -0.183 NA
ATOM     10  C   UNL     1      -3.679   3.287   0.120  0.00  0.00    +0.195 C 
ATOM     11  O   UNL     1      -3.982   2.121   0.271  0.00  0.00    -0.290 OA
ATOM     12  C   UNL     1      -1.270   6.066  -0.652  0.00  0.00    +0.018 C 
ENDROOT
BRANCH   1  14
ATOM     13  N   UNL     1      -6.815   3.335   0.289  0.00  0.00    -0.285 N 
ATOM     14  C   UNL     1      -6.045   4.121  -0.490  0.00  0.00    +0.232 C 
ATOM     15  O   UNL     1      -6.480   4.549  -1.538  0.00  0.00    -0.274 OA
ATOM     16  H   UNL     1      -6.393   2.876   1.195  0.00  0.00    +0.155 HD
BRANCH  13  20
ATOM     17  C   UNL     1     -10.793   2.643  -0.738  0.00  0.00    -0.045 A 
ATOM     18  C   UNL     1     -10.062   1.654  -0.106  0.00  0.00    +0.006 A 
ATOM     19  C   UNL     1      -8.742   1.880   0.236  0.00  0.00    +0.023 A 
ATOM     20  C   UNL     1      -8.151   3.103  -0.056  0.00  0.00    +0.033 A 
ATOM     21  C   UNL     1      -8.890   4.096  -0.685  0.00  0.00    +0.023 A 
ATOM     22  C   UNL     1     -10.207   3.861  -1.030  0.00  0.00    +0.006 A 
BRANCH  17  24
ATOM     23  C   UNL     1     -13.126   3.413  -0.402  0.00  0.00    +0.012 C 
ATOM     24  C   UNL     1     -12.232   2.393  -1.109  0.00  0.00    +0.013 C 
ATOM     25  C   UNL     1     -12.399   2.531  -2.623  0.00  0.00    +0.012 C 
ENDBRANCH  17  24
ENDBRANCH  13  20
ENDBRANCH   1  14
BRANCH   9  26
ATOM     26  N   UNL     1      -1.276   1.873   0.357  0.00  0.00    -0.237 N 
ATOM     27  H   UNL     1      -2.240   1.346   0.409  0.00  0.00    +0.174 HD
BRANCH  26  28
ATOM     28  C   UNL     1      -0.083   1.158   0.477  0.00  0.00    +0.048 A 
ATOM     29  C   UNL     1       1.137   1.821   0.407  0.00  0.00    +0.025 A 
ATOM     30  C   UNL     1       2.315   1.110   0.521  0.00  0.00    +0.002 A 
ATOM     31  C   UNL     1       2.282  -0.260   0.704  0.00  0.00    +0.000 A 
ATOM     32  C   UNL     1       1.071  -0.923   0.774  0.00  0.00    +0.002 A 
ATOM     33  C   UNL     1      -0.112  -0.219   0.662  0.00  0.00    +0.025 A 
ENDBRANCH  26  28
ENDBRANCH   9  26
TORSDOF 5
