REMARK  Name = ZINC40043775
REMARK  10 active torsions:
REMARK  status: ('A' for Active; 'I' for Inactive)
REMARK    1  A    between atoms: C_1  and  C_2
REMARK    2  A    between atoms: C_2  and  C_3
REMARK    3  A    between atoms: N_16  and  C_30
REMARK    4  A    between atoms: C_17  and  C_19
REMARK    5  A    between atoms: C_22  and  O_27
REMARK    6  A    between atoms: C_23  and  O_25
REMARK    7  A    between atoms: O_25  and  C_26
REMARK    8  A    between atoms: O_27  and  C_28
REMARK    9  A    between atoms: C_28  and  C_29
REMARK   10  A    between atoms: C_30  and  C_31
REMARK                            x       y       z     vdW  Elec       q    Type
REMARK                         _______ _______ _______ _____ _____    ______ ____
ROOT
ATOM      1  C   UNL     1       0.731  -0.503   1.223  0.00  0.00    -0.047 A 
ATOM      2  C   UNL     1       2.103  -0.710   1.173  0.00  0.00    +0.007 A 
ATOM      3  C   UNL     1       2.787  -1.168   2.276  0.00  0.00    +0.047 A 
ATOM      4  C   UNL     1       2.104  -1.430   3.464  0.00  0.00    +0.139 A 
ATOM      5  C   UNL     1       0.717  -1.212   3.504  0.00  0.00    +0.065 A 
ATOM      6  C   UNL     1       0.040  -0.746   2.377  0.00  0.00    +0.019 A 
ATOM      7  C   UNL     1      -0.017  -1.473   4.768  0.00  0.00    +0.199 A 
ATOM      8  O   UNL     1      -1.232  -1.474   4.846  0.00  0.00    -0.287 OA
ATOM      9  C   UNL     1       0.862  -1.732   5.914  0.00  0.00    +0.072 A 
ATOM     10  C   UNL     1       2.204  -1.919   5.744  0.00  0.00    +0.199 A 
ATOM     11  O   UNL     1       2.795  -1.887   4.533  0.00  0.00    -0.450 OA
ATOM     12  C   UNL     1       2.811  -2.146   7.067  0.00  0.00    +0.283 C 
ATOM     13  O   UNL     1       3.993  -2.343   7.266  0.00  0.00    -0.267 OA
ATOM     14  N   UNL     1       1.862  -2.104   8.025  0.00  0.00    -0.279 N 
ATOM     15  C   UNL     1       0.568  -1.843   7.374  0.00  0.00    +0.145 C 
ENDROOT
BRANCH  15  16
ATOM     16  C   UNL     1      -0.381  -2.985   7.628  0.00  0.00    -0.019 A 
ATOM     17  C   UNL     1       0.091  -4.284   7.644  0.00  0.00    +0.009 A 
ATOM     18  C   UNL     1      -0.776  -5.336   7.877  0.00  0.00    +0.050 A 
ATOM     19  C   UNL     1      -2.122  -5.089   8.094  0.00  0.00    +0.162 A 
ATOM     20  C   UNL     1      -2.597  -3.781   8.078  0.00  0.00    +0.162 A 
ATOM     21  C   UNL     1      -1.722  -2.732   7.849  0.00  0.00    +0.055 A 
BRANCH  20  22
ATOM     22  O   UNL     1      -3.918  -3.534   8.290  0.00  0.00    -0.491 OA
ATOM     23  C   UNL     1      -4.335  -2.167   8.259  0.00  0.00    +0.277 C 
ENDBRANCH  20  22
BRANCH  19  24
ATOM     24  O   UNL     1      -2.976  -6.122   8.322  0.00  0.00    -0.489 OA
BRANCH  24  25
ATOM     25  C   UNL     1      -2.417  -7.437   8.325  0.00  0.00    +0.226 C 
ATOM     26  C   UNL     1      -3.522  -8.460   8.596  0.00  0.00    +0.048 C 
ENDBRANCH  24  25
ENDBRANCH  19  24
ENDBRANCH  15  16
BRANCH   1  28
ATOM     27  C   UNL     1      -0.019   1.526   0.010  0.00  0.00    +0.009 C 
ATOM     28  C   UNL     1       0.002  -0.004   0.002  0.00  0.00    +0.032 C 
ENDBRANCH   1  28
BRANCH  14  29
ATOM     29  C   UNL     1       2.081  -2.286   9.462  0.00  0.00    +0.144 C 
BRANCH  29  30
ATOM     30  C   UNL     1       2.365  -0.951  10.100  0.00  0.00    -0.026 A 
ATOM     31  C   UNL     1       3.666  -0.491  10.189  0.00  0.00    +0.009 A 
ATOM     32  C   UNL     1       3.931   0.733  10.773  0.00  0.00    +0.050 A 
ATOM     33  C   UNL     1       2.893   1.503  11.272  0.00  0.00    +0.166 A 
ATOM     34  C   UNL     1       1.583   1.040  11.183  0.00  0.00    +0.167 A 
ATOM     35  C   UNL     1       1.324  -0.185  10.591  0.00  0.00    +0.054 A 
ATOM     36  O   UNL     1       0.752   1.970  11.739  0.00  0.00    -0.453 OA
ATOM     37  C   UNL     1       1.603   2.817  12.534  0.00  0.00    +0.466 C 
ATOM     38  O   UNL     1       2.884   2.723  11.884  0.00  0.00    -0.453 OA
ENDBRANCH  29  30
ENDBRANCH  14  29
TORSDOF 7
