REMARK  Name = ZINC09410837
REMARK  5 active torsions:
REMARK  status: ('A' for Active; 'I' for Inactive)
REMARK    1  A    between atoms: C_4  and  C_7
REMARK    2  A    between atoms: C_7  and  C_8
REMARK    3  A    between atoms: C_8  and  C_10
REMARK    4  A    between atoms: C_8  and  N_26
REMARK    5  A    between atoms: C_27  and  C_29
REMARK                            x       y       z     vdW  Elec       q    Type
REMARK                         _______ _______ _______ _____ _____    ______ ____
ROOT
ATOM      1  C   UNL     1      -4.299   0.049   1.467  0.00  0.00    +0.236 C 
ATOM      2  O   UNL     1      -4.386  -1.152   1.614  0.00  0.00    -0.274 OA
ATOM      3  N   UNL     1      -5.412   0.791   1.308  0.00  0.00    -0.300 N 
ATOM      4  C   UNL     1      -5.323   2.247   1.135  0.00  0.00    +0.107 C 
ATOM      5  C   UNL     1      -6.216   2.927   2.171  0.00  0.00    +0.013 C 
ATOM      6  C   UNL     1      -7.634   2.365   2.067  0.00  0.00    -0.020 C 
ATOM      7  C   UNL     1      -7.618   0.862   2.350  0.00  0.00    +0.013 C 
ATOM      8  C   UNL     1      -6.739   0.159   1.310  0.00  0.00    +0.107 C 
ATOM      9  C   UNL     1      -8.529   3.059   3.062  0.00  0.00    +0.051 A 
ATOM     10  C   UNL     1      -9.413   4.023   2.715  0.00  0.00    +0.035 A 
ATOM     11  N   UNL     1     -10.042   4.418   3.853  0.00  0.00    -0.348 N 
ATOM     12  H   UNL     1     -10.753   5.117   3.927  0.00  0.00    +0.166 HD
ATOM     13  C   UNL     1      -9.523   3.685   4.866  0.00  0.00    +0.196 A 
ATOM     14  N   UNL     1      -8.618   2.875   4.380  0.00  0.00    -0.242 NA
ATOM     15  C   UNL     1      -9.600   4.510   1.301  0.00  0.00    +0.036 C 
ATOM     16  C   UNL     1      -8.394   4.038   0.476  0.00  0.00    -0.075 C 
ATOM     17  N   UNL     1      -8.165   2.596   0.706  0.00  0.00    +0.387 N 
ATOM     18  H   UNL     1      -9.053   2.092   0.599  0.00  0.00    -0.085 HD
ATOM     19  H   UNL     1      -7.488   2.248   0.016  0.00  0.00    -0.085 HD
ENDROOT
BRANCH   1  20
ATOM     20  C   UNL     1      -2.945   0.711   1.462  0.00  0.00    +0.164 C 
BRANCH  20  21
ATOM     21  N   UNL     1      -1.968  -0.170   2.108  0.00  0.00    -0.299 N 
ATOM     22  C   UNL     1      -1.732  -1.398   1.605  0.00  0.00    +0.251 C 
ATOM     23  O   UNL     1      -2.330  -1.775   0.614  0.00  0.00    -0.270 OA
ATOM     24  H   UNL     1      -1.492   0.131   2.898  0.00  0.00    +0.150 HD
BRANCH  22  25
ATOM     25  C   UNL     1      -0.755  -2.279   2.251  0.00  0.00    +0.074 A 
ATOM     26  C   UNL     1      -0.369  -3.563   1.898  0.00  0.00    +0.021 A 
ATOM     27  C   UNL     1       0.579  -4.169   2.685  0.00  0.00    +0.008 A 
ATOM     28  C   UNL     1       1.085  -3.496   3.752  0.00  0.00    +0.046 A 
ATOM     29  S   UNL     1       0.253  -1.976   3.691  0.00  0.00    -0.092 S 
ENDBRANCH  22  25
ENDBRANCH  20  21
BRANCH  20  30
ATOM     30  C   UNL     1      -2.514   0.980   0.019  0.00  0.00    +0.067 C 
BRANCH  30  34
ATOM     31  C   UNL     1       1.156   3.165   0.008  0.00  0.00    +0.000 A 
ATOM     32  C   UNL     1       1.175   1.783   0.000  0.00  0.00    +0.000 A 
ATOM     33  C   UNL     1      -0.013   1.076   0.008  0.00  0.00    +0.004 A 
ATOM     34  C   UNL     1      -1.219   1.751   0.017  0.00  0.00    -0.045 A 
ATOM     35  C   UNL     1      -1.238   3.133   0.030  0.00  0.00    +0.004 A 
ATOM     36  C   UNL     1      -0.050   3.840   0.022  0.00  0.00    +0.000 A 
ENDBRANCH  30  34
ENDBRANCH  20  30
ENDBRANCH   1  20
TORSDOF 5
