REMARK  Name = ZINC33682591
REMARK  12 active torsions:
REMARK  status: ('A' for Active; 'I' for Inactive)
REMARK    1  A    between atoms: C_1  and  C_2
REMARK    2  A    between atoms: C_2  and  O_3
REMARK    3  A    between atoms: O_3  and  C_4
REMARK    4  A    between atoms: C_4  and  C_6
REMARK    5  A    between atoms: C_7  and  C_23
REMARK    6  A    between atoms: C_9  and  N_22
REMARK    7  A    between atoms: C_10  and  C_20
REMARK    8  A    between atoms: C_11  and  C_13
REMARK    9  A    between atoms: C_23  and  S_24
REMARK   10  A    between atoms: S_24  and  C_25
REMARK   11  A    between atoms: N_34  and  C_39
REMARK   12  A    between atoms: N_37  and  C_38
REMARK                            x       y       z     vdW  Elec       q    Type
REMARK                         _______ _______ _______ _____ _____    ______ ____
ROOT
ATOM      1  C   UNL     1       4.924   6.220   1.760  0.00  0.00    +0.088 C 
ATOM      2  C   UNL     1       3.734   6.193   1.147  0.00  0.00    +0.128 C 
ATOM      3  O   UNL     1       3.249   7.249   0.477  0.00  0.00    -0.444 OA
ATOM      4  C   UNL     1       4.084   8.227   0.090  0.00  0.00    +0.198 C 
ATOM      5  C   UNL     1       5.310   8.381   0.646  0.00  0.00    +0.098 C 
ATOM      6  C   UNL     1       5.784   7.454   1.732  0.00  0.00    +0.107 C 
ENDROOT
BRANCH   6   7
ATOM      7  C   UNL     1       5.698   8.156   3.063  0.00  0.00    +0.001 A 
ATOM      8  C   UNL     1       4.477   8.610   3.527  0.00  0.00    +0.007 A 
ATOM      9  C   UNL     1       4.397   9.252   4.748  0.00  0.00    +0.000 A 
ATOM     10  C   UNL     1       5.538   9.442   5.507  0.00  0.00    +0.003 A 
ATOM     11  C   UNL     1       6.759   8.989   5.045  0.00  0.00    +0.038 A 
ATOM     12  C   UNL     1       6.839   8.341   3.824  0.00  0.00    +0.127 A 
ATOM     13  F   UNL     1       8.032   7.893   3.374  0.00  0.00    -0.205 F 
ENDBRANCH   6   7
BRANCH   4  14
ATOM     14  N   UNL     1       3.686   9.091  -0.899  0.00  0.00    -0.328 N 
ATOM     15  H   UNL     1       4.358   9.897  -1.229  0.00  0.00    +0.145 HD
ATOM     16  H   UNL     1       2.695   8.976  -1.363  0.00  0.00    +0.145 HD
ENDBRANCH   4  14
BRANCH   1  17
ATOM     17  C   UNL     1       5.380   5.068   2.446  0.00  0.00    +0.339 C 
ATOM     18  O   UNL     1       6.197   4.333   1.924  0.00  0.00    -0.245 OA
BRANCH  17  19
ATOM     19  O   UNL     1       4.908   4.786   3.678  0.00  0.00    -0.462 OA
BRANCH  19  21
ATOM     20  C   UNL     1       4.767   3.454   5.690  0.00  0.00    +0.048 C 
ATOM     21  C   UNL     1       5.412   3.608   4.311  0.00  0.00    +0.229 C 
ENDBRANCH  19  21
ENDBRANCH  17  19
ENDBRANCH   1  17
BRANCH   5  22
ATOM     22  C   UNL     1       6.163   9.439   0.195  0.00  0.00    +0.101 C 
ATOM     23  N   UNL     1       6.841  10.278  -0.163  0.00  0.00    -0.191 NA
ENDBRANCH   5  22
BRANCH   2  24
ATOM     24  C   UNL     1       2.914   4.930   1.206  0.00  0.00    +0.152 C 
BRANCH  24  25
ATOM     25  S   UNL     1       1.554   5.148   2.380  0.00  0.00    -0.083 S 
BRANCH  25  26
ATOM     26  C   UNL     1       0.783   3.568   2.252  0.00  0.00    +0.152 C 
ATOM     27  N   UNL     1       1.222   2.635   1.472  0.00  0.00    -0.238 NA
ATOM     28  C   UNL     1       0.375   1.440   1.582  0.00  0.00    +0.226 C 
ATOM     29  C   UNL     1      -0.701   1.844   2.624  0.00  0.00    +0.202 C 
ATOM     30  N   UNL     1      -0.329   3.225   2.970  0.00  0.00    -0.310 N 
ATOM     31  C   UNL     1      -2.126   1.896   2.113  0.00  0.00    +0.247 C 
ATOM     32  O   UNL     1      -3.034   2.207   2.853  0.00  0.00    -0.273 OA
ATOM     33  N   UNL     1      -2.369   1.592   0.826  0.00  0.00    -0.227 N 
ATOM     34  C   UNL     1      -1.425   1.245  -0.051  0.00  0.00    +0.312 C 
ATOM     35  O   UNL     1      -1.778   0.996  -1.187  0.00  0.00    -0.252 OA
ATOM     36  N   UNL     1      -0.118   1.146   0.228  0.00  0.00    -0.264 N 
ATOM     37  C   UNL     1       0.824   0.749  -0.822  0.00  0.00    +0.136 C 
ATOM     38  C   UNL     1      -3.755   1.651   0.356  0.00  0.00    +0.143 C 
ATOM     39  H   UNL     1      -0.927   3.788   3.701  0.00  0.00    +0.149 HD
ENDBRANCH  25  26
ENDBRANCH  24  25
ENDBRANCH   2  24
TORSDOF 9
