REMARK  Name = ZINC21659018
REMARK  8 active torsions:
REMARK  status: ('A' for Active; 'I' for Inactive)
REMARK    1  A    between atoms: C_1  and  C_2
REMARK    2  A    between atoms: C_5  and  C_8
REMARK    3  A    between atoms: C_20  and  C_22
REMARK    4  A    between atoms: C_25  and  O_30
REMARK    5  A    between atoms: C_26  and  O_28
REMARK    6  A    between atoms: O_28  and  C_29
REMARK    7  A    between atoms: N_31  and  C_38
REMARK    8  A    between atoms: N_34  and  C_37
REMARK                            x       y       z     vdW  Elec       q    Type
REMARK                         _______ _______ _______ _____ _____    ______ ____
ROOT
ATOM      1  C   UNL     1      -0.010   0.507  -0.181  0.00  0.00    +0.069 A 
ATOM      2  C   UNL     1       0.357  -0.782  -0.477  0.00  0.00    +0.089 A 
ATOM      3  C   UNL     1       1.830  -0.854  -0.301  0.00  0.00    +0.082 A 
ATOM      4  C   UNL     1       2.225   0.354   0.073  0.00  0.00    +0.073 A 
ATOM      5  N   UNL     1       1.121   1.194   0.133  0.00  0.00    -0.306 N 
ATOM      6  C   UNL     1       1.256   2.544   0.487  0.00  0.00    +0.068 A 
ATOM      7  C   UNL     1       0.157   3.326   0.789  0.00  0.00    +0.028 A 
ATOM      8  C   UNL     1       0.336   4.650   1.149  0.00  0.00    +0.002 A 
ATOM      9  C   UNL     1       1.608   5.189   1.209  0.00  0.00    +0.002 A 
ATOM     10  C   UNL     1       2.711   4.413   0.903  0.00  0.00    +0.025 A 
ATOM     11  C   UNL     1       2.543   3.088   0.534  0.00  0.00    +0.052 A 
ATOM     12  N   UNL     1       3.649   2.299   0.197  0.00  0.00    -0.330 N 
ATOM     13  C   UNL     1       3.614   0.845   0.421  0.00  0.00    +0.150 C 
ATOM     14  N   UNL     1       2.481  -2.073  -0.540  0.00  0.00    -0.294 N 
ATOM     15  C   UNL     1       1.715  -3.120  -0.920  0.00  0.00    +0.332 A 
ATOM     16  O   UNL     1       2.279  -4.176  -1.129  0.00  0.00    -0.246 OA
ATOM     17  N   UNL     1       0.389  -3.092  -1.086  0.00  0.00    -0.263 N 
ATOM     18  C   UNL     1      -0.373  -1.985  -0.890  0.00  0.00    +0.266 A 
ATOM     19  O   UNL     1      -1.580  -1.990  -1.048  0.00  0.00    -0.267 OA
ATOM     20  C   UNL     1      -0.281  -4.326  -1.502  0.00  0.00    +0.157 C 
ATOM     21  C   UNL     1       3.931  -2.207  -0.384  0.00  0.00    +0.154 C 
ATOM     22  H   UNL     1       4.545   2.767  -0.236  0.00  0.00    +0.147 HD
ENDROOT
BRANCH   1  27
ATOM     23  C   UNL     1      -5.357   2.626  -0.277  0.00  0.00    +0.044 C 
ATOM     24  C   UNL     1      -3.956   2.071  -0.252  0.00  0.00    -0.050 A 
ATOM     25  C   UNL     1      -2.973   2.646  -1.038  0.00  0.00    +0.004 A 
ATOM     26  C   UNL     1      -1.689   2.143  -1.020  0.00  0.00    +0.010 A 
ATOM     27  C   UNL     1      -1.381   1.050  -0.206  0.00  0.00    -0.000 A 
ATOM     28  C   UNL     1      -2.380   0.471   0.581  0.00  0.00    +0.010 A 
ATOM     29  C   UNL     1      -3.659   0.988   0.556  0.00  0.00    +0.004 A 
ENDBRANCH   1  27
BRANCH  13  30
ATOM     30  C   UNL     1       3.914   0.545   1.867  0.00  0.00    -0.018 A 
ATOM     31  C   UNL     1       4.857  -0.412   2.191  0.00  0.00    +0.009 A 
ATOM     32  C   UNL     1       5.136  -0.691   3.516  0.00  0.00    +0.049 A 
ATOM     33  C   UNL     1       4.468  -0.011   4.523  0.00  0.00    +0.158 A 
ATOM     34  C   UNL     1       3.518   0.952   4.196  0.00  0.00    +0.162 A 
ATOM     35  C   UNL     1       3.248   1.231   2.866  0.00  0.00    +0.055 A 
BRANCH  34  36
ATOM     36  O   UNL     1       2.860   1.621   5.180  0.00  0.00    -0.491 OA
ATOM     37  C   UNL     1       1.899   2.596   4.771  0.00  0.00    +0.277 C 
ENDBRANCH  34  36
BRANCH  33  38
ATOM     38  O   UNL     1       4.741  -0.285   5.827  0.00  0.00    -0.503 OA
ATOM     39  H   UNL     1       4.210   0.255   6.624  0.00  0.00    +0.292 HD
ENDBRANCH  33  38
ENDBRANCH  13  30
TORSDOF 4
