REMARK  Name = ZINC64604313
REMARK  9 active torsions:
REMARK  status: ('A' for Active; 'I' for Inactive)
REMARK    1  A    between atoms: C_1  and  O_2
REMARK    2  A    between atoms: O_2  and  C_3
REMARK    3  A    between atoms: C_6  and  N_9
REMARK    4  A    between atoms: C_10  and  C_12
REMARK    5  A    between atoms: C_12  and  C_13
REMARK    6  A    between atoms: C_13  and  C_14
REMARK    7  A    between atoms: C_16  and  C_19
REMARK    8  A    between atoms: C_19  and  S_20
REMARK    9  A    between atoms: S_20  and  C_21
REMARK                            x       y       z     vdW  Elec       q    Type
REMARK                         _______ _______ _______ _____ _____    ______ ____
ROOT
ATOM      1  C   UNL     1      -7.395  -6.822  -0.381  0.00  0.00    +0.228 A 
ATOM      2  N   UNL     1      -8.028  -7.099  -1.486  0.00  0.00    -0.195 NA
ATOM      3  C   UNL     1      -9.182  -7.718  -1.212  0.00  0.00    +0.182 A 
ATOM      4  N   UNL     1      -9.298  -7.841   0.079  0.00  0.00    -0.060 NA
ATOM      5  O   UNL     1      -8.132  -7.265   0.646  0.00  0.00    -0.338 OA
ENDROOT
BRANCH   1   6
ATOM      6  C   UNL     1      -6.061  -6.128  -0.276  0.00  0.00    +0.108 C 
BRANCH   6   7
ATOM      7  C   UNL     1      -6.279  -4.617  -0.172  0.00  0.00    +0.105 C 
BRANCH   7   9
ATOM      8  N   UNL     1      -4.890  -2.581   0.035  0.00  0.00    -0.285 N 
ATOM      9  C   UNL     1      -4.945  -3.924  -0.068  0.00  0.00    +0.218 C 
ATOM     10  O   UNL     1      -3.921  -4.574  -0.076  0.00  0.00    -0.275 OA
ATOM     11  H   UNL     1      -5.708  -2.067   0.119  0.00  0.00    +0.155 HD
BRANCH   8  15
ATOM     12  C   UNL     1      -1.202  -0.636  -0.009  0.00  0.00    +0.120 A 
ATOM     13  C   UNL     1      -1.385  -1.793  -0.752  0.00  0.00    +0.047 A 
ATOM     14  C   UNL     1      -2.606  -2.437  -0.738  0.00  0.00    +0.027 A 
ATOM     15  C   UNL     1      -3.651  -1.928   0.021  0.00  0.00    +0.034 A 
ATOM     16  C   UNL     1      -3.467  -0.770   0.765  0.00  0.00    +0.027 A 
ATOM     17  C   UNL     1      -2.244  -0.129   0.754  0.00  0.00    +0.047 A 
BRANCH  12  19
ATOM     18  C   UNL     1       1.029  -0.579  -0.831  0.00  0.00    +0.277 C 
ATOM     19  O   UNL     1       0.001  -0.002  -0.023  0.00  0.00    -0.495 OA
ENDBRANCH  12  19
ENDBRANCH   8  15
ENDBRANCH   7   9
ENDBRANCH   6   7
ENDBRANCH   1   6
BRANCH   3  20
ATOM     20  C   UNL     1     -10.185  -8.193  -2.232  0.00  0.00    +0.152 C 
BRANCH  20  21
ATOM     21  S   UNL     1      -9.795  -9.897  -2.716  0.00  0.00    -0.107 S 
BRANCH  21  22
ATOM     22  C   UNL     1     -11.077 -10.313  -3.929  0.00  0.00    +0.236 C 
ATOM     23  N   UNL     1     -11.043  -9.359  -5.045  0.00  0.00    -0.355 N 
ATOM     24  C   UNL     1     -12.198  -8.760  -5.082  0.00  0.00    +0.061 A 
ATOM     25  C   UNL     1     -12.757  -7.722  -5.960  0.00  0.00    +0.029 A 
ATOM     26  C   UNL     1     -14.014  -7.283  -5.755  0.00  0.00    +0.022 A 
ATOM     27  C   UNL     1     -14.832  -7.780  -4.722  0.00  0.00    +0.043 A 
ATOM     28  C   UNL     1     -14.416  -8.733  -3.861  0.00  0.00    +0.047 A 
ATOM     29  C   UNL     1     -13.062  -9.286  -3.990  0.00  0.00    +0.062 A 
ATOM     30  N   UNL     1     -12.407 -10.191  -3.319  0.00  0.00    -0.355 N 
ATOM     31 CL   UNL     1     -16.437  -7.142  -4.549  0.00  0.00    -0.083 Cl
ATOM     32  H   UNL     1     -10.297  -9.204  -5.645  0.00  0.00    +0.162 HD
ATOM     33  H   UNL     1     -12.738 -10.693  -2.558  0.00  0.00    +0.162 HD
ENDBRANCH  21  22
ENDBRANCH  20  21
ENDBRANCH   3  20
TORSDOF 8
