REMARK  Name = ZINC18068388
REMARK  6 active torsions:
REMARK  status: ('A' for Active; 'I' for Inactive)
REMARK    1  A    between atoms: C_4  and  C_7
REMARK    2  A    between atoms: C_7  and  N_8
REMARK    3  A    between atoms: C_18  and  N_19
REMARK    4  A    between atoms: N_19  and  C_20
REMARK    5  A    between atoms: C_23  and  S_26
REMARK    6  A    between atoms: S_26  and  N_29
REMARK                            x       y       z     vdW  Elec       q    Type
REMARK                         _______ _______ _______ _____ _____    ______ ____
ROOT
ATOM      1  N   UNL     1       4.197  -0.937   1.360  0.00  0.00    -0.230 N 
ATOM      2  C   UNL     1       5.030  -0.062   1.948  0.00  0.00    +0.254 C 
ATOM      3  O   UNL     1       5.368   0.939   1.346  0.00  0.00    -0.270 OA
ATOM      4  C   UNL     1       5.540  -0.295   3.305  0.00  0.00    +0.045 A 
ATOM      5  C   UNL     1       6.404   0.610   3.922  0.00  0.00    +0.013 A 
ATOM      6  C   UNL     1       6.860   0.356   5.198  0.00  0.00    +0.001 A 
ATOM      7  C   UNL     1       6.469  -0.790   5.876  0.00  0.00    +0.001 A 
ATOM      8  C   UNL     1       5.614  -1.697   5.284  0.00  0.00    +0.009 A 
ATOM      9  C   UNL     1       5.144  -1.458   3.998  0.00  0.00    +0.000 A 
ATOM     10  C   UNL     1       4.227  -2.397   3.318  0.00  0.00    +0.059 C 
ATOM     11  C   UNL     1       3.804  -3.550   3.941  0.00  0.00    +0.085 C 
ATOM     12  C   UNL     1       3.776  -2.061   1.963  0.00  0.00    +0.255 C 
ATOM     13  O   UNL     1       3.017  -2.810   1.377  0.00  0.00    -0.269 OA
ENDROOT
BRANCH  11  14
ATOM     14  N   UNL     1       3.735  -3.605   5.298  0.00  0.00    -0.320 N 
ATOM     15  H   UNL     1       3.886  -2.804   5.824  0.00  0.00    +0.152 HD
BRANCH  14  16
ATOM     16  C   UNL     1       3.447  -4.815   5.935  0.00  0.00    +0.031 A 
ATOM     17  C   UNL     1       3.236  -5.964   5.183  0.00  0.00    +0.025 A 
ATOM     18  C   UNL     1       2.953  -7.159   5.816  0.00  0.00    +0.030 A 
ATOM     19  C   UNL     1       2.878  -7.211   7.196  0.00  0.00    +0.105 A 
ATOM     20  C   UNL     1       3.087  -6.069   7.947  0.00  0.00    +0.030 A 
ATOM     21  C   UNL     1       3.377  -4.872   7.321  0.00  0.00    +0.025 A 
BRANCH  19  22
ATOM     22  S   UNL     1       2.514  -8.737   7.999  0.00  0.00    +0.056 S 
ATOM     23  O   UNL     1       1.963  -8.407   9.267  0.00  0.00    -0.153 OA
ATOM     24  O   UNL     1       1.822  -9.539   7.053  0.00  0.00    -0.153 OA
BRANCH  22  25
ATOM     25  N   UNL     1       3.959  -9.491   8.294  0.00  0.00    -0.204 NA
ATOM     26  H   UNL     1       4.052 -10.078   9.060  0.00  0.00    +0.144 HD
ATOM     27  H   UNL     1       4.712  -9.346   7.699  0.00  0.00    +0.144 HD
ENDBRANCH  22  25
ENDBRANCH  19  22
ENDBRANCH  14  16
ENDBRANCH  11  14
BRANCH   1  28
ATOM     28  C   UNL     1       3.722  -0.649   0.005  0.00  0.00    +0.152 C 
BRANCH  28  32
ATOM     29  C   UNL     1       0.113   1.628   0.212  0.00  0.00    +0.000 A 
ATOM     30  C   UNL     1       1.336   2.272   0.171  0.00  0.00    +0.000 A 
ATOM     31  C   UNL     1       2.503   1.536   0.104  0.00  0.00    +0.005 A 
ATOM     32  C   UNL     1       2.449   0.154   0.079  0.00  0.00    -0.030 A 
ATOM     33  C   UNL     1       1.227  -0.490   0.120  0.00  0.00    +0.005 A 
ATOM     34  C   UNL     1       0.059   0.247   0.186  0.00  0.00    +0.000 A 
ENDBRANCH  28  32
ENDBRANCH   1  28
TORSDOF 6
