REMARK  Name = ZINC09215624
REMARK  14 active torsions:
REMARK  status: ('A' for Active; 'I' for Inactive)
REMARK    1  A    between atoms: C_1  and  C_2
REMARK    2  A    between atoms: C_3  and  O_23
REMARK    3  A    between atoms: C_9  and  O_22
REMARK    4  A    between atoms: C_10  and  C_13
REMARK    5  A    between atoms: C_13  and  N_61
REMARK    6  A    between atoms: C_14  and  C_15
REMARK    7  A    between atoms: C_14  and  N_61
REMARK    8  A    between atoms: C_15  and  C_16
REMARK    9  A    between atoms: C_15  and  C_17
REMARK   10  A    between atoms: C_18  and  C_19
REMARK   11  A    between atoms: C_18  and  N_61
REMARK   12  A    between atoms: C_19  and  C_20
REMARK   13  A    between atoms: C_19  and  C_21
REMARK   14  A    between atoms: O_23  and  C_24
REMARK                            x       y       z     vdW  Elec       q    Type
REMARK                         _______ _______ _______ _____ _____    ______ ____
ROOT
ATOM      1  C   UNL     1      -4.986   1.113  -0.108  0.00  0.00    +0.090 C 
ATOM      2  C   UNL     1      -3.827   2.063   0.053  0.00  0.00    +0.148 A 
ATOM      3  C   UNL     1      -4.086   3.377   0.210  0.00  0.00    +0.213 A 
ATOM      4  C   UNL     1      -3.007   4.291   0.376  0.00  0.00    +0.235 A 
ATOM      5  O   UNL     1      -3.202   5.486   0.521  0.00  0.00    -0.283 OA
ATOM      6  C   UNL     1      -1.643   3.735   0.347  0.00  0.00    +0.068 A 
ATOM      7  C   UNL     1      -0.521   4.553   0.484  0.00  0.00    +0.019 A 
ATOM      8  C   UNL     1       0.728   4.001   0.452  0.00  0.00    +0.046 A 
ATOM      9  C   UNL     1       0.887   2.627   0.283  0.00  0.00    +0.122 A 
ATOM     10  C   UNL     1      -0.216   1.802   0.146  0.00  0.00    +0.020 A 
ATOM     11  C   UNL     1      -1.492   2.348   0.171  0.00  0.00    +0.144 A 
ATOM     12  O   UNL     1      -2.583   1.568   0.034  0.00  0.00    -0.456 OA
ENDROOT
BRANCH   9  13
ATOM     13  O   UNL     1       2.135   2.093   0.254  0.00  0.00    -0.506 OA
ATOM     14  H   UNL     1       2.522   2.048  -0.631  0.00  0.00    +0.292 HD
ENDBRANCH   9  13
BRANCH  10  15
ATOM     15  C   UNL     1      -0.032   0.317  -0.036  0.00  0.00    -0.036 C 
BRANCH  15  16
ATOM     16  N   UNL     1       0.006  -0.326   1.294  0.00  0.00    +0.383 N 
ATOM     17  H   UNL     1       0.698   0.158   1.878  0.00  0.00    -0.081 HD
BRANCH  16  18
ATOM     18  C   UNL     1      -1.320  -0.228   1.940  0.00  0.00    -0.075 C 
BRANCH  18  19
ATOM     19  C   UNL     1      -1.169  -0.566   3.425  0.00  0.00    -0.034 C 
ATOM     20  C   UNL     1      -0.250   0.460   4.091  0.00  0.00    +0.005 C 
ATOM     21  C   UNL     1      -2.543  -0.533   4.098  0.00  0.00    +0.005 C 
ENDBRANCH  18  19
ENDBRANCH  16  18
BRANCH  16  22
ATOM     22  C   UNL     1       0.398  -1.744   1.159  0.00  0.00    -0.075 C 
BRANCH  22  23
ATOM     23  C   UNL     1       1.909  -1.815   0.930  0.00  0.00    -0.034 C 
ATOM     24  C   UNL     1       2.637  -1.275   2.163  0.00  0.00    +0.005 C 
ATOM     25  C   UNL     1       2.321  -3.269   0.692  0.00  0.00    +0.005 C 
ENDBRANCH  22  23
ENDBRANCH  16  22
ENDBRANCH  15  16
ENDBRANCH  10  15
BRANCH   3  26
ATOM     26  O   UNL     1      -5.371   3.825   0.222  0.00  0.00    -0.448 OA
BRANCH  26  27
ATOM     27  C   UNL     1      -6.016   3.885   1.417  0.00  0.00    +0.143 A 
ATOM     28  C   UNL     1      -5.365   3.490   2.577  0.00  0.00    +0.047 A 
ATOM     29  C   UNL     1      -6.021   3.556   3.791  0.00  0.00    +0.004 A 
ATOM     30  C   UNL     1      -7.328   4.005   3.850  0.00  0.00    +0.001 A 
ATOM     31  C   UNL     1      -7.980   4.395   2.695  0.00  0.00    +0.019 A 
ATOM     32  C   UNL     1      -7.327   4.336   1.478  0.00  0.00    +0.060 A 
ATOM     33 BR   UNL     1      -8.220   4.869  -0.102  0.00  0.00    -0.046 Br
ENDBRANCH  26  27
ENDBRANCH   3  26
TORSDOF 9
