REMARK  Name = ZINC39665788
REMARK  14 active torsions:
REMARK  status: ('A' for Active; 'I' for Inactive)
REMARK    1  A    between atoms: C_1  and  C_2
REMARK    2  A    between atoms: C_2  and  C_3
REMARK    3  A    between atoms: C_3  and  C_4
REMARK    4  A    between atoms: C_4  and  C_5
REMARK    5  A    between atoms: C_5  and  C_7
REMARK    6  A    between atoms: C_5  and  C_8
REMARK    7  A    between atoms: C_12  and  C_21
REMARK    8  A    between atoms: N_23  and  C_24
REMARK    9  A    between atoms: C_24  and  C_25
REMARK   10  A    between atoms: C_25  and  C_27
REMARK   11  A    between atoms: C_25  and  O_28
REMARK   12  A    between atoms: O_28  and  C_29
REMARK   13  A    between atoms: C_32  and  O_35
REMARK   14  A    between atoms: O_35  and  C_36
REMARK                            x       y       z     vdW  Elec       q    Type
REMARK                         _______ _______ _______ _____ _____    ______ ____
ROOT
ATOM      1  C   UNL     1      -2.544  -3.948   0.181  0.00  0.00    +0.218 C 
ATOM      2  O   UNL     1      -1.502  -4.532   0.392  0.00  0.00    -0.275 OA
ATOM      3  N   UNL     1      -3.695  -4.640   0.070  0.00  0.00    -0.300 N 
ATOM      4  C   UNL     1      -5.036  -4.121  -0.289  0.00  0.00    +0.121 C 
ATOM      5  C   UNL     1      -5.644  -5.209  -1.202  0.00  0.00    +0.100 C 
ATOM      6  C   UNL     1      -4.899  -6.500  -0.823  0.00  0.00    -0.004 C 
ATOM      7  C   UNL     1      -3.904  -6.093   0.273  0.00  0.00    +0.115 C 
ATOM      8  C   UNL     1      -4.147  -7.051  -2.031  0.00  0.00    -0.010 C 
ATOM      9  C   UNL     1      -3.462  -8.365  -1.644  0.00  0.00    -0.082 C 
ATOM     10  N   UNL     1      -4.471  -9.329  -1.189  0.00  0.00    +0.379 N 
ATOM     11  C   UNL     1      -5.125  -8.833   0.028  0.00  0.00    -0.082 C 
ATOM     12  C   UNL     1      -5.880  -7.539  -0.288  0.00  0.00    -0.010 C 
ATOM     13  H   UNL     1      -5.162  -9.458  -1.913  0.00  0.00    -0.086 HD
ATOM     14  H   UNL     1      -4.025 -10.213  -0.993  0.00  0.00    -0.086 HD
ENDROOT
BRANCH   5  15
ATOM     15  C   UNL     1      -7.120  -5.354  -0.935  0.00  0.00    +0.218 C 
ATOM     16  O   UNL     1      -7.550  -5.203   0.189  0.00  0.00    -0.275 OA
ATOM     17  N   UNL     1      -7.961  -5.652  -1.945  0.00  0.00    -0.312 N 
ATOM     18  H   UNL     1      -7.617  -5.773  -2.843  0.00  0.00    +0.149 HD
BRANCH  17  19
ATOM     19  C   UNL     1      -9.396  -5.793  -1.685  0.00  0.00    +0.148 C 
BRANCH  19  20
ATOM     20  C   UNL     1     -10.120  -6.130  -2.990  0.00  0.00    +0.187 C 
ATOM     21  C   UNL     1     -11.618  -6.277  -2.719  0.00  0.00    +0.053 C 
BRANCH  20  22
ATOM     22  O   UNL     1      -9.908  -5.080  -3.937  0.00  0.00    -0.488 OA
BRANCH  22  23
ATOM     23  C   UNL     1     -10.007  -5.407  -5.253  0.00  0.00    +0.121 A 
ATOM     24  C   UNL     1      -9.693  -4.470  -6.226  0.00  0.00    +0.049 A 
ATOM     25  C   UNL     1      -9.794  -4.802  -7.563  0.00  0.00    +0.049 A 
ATOM     26  C   UNL     1     -10.209  -6.073  -7.933  0.00  0.00    +0.120 A 
ATOM     27  C   UNL     1     -10.522  -7.011  -6.960  0.00  0.00    +0.049 A 
ATOM     28  C   UNL     1     -10.417  -6.680  -5.623  0.00  0.00    +0.049 A 
BRANCH  26  29
ATOM     29  O   UNL     1     -10.309  -6.400  -9.249  0.00  0.00    -0.495 OA
ATOM     30  C   UNL     1     -10.743  -7.726  -9.557  0.00  0.00    +0.277 C 
ENDBRANCH  26  29
ENDBRANCH  22  23
ENDBRANCH  20  22
ENDBRANCH  19  20
ENDBRANCH  17  19
ENDBRANCH   5  15
BRANCH   1  31
ATOM     31  C   UNL     1      -2.551  -2.447   0.043  0.00  0.00    +0.072 C 
ATOM     32  C   UNL     1      -2.449  -2.070  -1.436  0.00  0.00    +0.017 C 
BRANCH  31  33
ATOM     33  C   UNL     1      -1.359  -1.859   0.803  0.00  0.00    +0.012 C 
BRANCH  33  34
ATOM     34  C   UNL     1      -1.436  -0.332   0.768  0.00  0.00    +0.000 C 
BRANCH  34  36
ATOM     35  C   UNL     1      -0.320   1.783   1.492  0.00  0.00    +0.004 C 
ATOM     36  C   UNL     1      -0.244   0.256   1.527  0.00  0.00    -0.003 C 
ENDBRANCH  34  36
ENDBRANCH  33  34
ENDBRANCH  31  33
ENDBRANCH   1  31
TORSDOF 10
