REMARK  Name = ZINC39198499
REMARK  8 active torsions:
REMARK  status: ('A' for Active; 'I' for Inactive)
REMARK    1  A    between atoms: C_1  and  C_2
REMARK    2  A    between atoms: C_2  and  O_3
REMARK    3  A    between atoms: O_3  and  C_4
REMARK    4  A    between atoms: C_4  and  C_6
REMARK    5  A    between atoms: C_12  and  C_14
REMARK    6  A    between atoms: N_17  and  C_20
REMARK    7  A    between atoms: C_20  and  C_21
REMARK    8  A    between atoms: C_22  and  C_30
REMARK                            x       y       z     vdW  Elec       q    Type
REMARK                         _______ _______ _______ _____ _____    ______ ____
ROOT
ATOM      1  C   UNL     1       1.270  -6.060   5.976  0.00  0.00    +0.072 C 
ATOM      2  C   UNL     1       2.706  -6.549   5.765  0.00  0.00    -0.006 C 
ATOM      3  C   UNL     1       2.696  -8.063   5.542  0.00  0.00    -0.078 C 
ATOM      4  N   UNL     1       2.119  -8.730   6.715  0.00  0.00    +0.383 N 
ATOM      5  C   UNL     1       0.719  -8.321   6.881  0.00  0.00    -0.078 C 
ATOM      6  C   UNL     1       0.653  -6.817   7.156  0.00  0.00    -0.006 C 
ATOM      7  H   UNL     1       2.643  -8.475   7.538  0.00  0.00    -0.081 HD
ENDROOT
BRANCH   1  14
ATOM      8  C   UNL     1       0.866  -2.011   3.098  0.00  0.00    +0.101 C 
ATOM      9  C   UNL     1       0.406  -1.651   4.513  0.00  0.00    +0.033 C 
ATOM     10  C   UNL     1       1.380  -2.253   5.531  0.00  0.00    +0.108 C 
ATOM     11  N   UNL     1       1.492  -3.697   5.282  0.00  0.00    -0.301 N 
ATOM     12  C   UNL     1       1.840  -4.156   3.930  0.00  0.00    +0.108 C 
ATOM     13  C   UNL     1       0.861  -3.533   2.930  0.00  0.00    +0.033 C 
ATOM     14  C   UNL     1       1.279  -4.583   6.274  0.00  0.00    +0.219 C 
ATOM     15  O   UNL     1       1.095  -4.192   7.408  0.00  0.00    -0.275 OA
BRANCH   8  16
ATOM     16  C   UNL     1      -0.071  -1.392   2.093  0.00  0.00    +0.310 C 
ATOM     17  O   UNL     1      -0.679  -2.095   1.321  0.00  0.00    -0.251 OA
BRANCH  16  18
ATOM     18  O   UNL     1      -0.229  -0.060   2.054  0.00  0.00    -0.465 OA
BRANCH  18  20
ATOM     19  C   UNL     1      -1.181   1.984   1.184  0.00  0.00    +0.048 C 
ATOM     20  C   UNL     1      -1.132   0.458   1.076  0.00  0.00    +0.229 C 
ENDBRANCH  18  20
ENDBRANCH  16  18
ENDBRANCH   8  16
ENDBRANCH   1  14
BRANCH   4  21
ATOM     21  C   UNL     1       2.183 -10.186   6.529  0.00  0.00    -0.022 C 
BRANCH  21  22
ATOM     22  C   UNL     1       1.704 -10.874   7.781  0.00  0.00    +0.035 A 
ATOM     23  C   UNL     1       2.444 -11.134   8.895  0.00  0.00    +0.091 A 
ATOM     24  N   UNL     1       1.658 -11.758   9.787  0.00  0.00    -0.228 NA
ATOM     25  C   UNL     1       0.446 -11.900   9.271  0.00  0.00    +0.138 A 
ATOM     26  N   UNL     1       0.445 -11.349   8.016  0.00  0.00    -0.305 N 
ATOM     27  C   UNL     1      -0.692 -11.356   7.259  0.00  0.00    +0.093 A 
ATOM     28  C   UNL     1      -1.831 -11.901   7.735  0.00  0.00    +0.018 A 
ATOM     29  C   UNL     1      -1.863 -12.470   9.019  0.00  0.00    +0.005 A 
ATOM     30  C   UNL     1      -0.735 -12.478   9.780  0.00  0.00    +0.047 A 
BRANCH  23  31
ATOM     31  C   UNL     1       3.874 -10.787   9.089  0.00  0.00    +0.002 A 
ATOM     32  C   UNL     1       4.305 -10.252  10.302  0.00  0.00    +0.011 A 
ATOM     33  C   UNL     1       5.636  -9.932  10.478  0.00  0.00    +0.020 A 
ATOM     34  C   UNL     1       6.542 -10.140   9.452  0.00  0.00    +0.041 A 
ATOM     35  C   UNL     1       6.118 -10.671   8.246  0.00  0.00    +0.020 A 
ATOM     36  C   UNL     1       4.791 -11.001   8.062  0.00  0.00    +0.011 A 
ATOM     37 CL   UNL     1       8.214  -9.735   9.680  0.00  0.00    -0.084 Cl
ENDBRANCH  23  31
ENDBRANCH  21  22
ENDBRANCH   4  21
TORSDOF 7
