REMARK  Name = ZINC12138044
REMARK  8 active torsions:
REMARK  status: ('A' for Active; 'I' for Inactive)
REMARK    1  A    between atoms: C_4  and  C_7
REMARK    2  A    between atoms: C_7  and  C_8
REMARK    3  A    between atoms: C_7  and  N_66
REMARK    4  A    between atoms: C_19  and  C_21
REMARK    5  A    between atoms: C_26  and  N_27
REMARK    6  A    between atoms: N_27  and  C_28
REMARK    7  A    between atoms: C_28  and  N_30
REMARK    8  A    between atoms: C_31  and  C_33
REMARK                            x       y       z     vdW  Elec       q    Type
REMARK                         _______ _______ _______ _____ _____    ______ ____
ROOT
ATOM      1  C   UNL     1      -7.928   5.974   1.330  0.00  0.00    -0.058 C 
ATOM      2  C   UNL     1      -6.926   5.490   0.277  0.00  0.00    +0.089 C 
ATOM      3  N   UNL     1      -6.728   4.043   0.450  0.00  0.00    -0.301 N 
ATOM      4  C   UNL     1      -7.918   3.180   0.507  0.00  0.00    +0.089 C 
ATOM      5  C   UNL     1      -8.882   3.756   1.557  0.00  0.00    -0.058 C 
ATOM      6  C   UNL     1      -5.490   3.521   0.549  0.00  0.00    +0.248 C 
ATOM      7  O   UNL     1      -4.516   4.237   0.418  0.00  0.00    -0.270 OA
ATOM      8  N   UNL     1      -9.163   5.168   1.217  0.00  0.00    +0.389 N 
ATOM      9  H   UNL     1      -9.504   5.215   0.250  0.00  0.00    -0.080 HD
ENDROOT
BRANCH   6  10
ATOM     10  C   UNL     1      -5.316   2.081   0.816  0.00  0.00    +0.058 A 
ATOM     11  C   UNL     1      -5.942   1.135   0.002  0.00  0.00    +0.015 A 
ATOM     12  C   UNL     1      -5.775  -0.209   0.256  0.00  0.00    +0.001 A 
ATOM     13  C   UNL     1      -4.988  -0.628   1.317  0.00  0.00    +0.002 A 
ATOM     14  C   UNL     1      -4.358   0.294   2.126  0.00  0.00    +0.024 A 
ATOM     15  C   UNL     1      -4.519   1.653   1.889  0.00  0.00    +0.045 A 
BRANCH  15  16
ATOM     16  N   UNL     1      -3.889   2.586   2.708  0.00  0.00    -0.296 N 
ATOM     17  H   UNL     1      -4.386   3.347   3.047  0.00  0.00    +0.154 HD
BRANCH  16  18
ATOM     18  C   UNL     1      -2.590   2.432   3.029  0.00  0.00    +0.141 C 
ATOM     19  S   UNL     1      -1.747   1.025   2.538  0.00  0.00    -0.018 S 
BRANCH  18  20
ATOM     20  N   UNL     1      -1.953   3.386   3.738  0.00  0.00    -0.267 N 
ATOM     21  C   UNL     1      -0.653   3.232   4.059  0.00  0.00    +0.222 C 
ATOM     22  O   UNL     1      -0.057   2.235   3.711  0.00  0.00    -0.275 OA
ATOM     23  H   UNL     1      -2.430   4.183   4.016  0.00  0.00    +0.157 HD
BRANCH  21  24
ATOM     24  C   UNL     1       0.060   4.301   4.846  0.00  0.00    +0.075 C 
ATOM     25  C   UNL     1       1.138   5.110   4.122  0.00  0.00    +0.013 C 
ATOM     26  C   UNL     1       1.537   4.071   5.172  0.00  0.00    +0.013 C 
ENDBRANCH  21  24
ENDBRANCH  18  20
ENDBRANCH  16  18
ENDBRANCH  15  16
ENDBRANCH   6  10
BRANCH   8  27
ATOM     27  C   UNL     1     -10.202   5.706   2.119  0.00  0.00    -0.007 C 
BRANCH  27  31
ATOM     28  C   UNL     1     -11.292   9.615   0.785  0.00  0.00    +0.000 A 
ATOM     29  C   UNL     1     -11.088   9.376   2.132  0.00  0.00    +0.000 A 
ATOM     30  C   UNL     1     -10.735   8.111   2.563  0.00  0.00    +0.002 A 
ATOM     31  C   UNL     1     -10.586   7.085   1.649  0.00  0.00    -0.057 A 
ATOM     32  C   UNL     1     -10.785   7.326   0.302  0.00  0.00    +0.002 A 
ATOM     33  C   UNL     1     -11.142   8.589  -0.129  0.00  0.00    +0.000 A 
ENDBRANCH  27  31
BRANCH  27  34
ATOM     34  C   UNL     1     -11.408   4.804   2.072  0.00  0.00    -0.057 A 
ATOM     35  C   UNL     1     -11.831   4.279   0.865  0.00  0.00    +0.002 A 
ATOM     36  C   UNL     1     -12.935   3.447   0.822  0.00  0.00    +0.000 A 
ATOM     37  C   UNL     1     -13.622   3.150   1.984  0.00  0.00    +0.000 A 
ATOM     38  C   UNL     1     -13.203   3.681   3.190  0.00  0.00    +0.000 A 
ATOM     39  C   UNL     1     -12.096   4.508   3.234  0.00  0.00    +0.002 A 
ENDBRANCH  27  34
ENDBRANCH   8  27
TORSDOF 8
