REMARK  Name = ZINC67450460
REMARK  8 active torsions:
REMARK  status: ('A' for Active; 'I' for Inactive)
REMARK    1  A    between atoms: C_1  and  C_2
REMARK    2  A    between atoms: C_5  and  S_8
REMARK    3  A    between atoms: S_8  and  N_11
REMARK    4  A    between atoms: N_11  and  C_12
REMARK    5  A    between atoms: C_12  and  C_13
REMARK    6  A    between atoms: C_13  and  N_14
REMARK    7  A    between atoms: N_14  and  C_15
REMARK    8  A    between atoms: C_15  and  C_16
REMARK                            x       y       z     vdW  Elec       q    Type
REMARK                         _______ _______ _______ _____ _____    ______ ____
ROOT
ATOM      1  N   UNL     1       4.650  -5.239   2.177  0.00  0.00    +0.383 N 
ATOM      2  H   UNL     1       4.892  -4.260   2.169  0.00  0.00    -0.085 HD
ATOM      3  H   UNL     1       4.160  -5.457   3.032  0.00  0.00    -0.085 HD
ENDROOT
BRANCH   1   4
ATOM      4  C   UNL     1       3.787  -5.540   1.028  0.00  0.00    -0.065 C 
BRANCH   4   5
ATOM      5  C   UNL     1       2.512  -4.699   1.113  0.00  0.00    +0.087 C 
BRANCH   5   6
ATOM      6  N   UNL     1       1.651  -4.999  -0.034  0.00  0.00    -0.192 NA
ATOM      7  H   UNL     1       2.011  -5.473  -0.800  0.00  0.00    +0.148 HD
BRANCH   6   8
ATOM      8  S   UNL     1       0.063  -4.530  -0.023  0.00  0.00    +0.058 S 
ATOM      9  O   UNL     1      -0.476  -4.950   1.223  0.00  0.00    -0.153 OA
ATOM     10  O   UNL     1      -0.490  -4.937  -1.267  0.00  0.00    -0.153 OA
BRANCH   8  15
ATOM     11  C   UNL     1      -0.018   1.503   0.010  0.00  0.00    +0.044 C 
ATOM     12  C   UNL     1       0.002  -0.004   0.002  0.00  0.00    -0.050 A 
ATOM     13  C   UNL     1       0.006  -0.689  -1.199  0.00  0.00    +0.005 A 
ATOM     14  C   UNL     1       0.025  -2.071  -1.206  0.00  0.00    +0.029 A 
ATOM     15  C   UNL     1       0.040  -2.768  -0.013  0.00  0.00    +0.105 A 
ATOM     16  C   UNL     1       0.037  -2.084   1.188  0.00  0.00    +0.029 A 
ATOM     17  C   UNL     1       0.023  -0.702   1.195  0.00  0.00    +0.005 A 
ENDBRANCH   8  15
ENDBRANCH   6   8
ENDBRANCH   5   6
ENDBRANCH   4   5
ENDBRANCH   1   4
BRANCH   1  18
ATOM     18  C   UNL     1       5.874  -6.047   2.096  0.00  0.00    -0.047 C 
BRANCH  18  19
ATOM     19  C   UNL     1       6.759  -5.738   3.275  0.00  0.00    -0.059 A 
ATOM     20  C   UNL     1       7.693  -4.723   3.190  0.00  0.00    +0.051 A 
ATOM     21  C   UNL     1       8.509  -4.435   4.274  0.00  0.00    +0.164 A 
ATOM     22  C   UNL     1       8.384  -5.169   5.447  0.00  0.00    +0.180 A 
ATOM     23  C   UNL     1       7.446  -6.189   5.526  0.00  0.00    +0.086 A 
ATOM     24  C   UNL     1       6.632  -6.467   4.443  0.00  0.00    +0.025 A 
ATOM     25 CL   UNL     1       7.289  -7.111   6.989  0.00  0.00    -0.080 Cl
ATOM     26  O   UNL     1       9.170  -4.898   6.525  0.00  0.00    -0.483 OA
ATOM     27  C   UNL     1      10.348  -4.122   6.284  0.00  0.00    +0.270 C 
ATOM     28  C   UNL     1       9.964  -2.928   5.399  0.00  0.00    +0.270 C 
ATOM     29  O   UNL     1       9.427  -3.435   4.172  0.00  0.00    -0.485 OA
ENDBRANCH  18  19
ENDBRANCH   1  18
TORSDOF 7
