REMARK  Name = ZINC01494932
REMARK  0 active torsions:
REMARK  status: ('A' for Active; 'I' for Inactive)
REMARK                            x       y       z     vdW  Elec       q    Type
REMARK                         _______ _______ _______ _____ _____    ______ ____
ROOT
ATOM      1  C   UNL     1       2.322   1.341  -0.013  0.00  0.00    +0.110 A 
ATOM      2  C   UNL     1       2.305  -0.052  -0.020  0.00  0.00    +0.255 A 
ATOM      3  N   UNL     1       1.137  -0.684  -0.012  0.00  0.00    -0.273 N 
ATOM      4  C   UNL     1       0.002  -0.004   0.002  0.00  0.00    +0.350 A 
ATOM      5  N   UNL     1      -0.016   1.319   0.009  0.00  0.00    -0.181 NA
ATOM      6  C   UNL     1       1.113   2.015   0.002  0.00  0.00    +0.140 A 
ATOM      7 CL   UNL     1       1.074   3.750   0.012  0.00  0.00    -0.062 Cl
ATOM      8  O   UNL     1      -1.172  -0.680   0.010  0.00  0.00    -0.245 OA
ATOM      9  O   UNL     1       3.465  -0.753  -0.034  0.00  0.00    -0.268 OA
ATOM     10  H   UNL     1       1.120  -1.783  -0.017  0.00  0.00    +0.173 HD
ENDROOT
TORSDOF 0
