REMARK  Name = ZINC16011798
REMARK  6 active torsions:
REMARK  status: ('A' for Active; 'I' for Inactive)
REMARK    1  A    between atoms: C_1  and  C_2
REMARK    2  A    between atoms: C_7  and  C_8
REMARK    3  A    between atoms: C_17  and  C_20
REMARK    4  A    between atoms: C_20  and  C_21
REMARK    5  A    between atoms: N_26  and  C_29
REMARK    6  A    between atoms: C_30  and  C_38
REMARK                            x       y       z     vdW  Elec       q    Type
REMARK                         _______ _______ _______ _____ _____    ______ ____
ROOT
ATOM      1  C   UNL     1       0.384   1.417   0.305  0.00  0.00    +0.044 C 
ATOM      2  C   UNL     1       0.322  -0.086   0.227  0.00  0.00    -0.046 A 
ATOM      3  C   UNL     1       0.250  -0.710  -1.005  0.00  0.00    +0.004 A 
ATOM      4  C   UNL     1       0.194  -2.090  -1.076  0.00  0.00    +0.008 A 
ATOM      5  C   UNL     1       0.210  -2.841   0.078  0.00  0.00    +0.004 A 
ATOM      6  C   UNL     1       0.281  -2.225   1.324  0.00  0.00    +0.042 A 
ATOM      7  C   UNL     1       0.344  -0.835   1.386  0.00  0.00    -0.026 A 
ATOM      8  C   UNL     1       0.429  -0.146   2.723  0.00  0.00    +0.046 C 
ATOM      9  N   UNL     1       0.282  -3.185   2.338  0.00  0.00    -0.283 N 
ATOM     10  C   UNL     1       0.213  -4.439   1.851  0.00  0.00    +0.243 C 
ATOM     11  O   UNL     1       0.194  -5.466   2.495  0.00  0.00    -0.273 OA
ATOM     12  C   UNL     1       0.165  -4.317   0.352  0.00  0.00    +0.136 C 
ATOM     13  C   UNL     1      -1.104  -4.958  -0.222  0.00  0.00    +0.123 C 
ATOM     14  C   UNL     1      -0.650  -6.364  -0.705  0.00  0.00    +0.108 C 
ATOM     15  C   UNL     1       0.854  -6.431  -0.365  0.00  0.00    +0.076 C 
ATOM     16  N   UNL     1       1.296  -5.021  -0.281  0.00  0.00    -0.295 NA
ATOM     17  C   UNL     1      -1.419  -7.306   0.193  0.00  0.00    +0.232 C 
ATOM     18  O   UNL     1      -1.361  -8.516   0.153  0.00  0.00    -0.274 OA
ATOM     19  N   UNL     1      -2.173  -6.597   1.040  0.00  0.00    -0.202 N 
ATOM     20  C   UNL     1      -2.079  -5.255   0.895  0.00  0.00    +0.233 C 
ATOM     21  O   UNL     1      -2.672  -4.423   1.547  0.00  0.00    -0.274 OA
ATOM     22  H   UNL     1       0.326  -2.973   3.284  0.00  0.00    +0.155 HD
ATOM     23  H   UNL     1       1.479  -4.654  -1.203  0.00  0.00    +0.124 HD
ENDROOT
BRANCH  19  24
ATOM     24  C   UNL     1      -2.996  -7.190   1.993  0.00  0.00    +0.099 A 
ATOM     25  C   UNL     1      -4.324  -7.559   1.860  0.00  0.00    +0.084 A 
ATOM     26  C   UNL     1      -4.965  -8.165   3.012  0.00  0.00    -0.018 A 
ATOM     27  C   UNL     1      -4.159  -8.292   4.090  0.00  0.00    -0.004 A 
ATOM     28  S   UNL     1      -2.604  -7.629   3.566  0.00  0.00    -0.076 S 
ATOM     29  C   UNL     1      -4.521  -8.872   5.421  0.00  0.00    +0.043 C 
ATOM     30  C   UNL     1      -6.053  -8.960   5.508  0.00  0.00    +0.005 C 
ATOM     31  C   UNL     1      -6.586  -9.599   4.222  0.00  0.00    +0.005 C 
ATOM     32  C   UNL     1      -6.412  -8.632   3.049  0.00  0.00    +0.037 C 
BRANCH  25  33
ATOM     33  C   UNL     1      -5.035  -7.350   0.635  0.00  0.00    +0.102 C 
ATOM     34  N   UNL     1      -5.600  -7.184  -0.337  0.00  0.00    -0.191 NA
ENDBRANCH  25  33
ENDBRANCH  19  24
BRANCH  15  35
ATOM     35  C   UNL     1       1.614  -7.182  -1.461  0.00  0.00    +0.115 C 
BRANCH  35  36
ATOM     36  C   UNL     1       3.056  -7.343  -1.052  0.00  0.00    +0.212 C 
ATOM     37  O   UNL     1       3.438  -6.901   0.011  0.00  0.00    -0.276 OA
ATOM     38  N   UNL     1       3.921  -7.978  -1.867  0.00  0.00    -0.329 N 
ATOM     39  H   UNL     1       3.615  -8.332  -2.717  0.00  0.00    +0.145 HD
ATOM     40  H   UNL     1       4.848  -8.082  -1.604  0.00  0.00    +0.145 HD
ENDBRANCH  35  36
ENDBRANCH  15  35
TORSDOF 4
