REMARK  Name = ZINC44171430
REMARK  4 active torsions:
REMARK  status: ('A' for Active; 'I' for Inactive)
REMARK    1  A    between atoms: C_4  and  C_7
REMARK    2  A    between atoms: C_7  and  O_8
REMARK    3  A    between atoms: O_8  and  C_9
REMARK    4  A    between atoms: C_11  and  O_37
REMARK                            x       y       z     vdW  Elec       q    Type
REMARK                         _______ _______ _______ _____ _____    ______ ____
ROOT
ATOM      1  C   UNL     1       5.383  -1.641   1.400  0.00  0.00    +0.181 C 
ATOM      2  C   UNL     1       5.117  -3.146   1.335  0.00  0.00    +0.177 C 
ATOM      3  C   UNL     1       4.486  -3.570   2.649  0.00  0.00    +0.184 C 
ATOM      4  C   UNL     1       5.574  -3.351   3.732  0.00  0.00    +0.184 C 
ATOM      5  C   UNL     1       5.748  -1.882   3.938  0.00  0.00    +0.184 C 
ATOM      6  C   UNL     1       6.151  -1.176   2.627  0.00  0.00    +0.184 C 
ATOM      7  O   UNL     1       5.764   0.199   2.888  0.00  0.00    -0.340 OA
ATOM      8  C   UNL     1       4.840   0.185   3.985  0.00  0.00    +0.171 C 
ATOM      9  O   UNL     1       4.559  -1.184   4.333  0.00  0.00    -0.340 OA
ATOM     10  C   UNL     1       5.467   0.897   5.186  0.00  0.00    +0.065 C 
ATOM     11  C   UNL     1       4.490   0.877   6.363  0.00  0.00    +0.005 C 
ATOM     12  C   UNL     1       3.192   1.582   5.964  0.00  0.00    +0.000 C 
ATOM     13  C   UNL     1       2.566   0.862   4.767  0.00  0.00    +0.005 C 
ATOM     14  C   UNL     1       3.546   0.893   3.590  0.00  0.00    +0.065 C 
ATOM     15  O   UNL     1       5.122  -4.149   4.816  0.00  0.00    -0.340 OA
ATOM     16  C   UNL     1       4.295  -5.175   4.231  0.00  0.00    +0.171 C 
ATOM     17  O   UNL     1       4.227  -4.968   2.802  0.00  0.00    -0.340 OA
ATOM     18  C   UNL     1       4.910  -6.548   4.505  0.00  0.00    +0.065 C 
ATOM     19  C   UNL     1       4.026  -7.633   3.886  0.00  0.00    +0.005 C 
ATOM     20  C   UNL     1       2.631  -7.565   4.512  0.00  0.00    +0.000 C 
ATOM     21  C   UNL     1       2.011  -6.196   4.231  0.00  0.00    +0.005 C 
ATOM     22  C   UNL     1       2.894  -5.100   4.832  0.00  0.00    +0.065 C 
ENDROOT
BRANCH   2  23
ATOM     23  O   UNL     1       6.335  -3.854   1.109  0.00  0.00    -0.386 OA
ATOM     24  H   UNL     1       6.783  -3.615   0.286  0.00  0.00    +0.210 HD
ENDBRANCH   2  23
BRANCH   1  25
ATOM     25  O   UNL     1       4.141  -0.946   1.304  0.00  0.00    -0.367 OA
BRANCH  25  26
ATOM     26  C   UNL     1       3.711  -0.707  -0.038  0.00  0.00    +0.195 C 
BRANCH  26  30
ATOM     27  C   UNL     1      -0.017   1.378   0.010  0.00  0.00    +0.000 A 
ATOM     28  C   UNL     1       1.171   2.086   0.002  0.00  0.00    +0.000 A 
ATOM     29  C   UNL     1       2.377   1.411  -0.013  0.00  0.00    +0.006 A 
ATOM     30  C   UNL     1       2.396   0.029  -0.020  0.00  0.00    -0.022 A 
ATOM     31  C   UNL     1       1.208  -0.679  -0.012  0.00  0.00    +0.006 A 
ATOM     32  C   UNL     1       0.002  -0.004   0.002  0.00  0.00    +0.000 A 
ENDBRANCH  26  30
ENDBRANCH  25  26
ENDBRANCH   1  25
TORSDOF 4
