REMARK  Name = ZINC17175887
REMARK  12 active torsions:
REMARK  status: ('A' for Active; 'I' for Inactive)
REMARK    1  A    between atoms: C_1  and  C_2
REMARK    2  A    between atoms: C_2  and  C_33
REMARK    3  A    between atoms: C_3  and  C_4
REMARK    4  A    between atoms: C_4  and  C_5
REMARK    5  A    between atoms: C_5  and  C_6
REMARK    6  A    between atoms: C_6  and  C_32
REMARK    7  A    between atoms: C_7  and  C_8
REMARK    8  A    between atoms: C_8  and  C_9
REMARK    9  A    between atoms: C_14  and  O_31
REMARK   10  A    between atoms: C_16  and  O_30
REMARK   11  A    between atoms: C_24  and  C_26
REMARK   12  A    between atoms: C_24  and  C_27
REMARK                            x       y       z     vdW  Elec       q    Type
REMARK                         _______ _______ _______ _____ _____    ______ ____
ROOT
ATOM      1  C   UNL     1      -2.809   0.781  -1.025  0.00  0.00    +0.162 C 
ATOM      2  C   UNL     1      -1.489   1.431  -1.361  0.00  0.00    +0.198 C 
ATOM      3  O   UNL     1      -1.448   2.615  -1.650  0.00  0.00    -0.289 OA
ATOM      4  C   UNL     1      -0.235   0.659  -1.316  0.00  0.00    +0.038 A 
ATOM      5  C   UNL     1       0.982   1.279  -1.570  0.00  0.00    +0.057 A 
ATOM      6  C   UNL     1       2.165   0.553  -1.469  0.00  0.00    +0.121 A 
ATOM      7  C   UNL     1       2.141  -0.787  -1.114  0.00  0.00    +0.091 A 
ATOM      8  C   UNL     1       0.933  -1.429  -0.872  0.00  0.00    +0.132 A 
ATOM      9  C   UNL     1      -0.264  -0.715  -0.985  0.00  0.00    +0.071 A 
ATOM     10  C   UNL     1      -1.563  -1.368  -0.800  0.00  0.00    +0.191 C 
ATOM     11  O   UNL     1      -1.660  -2.428  -0.220  0.00  0.00    -0.290 OA
ATOM     12  C   UNL     1      -2.789  -0.706  -1.387  0.00  0.00    +0.145 C 
ATOM     13  C   UNL     1      -2.751  -0.844  -2.912  0.00  0.00    +0.056 C 
ATOM     14  C   UNL     1      -4.037  -0.238  -3.475  0.00  0.00    +0.114 C 
ATOM     15  C   UNL     1      -4.159   1.227  -3.058  0.00  0.00    +0.082 C 
ATOM     16  O   UNL     1      -3.865   1.445  -1.698  0.00  0.00    -0.356 OA
ATOM     17  C   UNL     1      -5.617   1.667  -3.314  0.00  0.00    +0.043 C 
ATOM     18  C   UNL     1      -3.260   2.082  -3.961  0.00  0.00    +0.043 C 
ATOM     19 CL   UNL     1      -4.016  -0.351  -5.276  0.00  0.00    -0.119 Cl
ATOM     20 CL   UNL     1      -4.273  -1.510  -0.744  0.00  0.00    -0.106 Cl
ENDROOT
BRANCH   8  21
ATOM     21  O   UNL     1       0.925  -2.742  -0.532  0.00  0.00    -0.506 OA
ATOM     22  H   UNL     1       0.871  -3.344  -1.288  0.00  0.00    +0.292 HD
ENDBRANCH   8  21
BRANCH   6  23
ATOM     23  O   UNL     1       3.352   1.163  -1.713  0.00  0.00    -0.507 OA
ATOM     24  H   UNL     1       3.636   1.116  -2.636  0.00  0.00    +0.292 HD
ENDBRANCH   6  23
BRANCH   1  25
ATOM     25  C   UNL     1      -3.041   0.911   0.495  0.00  0.00    +0.072 C 
BRANCH  25  27
ATOM     26  C   UNL     1      -4.080   2.855   1.545  0.00  0.00    -0.076 C 
ATOM     27  C   UNL     1      -3.064   2.369   0.876  0.00  0.00    -0.025 C 
ATOM     28  C   UNL     1      -4.179   4.338   1.795  0.00  0.00    +0.039 C 
BRANCH  26  29
ATOM     29  C   UNL     1      -5.151   1.931   2.066  0.00  0.00    +0.034 C 
BRANCH  29  30
ATOM     30  C   UNL     1      -6.306   1.873   1.065  0.00  0.00    +0.031 C 
BRANCH  30  33
ATOM     31  C   UNL     1      -8.880   2.872   1.641  0.00  0.00    +0.038 C 
ATOM     32  C   UNL     1      -8.589   1.401   1.792  0.00  0.00    -0.080 C 
ATOM     33  C   UNL     1      -7.377   0.949   1.585  0.00  0.00    -0.028 C 
ATOM     34  C   UNL     1      -9.691   0.451   2.182  0.00  0.00    +0.038 C 
ENDBRANCH  30  33
ENDBRANCH  29  30
ENDBRANCH  26  29
ENDBRANCH  25  27
ENDBRANCH   1  25
TORSDOF 7
