REMARK  Name = ZINC16610041
REMARK  11 active torsions:
REMARK  status: ('A' for Active; 'I' for Inactive)
REMARK    1  A    between atoms: C_1  and  C_2
REMARK    2  A    between atoms: C_3  and  C_31
REMARK    3  A    between atoms: C_4  and  C_11
REMARK    4  A    between atoms: N_9  and  C_10
REMARK    5  A    between atoms: C_14  and  N_17
REMARK    6  A    between atoms: N_20  and  C_21
REMARK    7  A    between atoms: C_31  and  O_33
REMARK    8  A    between atoms: O_33  and  C_34
REMARK    9  A    between atoms: C_34  and  C_35
REMARK   10  A    between atoms: C_35  and  O_36
REMARK   11  A    between atoms: O_36  and  C_37
REMARK                            x       y       z     vdW  Elec       q    Type
REMARK                         _______ _______ _______ _____ _____    ______ ____
ROOT
ATOM      1  C   UNL     1      -0.680   1.558  -1.259  0.00  0.00    -0.022 A 
ATOM      2  C   UNL     1      -0.623   2.889  -1.627  0.00  0.00    +0.007 A 
ATOM      3  C   UNL     1      -1.215   3.308  -2.803  0.00  0.00    +0.024 A 
ATOM      4  C   UNL     1      -1.878   2.391  -3.609  0.00  0.00    +0.035 A 
ATOM      5  C   UNL     1      -1.938   1.056  -3.233  0.00  0.00    +0.024 A 
ATOM      6  C   UNL     1      -1.339   0.643  -2.059  0.00  0.00    +0.007 A 
ENDROOT
BRANCH   1  10
ATOM      7  C   UNL     1      -1.510   2.457   3.314  0.00  0.00    +0.061 C 
ATOM      8  C   UNL     1      -0.580   2.168   2.164  0.00  0.00    +0.021 C 
ATOM      9  C   UNL     1      -0.995   1.368   1.157  0.00  0.00    +0.078 C 
ATOM     10  C   UNL     1      -0.028   1.103   0.022  0.00  0.00    +0.141 C 
ATOM     11  N   UNL     1       1.295   1.745   0.110  0.00  0.00    -0.315 N 
ATOM     12  C   UNL     1       1.563   2.518   1.181  0.00  0.00    +0.137 C 
ATOM     13  S   UNL     1       3.097   3.270   1.296  0.00  0.00    -0.018 S 
ATOM     14  N   UNL     1       0.669   2.717   2.157  0.00  0.00    -0.289 N 
ATOM     15  C   UNL     1       1.053   3.575   3.281  0.00  0.00    +0.137 C 
ATOM     16  H   UNL     1       1.958   1.614  -0.586  0.00  0.00    +0.149 HD
BRANCH   9  17
ATOM     17  C   UNL     1      -2.289   0.797   1.164  0.00  0.00    +0.339 C 
ATOM     18  O   UNL     1      -3.050   1.024   2.086  0.00  0.00    -0.245 OA
BRANCH  17  19
ATOM     19  O   UNL     1      -2.680   0.002   0.146  0.00  0.00    -0.459 OA
BRANCH  19  20
ATOM     20  C   UNL     1      -4.000  -0.541   0.218  0.00  0.00    +0.260 C 
BRANCH  20  21
ATOM     21  C   UNL     1      -4.262  -1.410  -1.014  0.00  0.00    +0.200 C 
BRANCH  21  22
ATOM     22  O   UNL     1      -3.387  -2.540  -0.994  0.00  0.00    -0.380 OA
ATOM     23  C   UNL     1      -3.551  -3.421  -2.107  0.00  0.00    +0.194 C 
ENDBRANCH  21  22
ENDBRANCH  20  21
ENDBRANCH  19  20
ENDBRANCH  17  19
ENDBRANCH   9  17
ENDBRANCH   1  10
BRANCH   4  24
ATOM     24  N   UNL     1      -2.484   2.813  -4.798  0.00  0.00    -0.269 N 
ATOM     25  C   UNL     1      -1.939   3.817  -5.513  0.00  0.00    +0.304 C 
ATOM     26  O   UNL     1      -0.870   4.290  -5.179  0.00  0.00    -0.252 OA
ATOM     27  N   UNL     1      -2.578   4.295  -6.599  0.00  0.00    -0.294 N 
ATOM     28  H   UNL     1      -3.297   2.383  -5.107  0.00  0.00    +0.156 HD
ATOM     29  H   UNL     1      -3.431   3.917  -6.866  0.00  0.00    +0.151 HD
BRANCH  27  30
ATOM     30  C   UNL     1      -1.985   5.386  -7.377  0.00  0.00    +0.037 C 
ATOM     31  C   UNL     1      -0.622   4.946  -7.914  0.00  0.00    +0.029 C 
ATOM     32  C   UNL     1      -0.003   6.085  -8.727  0.00  0.00    -0.008 C 
ATOM     33  C   UNL     1      -0.923   6.436  -9.897  0.00  0.00    +0.007 C 
ATOM     34  C   UNL     1      -2.287   6.876  -9.360  0.00  0.00    -0.008 C 
ATOM     35  C   UNL     1      -2.906   5.736  -8.547  0.00  0.00    +0.029 C 
ATOM     36  C   UNL     1      -2.110   8.103  -8.464  0.00  0.00    +0.007 C 
ATOM     37  C   UNL     1      -1.190   7.753  -7.293  0.00  0.00    -0.008 C 
ATOM     38  C   UNL     1       0.174   7.313  -7.831  0.00  0.00    +0.007 C 
ATOM     39  C   UNL     1      -1.809   6.614  -6.481  0.00  0.00    +0.029 C 
ENDBRANCH  27  30
ENDBRANCH   4  24
TORSDOF 8
