REMARK  Name = ZINC36240623
REMARK  14 active torsions:
REMARK  status: ('A' for Active; 'I' for Inactive)
REMARK    1  A    between atoms: C_1  and  C_2
REMARK    2  A    between atoms: C_2  and  N_3
REMARK    3  A    between atoms: N_3  and  C_4
REMARK    4  A    between atoms: N_3  and  C_6
REMARK    5  A    between atoms: C_4  and  C_5
REMARK    6  A    between atoms: C_6  and  C_8
REMARK    7  A    between atoms: C_6  and  C_31
REMARK    8  A    between atoms: C_8  and  N_9
REMARK    9  A    between atoms: C_10  and  C_12
REMARK   10  A    between atoms: C_12  and  S_13
REMARK   11  A    between atoms: S_13  and  C_14
REMARK   12  A    between atoms: C_17  and  C_26
REMARK   13  A    between atoms: N_18  and  C_19
REMARK   14  A    between atoms: C_19  and  C_20
REMARK                            x       y       z     vdW  Elec       q    Type
REMARK                         _______ _______ _______ _____ _____    ______ ____
ROOT
ATOM      1  C   UNL     1       1.685  -1.302   6.073  0.00  0.00    +0.173 C 
ENDROOT
BRANCH   1   3
ATOM      2  N   UNL     1       1.398  -2.091   3.747  0.00  0.00    -0.316 N 
ATOM      3  C   UNL     1       2.175  -2.027   4.846  0.00  0.00    +0.223 C 
ATOM      4  O   UNL     1       3.268  -2.552   4.849  0.00  0.00    -0.275 OA
ATOM      5  H   UNL     1       0.524  -1.671   3.745  0.00  0.00    +0.149 HD
BRANCH   2   6
ATOM      6  C   UNL     1       1.875  -2.796   2.554  0.00  0.00    +0.096 C 
BRANCH   6   7
ATOM      7  C   UNL     1       0.869  -2.612   1.416  0.00  0.00    +0.016 C 
BRANCH   7   8
ATOM      8  C   UNL     1       1.409  -3.245   0.160  0.00  0.00    +0.093 A 
ATOM      9  C   UNL     1       0.955  -4.375  -0.410  0.00  0.00    +0.043 A 
ATOM     10  C   UNL     1       1.744  -4.600  -1.561  0.00  0.00    +0.041 A 
ATOM     11  C   UNL     1       2.634  -3.594  -1.626  0.00  0.00    +0.195 A 
ATOM     12  O   UNL     1       2.423  -2.772  -0.584  0.00  0.00    -0.469 OA
ENDBRANCH   7   8
BRANCH   7  13
ATOM     13  N   UNL     1       0.647  -1.178   1.186  0.00  0.00    +0.387 N 
ATOM     14  H   UNL     1       0.239  -0.764   2.011  0.00  0.00    -0.081 HD
BRANCH  13  16
ATOM     15  C   UNL     1       1.724   0.988   0.808  0.00  0.00    -0.017 C 
ATOM     16  C   UNL     1       1.930  -0.525   0.894  0.00  0.00    -0.081 C 
ENDBRANCH  13  16
BRANCH  13  17
ATOM     17  C   UNL     1      -0.264  -1.000   0.048  0.00  0.00    -0.081 C 
ATOM     18  C   UNL     1      -1.644  -1.554   0.407  0.00  0.00    -0.017 C 
ENDBRANCH  13  17
ENDBRANCH   7  13
ENDBRANCH   6   7
ENDBRANCH   2   6
ENDBRANCH   1   3
BRANCH   1  19
ATOM     19  S   UNL     1       2.947  -1.391   7.373  0.00  0.00    -0.077 S 
BRANCH  19  20
ATOM     20  C   UNL     1       2.233  -0.509   8.721  0.00  0.00    +0.193 A 
ATOM     21  N   UNL     1       1.050   0.061   8.740  0.00  0.00    -0.122 NA
ATOM     22  N   UNL     1       0.844   0.617   9.880  0.00  0.00    -0.128 NA
ATOM     23  C   UNL     1       1.886   0.436  10.662  0.00  0.00    +0.172 A 
ATOM     24  N   UNL     1       2.805  -0.297   9.945  0.00  0.00    -0.297 N 
BRANCH  23  25
ATOM     25  C   UNL     1       2.037   0.919  12.044  0.00  0.00    +0.056 A 
ATOM     26  C   UNL     1       1.077   1.377  12.910  0.00  0.00    +0.019 A 
ATOM     27  C   UNL     1       1.461   1.781  14.169  0.00  0.00    +0.008 A 
ATOM     28  C   UNL     1       2.773   1.713  14.515  0.00  0.00    +0.046 A 
ATOM     29  S   UNL     1       3.518   1.054  13.033  0.00  0.00    -0.094 S 
ENDBRANCH  23  25
BRANCH  24  30
ATOM     30  C   UNL     1       4.122  -0.751  10.397  0.00  0.00    +0.161 C 
BRANCH  30  31
ATOM     31  C   UNL     1       4.017  -2.164  10.912  0.00  0.00    -0.028 A 
ATOM     32  C   UNL     1       3.622  -2.397  12.216  0.00  0.00    +0.005 A 
ATOM     33  C   UNL     1       3.525  -3.692  12.688  0.00  0.00    +0.000 A 
ATOM     34  C   UNL     1       3.823  -4.755  11.856  0.00  0.00    +0.000 A 
ATOM     35  C   UNL     1       4.217  -4.522  10.552  0.00  0.00    +0.000 A 
ATOM     36  C   UNL     1       4.310  -3.227  10.078  0.00  0.00    +0.005 A 
ENDBRANCH  30  31
ENDBRANCH  24  30
ENDBRANCH  19  20
ENDBRANCH   1  19
TORSDOF 12
