REMARK  Name = ZINC63589472
REMARK  6 active torsions:
REMARK  status: ('A' for Active; 'I' for Inactive)
REMARK    1  A    between atoms: C_7  and  C_10
REMARK    2  A    between atoms: C_10  and  C_11
REMARK    3  A    between atoms: C_11  and  N_12
REMARK    4  A    between atoms: N_14  and  C_15
REMARK    5  A    between atoms: N_25  and  C_26
REMARK    6  A    between atoms: C_26  and  C_28
REMARK                            x       y       z     vdW  Elec       q    Type
REMARK                         _______ _______ _______ _____ _____    ______ ____
ROOT
ATOM      1  N   UNL     1      -1.836  -4.265  -1.944  0.00  0.00    -0.357 N 
ATOM      2  C   UNL     1      -1.364  -5.233  -2.782  0.00  0.00    +0.194 C 
ATOM      3  N   UNL     1      -1.396  -6.542  -2.399  0.00  0.00    -0.328 N 
ATOM      4  N   UNL     1      -0.875  -4.901  -3.967  0.00  0.00    -0.143 NA
ATOM      5  H   UNL     1      -2.203  -4.509  -1.080  0.00  0.00    +0.162 HD
ATOM      6  H   UNL     1      -1.085  -7.233  -3.005  0.00  0.00    +0.169 HD
ENDROOT
BRANCH   3   7
ATOM      7  C   UNL     1      -1.879  -6.889  -1.131  0.00  0.00    +0.045 A 
ATOM      8  C   UNL     1      -1.631  -6.063  -0.043  0.00  0.00    +0.029 A 
ATOM      9  C   UNL     1      -2.107  -6.406   1.208  0.00  0.00    +0.051 A 
ATOM     10  C   UNL     1      -2.834  -7.574   1.381  0.00  0.00    +0.162 A 
ATOM     11  C   UNL     1      -3.086  -8.402   0.293  0.00  0.00    +0.164 A 
ATOM     12  C   UNL     1      -2.611  -8.056  -0.963  0.00  0.00    +0.075 A 
ATOM     13  O   UNL     1      -3.804  -9.549   0.442  0.00  0.00    -0.485 OA
ATOM     14  C   UNL     1      -3.949 -10.049   1.776  0.00  0.00    +0.270 C 
ATOM     15  C   UNL     1      -4.333  -8.877   2.690  0.00  0.00    +0.270 C 
ATOM     16  O   UNL     1      -3.292  -7.897   2.622  0.00  0.00    -0.485 OA
ENDBRANCH   3   7
BRANCH   4  17
ATOM     17  C   UNL     1      -0.658  -5.847  -4.891  0.00  0.00    +0.270 C 
ATOM     18  O   UNL     1      -1.021  -6.992  -4.687  0.00  0.00    -0.268 OA
BRANCH  17  19
ATOM     19  C   UNL     1       0.021  -5.501  -6.160  0.00  0.00    +0.040 A 
ATOM     20  C   UNL     1       0.539  -4.219  -6.349  0.00  0.00    +0.016 A 
ATOM     21  C   UNL     1       1.172  -3.901  -7.532  0.00  0.00    +0.040 A 
ATOM     22  C   UNL     1       1.294  -4.851  -8.533  0.00  0.00    +0.142 A 
ATOM     23  C   UNL     1       0.781  -6.127  -8.350  0.00  0.00    +0.077 A 
ATOM     24  C   UNL     1       0.152  -6.457  -7.167  0.00  0.00    +0.036 A 
ATOM     25 CL   UNL     1       0.938  -7.313  -9.609  0.00  0.00    -0.081 Cl
ATOM     26  F   UNL     1       1.915  -4.535  -9.690  0.00  0.00    -0.204 F 
ENDBRANCH  17  19
ENDBRANCH   4  17
BRANCH   1  27
ATOM     27  C   UNL     1      -1.790  -2.858  -2.350  0.00  0.00    +0.120 C 
BRANCH  27  28
ATOM     28  C   UNL     1      -2.376  -1.987  -1.237  0.00  0.00    +0.054 C 
BRANCH  28  35
ATOM     29  C   UNL     1      -5.460   0.771  -3.223  0.00  0.00    +0.001 A 
ATOM     30  C   UNL     1      -4.991   2.074  -3.440  0.00  0.00    +0.002 A 
ATOM     31  C   UNL     1      -3.748   2.469  -3.092  0.00  0.00    +0.026 A 
ATOM     32  C   UNL     1      -2.848   1.554  -2.480  0.00  0.00    +0.043 A 
ATOM     33  N   UNL     1      -1.614   1.692  -2.060  0.00  0.00    -0.380 N 
ATOM     34  C   UNL     1      -1.162   0.412  -1.505  0.00  0.00    +0.144 C 
ATOM     35  C   UNL     1      -2.328  -0.540  -1.655  0.00  0.00    -0.040 C 
ATOM     36  C   UNL     1      -3.319   0.171  -2.239  0.00  0.00    -0.001 A 
ATOM     37  C   UNL     1      -4.686  -0.177  -2.647  0.00  0.00    +0.010 A 
ATOM     38  H   UNL     1      -1.087   2.506  -2.108  0.00  0.00    +0.160 HD
ENDBRANCH  28  35
ENDBRANCH  27  28
ENDBRANCH   1  27
TORSDOF 6
