REMARK  Name = ZINC08790628
REMARK  6 active torsions:
REMARK  status: ('A' for Active; 'I' for Inactive)
REMARK    1  A    between atoms: C_1  and  C_2
REMARK    2  A    between atoms: C_2  and  C_3
REMARK    3  A    between atoms: C_14  and  C_16
REMARK    4  A    between atoms: C_16  and  C_17
REMARK    5  A    between atoms: N_22  and  C_25
REMARK    6  A    between atoms: C_25  and  C_26
REMARK                            x       y       z     vdW  Elec       q    Type
REMARK                         _______ _______ _______ _____ _____    ______ ____
ROOT
ATOM      1  C   UNL     1       1.165   3.163   0.008  0.00  0.00    -0.047 A 
ATOM      2  C   UNL     1       1.174   1.780   0.000  0.00  0.00    +0.005 A 
ATOM      3  C   UNL     1      -0.013   1.076   0.008  0.00  0.00    +0.024 A 
ATOM      4  C   UNL     1      -1.230   1.754   0.017  0.00  0.00    +0.036 A 
ATOM      5  C   UNL     1      -1.226   3.145   0.032  0.00  0.00    -0.027 A 
ATOM      6  C   UNL     1      -0.039   3.844   0.023  0.00  0.00    +0.008 A 
ATOM      7  C   UNL     1      -2.670   3.559   0.050  0.00  0.00    +0.050 C 
ATOM      8  C   UNL     1      -3.025   4.429  -1.161  0.00  0.00    +0.088 C 
ATOM      9  C   UNL     1      -4.067   5.447  -0.619  0.00  0.00    +0.073 C 
ATOM     10  C   UNL     1      -4.240   5.082   0.871  0.00  0.00    -0.049 C 
ATOM     11  C   UNL     1      -3.349   6.773  -0.727  0.00  0.00    +0.224 C 
ATOM     12  O   UNL     1      -3.807   7.846  -0.398  0.00  0.00    -0.275 OA
ATOM     13  N   UNL     1      -2.130   6.577  -1.243  0.00  0.00    -0.237 N 
ATOM     14  C   UNL     1      -1.845   5.301  -1.525  0.00  0.00    +0.225 C 
ATOM     15  O   UNL     1      -0.801   4.905  -1.999  0.00  0.00    -0.275 OA
ATOM     16  C   UNL     1      -3.446   2.271   0.048  0.00  0.00    +0.211 C 
ATOM     17  O   UNL     1      -4.654   2.152   0.058  0.00  0.00    -0.277 OA
ATOM     18  N   UNL     1      -2.541   1.274   0.032  0.00  0.00    -0.286 N 
ATOM     19  H   UNL     1      -2.773   0.332   0.028  0.00  0.00    +0.155 HD
ATOM     20  N   UNL     1      -3.004   4.371   1.207  0.00  0.00    +0.394 N 
ATOM     21  H   UNL     1      -2.251   5.042   1.400  0.00  0.00    -0.083 HD
ATOM     22  H   UNL     1      -3.151   3.775   2.030  0.00  0.00    -0.083 HD
ENDROOT
BRANCH   1  24
ATOM     23  C   UNL     1       2.890   4.192  -1.446  0.00  0.00    +0.009 C 
ATOM     24  C   UNL     1       2.464   3.926  -0.001  0.00  0.00    +0.032 C 
ENDBRANCH   1  24
BRANCH  10  25
ATOM     25  C   UNL     1      -4.404   6.348   1.714  0.00  0.00    +0.080 C 
BRANCH  25  26
ATOM     26  C   UNL     1      -4.618   5.966   3.156  0.00  0.00    +0.209 C 
ATOM     27  O   UNL     1      -4.638   4.797   3.478  0.00  0.00    -0.276 OA
ATOM     28  N   UNL     1      -4.788   6.925   4.088  0.00  0.00    -0.329 N 
ATOM     29  H   UNL     1      -4.772   7.860   3.831  0.00  0.00    +0.145 HD
ATOM     30  H   UNL     1      -4.926   6.679   5.017  0.00  0.00    +0.145 HD
ENDBRANCH  25  26
ENDBRANCH  10  25
BRANCH  13  31
ATOM     31  C   UNL     1      -1.185   7.671  -1.479  0.00  0.00    +0.151 C 
BRANCH  31  32
ATOM     32  C   UNL     1      -0.335   7.875  -0.251  0.00  0.00    -0.026 A 
ATOM     33  C   UNL     1       0.855   7.185  -0.113  0.00  0.00    +0.009 A 
ATOM     34  C   UNL     1       1.638   7.368   1.011  0.00  0.00    +0.050 A 
ATOM     35  C   UNL     1       1.231   8.245   2.004  0.00  0.00    +0.166 A 
ATOM     36  C   UNL     1       0.032   8.940   1.865  0.00  0.00    +0.167 A 
ATOM     37  C   UNL     1      -0.745   8.756   0.733  0.00  0.00    +0.054 A 
ATOM     38  O   UNL     1      -0.143   9.732   2.963  0.00  0.00    -0.453 OA
ATOM     39  C   UNL     1       1.154   9.823   3.582  0.00  0.00    +0.466 C 
ATOM     40  O   UNL     1       1.807   8.601   3.189  0.00  0.00    -0.453 OA
ENDBRANCH  31  32
ENDBRANCH  13  31
TORSDOF 5
