REMARK  Name = ZINC14697652
REMARK  10 active torsions:
REMARK  status: ('A' for Active; 'I' for Inactive)
REMARK    1  A    between atoms: C_1  and  C_2
REMARK    2  A    between atoms: C_5  and  C_36
REMARK    3  A    between atoms: C_6  and  C_8
REMARK    4  A    between atoms: N_10  and  C_11
REMARK    5  A    between atoms: N_10  and  C_19
REMARK    6  A    between atoms: C_11  and  C_12
REMARK    7  A    between atoms: C_12  and  C_13
REMARK    8  A    between atoms: C_20  and  N_35
REMARK    9  A    between atoms: N_21  and  C_28
REMARK   10  A    between atoms: C_28  and  C_29
REMARK                            x       y       z     vdW  Elec       q    Type
REMARK                         _______ _______ _______ _____ _____    ______ ____
ROOT
ATOM      1  C   UNL     1      -2.942  -3.175  -1.835  0.00  0.00    +0.251 C 
ATOM      2  O   UNL     1      -3.980  -3.787  -1.997  0.00  0.00    -0.270 OA
ATOM      3  N   UNL     1      -2.969  -1.839  -1.657  0.00  0.00    -0.260 N 
ENDROOT
BRANCH   3   4
ATOM      4  C   UNL     1      -4.203  -1.165  -1.558  0.00  0.00    +0.140 A 
ATOM      5  C   UNL     1      -4.589  -0.261  -2.527  0.00  0.00    +0.128 A 
ATOM      6  N   UNL     1      -5.802   0.377  -2.405  0.00  0.00    -0.276 N 
ATOM      7  C   UNL     1      -6.598   0.129  -1.350  0.00  0.00    +0.331 A 
ATOM      8  O   UNL     1      -7.664   0.707  -1.258  0.00  0.00    -0.246 OA
ATOM      9  N   UNL     1      -6.237  -0.745  -0.394  0.00  0.00    -0.273 N 
ATOM     10  H   UNL     1      -6.847  -0.910   0.381  0.00  0.00    +0.173 HD
ATOM     11  C   UNL     1      -5.062  -1.400  -0.467  0.00  0.00    +0.277 A 
ATOM     12  O   UNL     1      -4.744  -2.190   0.405  0.00  0.00    -0.266 OA
BRANCH   5  13
ATOM     13  N   UNL     1      -3.773  -0.003  -3.602  0.00  0.00    -0.343 N 
ATOM     14  H   UNL     1      -2.958  -0.515  -3.726  0.00  0.00    +0.144 HD
ATOM     15  H   UNL     1      -4.011   0.690  -4.237  0.00  0.00    +0.144 HD
ENDBRANCH   5  13
BRANCH   6  16
ATOM     16  C   UNL     1      -6.226   1.335  -3.429  0.00  0.00    +0.163 C 
BRANCH  16  17
ATOM     17  C   UNL     1      -5.828   2.727  -3.011  0.00  0.00    -0.028 A 
ATOM     18  C   UNL     1      -6.655   3.464  -2.184  0.00  0.00    +0.005 A 
ATOM     19  C   UNL     1      -6.287   4.739  -1.797  0.00  0.00    +0.000 A 
ATOM     20  C   UNL     1      -5.096   5.280  -2.244  0.00  0.00    +0.000 A 
ATOM     21  C   UNL     1      -4.271   4.545  -3.074  0.00  0.00    +0.000 A 
ATOM     22  C   UNL     1      -4.637   3.268  -3.457  0.00  0.00    +0.005 A 
ENDBRANCH  16  17
ENDBRANCH   6  16
ENDBRANCH   3   4
BRANCH   1  28
ATOM     23  C   UNL     1       1.601  -3.894  -3.770  0.00  0.00    +0.044 C 
ATOM     24  C   UNL     1       0.536  -4.245  -2.763  0.00  0.00    -0.050 A 
ATOM     25  C   UNL     1       0.767  -5.244  -1.834  0.00  0.00    +0.003 A 
ATOM     26  C   UNL     1      -0.205  -5.572  -0.906  0.00  0.00    +0.004 A 
ATOM     27  C   UNL     1      -1.410  -4.900  -0.897  0.00  0.00    -0.038 A 
ATOM     28  C   UNL     1      -1.651  -3.895  -1.835  0.00  0.00    +0.040 A 
ATOM     29  C   UNL     1      -0.666  -3.569  -2.769  0.00  0.00    +0.016 A 
ATOM     30  C   UNL     1      -2.465  -5.254   0.119  0.00  0.00    +0.044 C 
ENDBRANCH   1  28
BRANCH   3  31
ATOM     31  C   UNL     1      -1.714  -1.087  -1.566  0.00  0.00    +0.118 C 
BRANCH  31  32
ATOM     32  C   UNL     1      -1.319  -0.930  -0.096  0.00  0.00    +0.050 C 
BRANCH  32  33
ATOM     33  C   UNL     1      -0.029  -0.157  -0.003  0.00  0.00    -0.072 C 
ATOM     34  C   UNL     1      -0.101   1.121   0.189  0.00  0.00    -0.028 C 
ATOM     35  C   UNL     1       1.094   2.024   0.292  0.00  0.00    +0.027 C 
ATOM     36  C   UNL     1       2.354   1.201   0.567  0.00  0.00    +0.004 C 
ATOM     37  C   UNL     1       2.408   0.046  -0.441  0.00  0.00    +0.005 C 
ATOM     38  C   UNL     1       1.258  -0.916  -0.137  0.00  0.00    +0.030 C 
ENDBRANCH  32  33
ENDBRANCH  31  32
ENDBRANCH   3  31
TORSDOF 8
