REMARK  Name = ZINC25736438
REMARK  10 active torsions:
REMARK  status: ('A' for Active; 'I' for Inactive)
REMARK    1  A    between atoms: C_1  and  C_2
REMARK    2  A    between atoms: C_5  and  N_9
REMARK    3  A    between atoms: C_7  and  C_8
REMARK    4  A    between atoms: C_10  and  C_29
REMARK    5  A    between atoms: C_13  and  S_14
REMARK    6  A    between atoms: S_14  and  C_15
REMARK    7  A    between atoms: C_15  and  C_17
REMARK    8  A    between atoms: C_15  and  C_18
REMARK    9  A    between atoms: N_20  and  C_21
REMARK   10  A    between atoms: C_22  and  C_26
REMARK                            x       y       z     vdW  Elec       q    Type
REMARK                         _______ _______ _______ _____ _____    ______ ____
ROOT
ATOM      1  N   UNL     1       2.425   1.141  -0.040  0.00  0.00    -0.270 N 
ATOM      2  C   UNL     1       2.856   0.225  -0.976  0.00  0.00    +0.169 A 
ATOM      3  N   UNL     1       4.027  -0.213  -0.575  0.00  0.00    -0.128 NA
ATOM      4  N   UNL     1       4.355   0.356   0.529  0.00  0.00    -0.122 NA
ATOM      5  C   UNL     1       3.415   1.198   0.902  0.00  0.00    +0.197 A 
ENDROOT
BRANCH   1  10
ATOM      6  C   UNL     1      -2.430   4.079  -0.095  0.00  0.00    +0.044 C 
ATOM      7  C   UNL     1      -1.141   3.299  -0.081  0.00  0.00    -0.047 A 
ATOM      8  C   UNL     1      -1.166   1.928   0.102  0.00  0.00    +0.005 A 
ATOM      9  C   UNL     1       0.014   1.211   0.122  0.00  0.00    +0.026 A 
ATOM     10  C   UNL     1       1.226   1.867  -0.053  0.00  0.00    +0.051 A 
ATOM     11  C   UNL     1       1.247   3.241  -0.243  0.00  0.00    +0.030 A 
ATOM     12  C   UNL     1       0.064   3.954  -0.256  0.00  0.00    -0.046 A 
ATOM     13  C   UNL     1       0.086   5.447  -0.462  0.00  0.00    +0.044 C 
ENDBRANCH   1  10
BRANCH   2  14
ATOM     14  C   UNL     1       2.135  -0.186  -2.198  0.00  0.00    +0.022 A 
ATOM     15  C   UNL     1       2.484  -1.359  -2.879  0.00  0.00    +0.031 A 
ATOM     16  C   UNL     1       1.782  -1.707  -4.013  0.00  0.00    +0.111 A 
ATOM     17  N   UNL     1       0.801  -0.947  -4.463  0.00  0.00    -0.263 NA
ATOM     18  C   UNL     1       0.444   0.169  -3.856  0.00  0.00    +0.111 A 
ATOM     19  C   UNL     1       1.089   0.590  -2.712  0.00  0.00    +0.031 A 
ENDBRANCH   2  14
BRANCH   5  20
ATOM     20  S   UNL     1       3.427   2.207   2.346  0.00  0.00    -0.073 S 
BRANCH  20  21
ATOM     21  C   UNL     1       5.023   1.726   3.051  0.00  0.00    +0.137 C 
ATOM     22  C   UNL     1       6.149   2.163   2.112  0.00  0.00    +0.029 C 
BRANCH  21  23
ATOM     23  C   UNL     1       5.201   2.392   4.392  0.00  0.00    +0.231 C 
ATOM     24  O   UNL     1       4.546   3.373   4.673  0.00  0.00    -0.274 OA
ATOM     25  N   UNL     1       6.088   1.897   5.278  0.00  0.00    -0.278 N 
ATOM     26  H   UNL     1       6.681   1.007   5.023  0.00  0.00    +0.155 HD
BRANCH  25  27
ATOM     27  C   UNL     1       6.251   2.510   6.511  0.00  0.00    +0.084 A 
ATOM     28  C   UNL     1       7.102   2.148   7.549  0.00  0.00    +0.065 A 
ATOM     29  C   UNL     1       7.070   2.974   8.732  0.00  0.00    +0.022 A 
ATOM     30  C   UNL     1       6.216   4.013   8.733  0.00  0.00    +0.048 A 
ATOM     31  S   UNL     1       5.439   3.906   7.134  0.00  0.00    -0.081 S 
BRANCH  28  32
ATOM     32  C   UNL     1       7.991   0.986   7.445  0.00  0.00    +0.244 C 
ATOM     33  O   UNL     1       7.995   0.312   6.432  0.00  0.00    -0.270 OA
ATOM     34  N   UNL     1       8.802   0.665   8.472  0.00  0.00    -0.325 N 
ATOM     35  H   UNL     1       9.469  -0.206   8.394  0.00  0.00    +0.145 HD
ATOM     36  H   UNL     1       8.798   1.275   9.388  0.00  0.00    +0.145 HD
ENDBRANCH  28  32
ENDBRANCH  25  27
ENDBRANCH  21  23
ENDBRANCH  20  21
ENDBRANCH   5  20
TORSDOF 7
