REMARK  Name = ZINC35697366
REMARK  12 active torsions:
REMARK  status: ('A' for Active; 'I' for Inactive)
REMARK    1  A    between atoms: C_1  and  C_2
REMARK    2  A    between atoms: C_3  and  C_27
REMARK    3  A    between atoms: C_4  and  C_20
REMARK    4  A    between atoms: C_7  and  C_12
REMARK    5  A    between atoms: C_13  and  N_15
REMARK    6  A    between atoms: N_15  and  C_16
REMARK    7  A    between atoms: C_16  and  C_17
REMARK    8  A    between atoms: C_17  and  O_18
REMARK    9  A    between atoms: O_18  and  C_19
REMARK   10  A    between atoms: C_27  and  O_29
REMARK   11  A    between atoms: O_29  and  C_30
REMARK   12  A    between atoms: C_30  and  C_31
REMARK                            x       y       z     vdW  Elec       q    Type
REMARK                         _______ _______ _______ _____ _____    ______ ____
ROOT
ATOM      1  C   UNL     1       0.329   1.171   0.884  0.00  0.00    +0.066 C 
ATOM      2  C   UNL     1       0.259  -0.285   0.503  0.00  0.00    +0.053 C 
ATOM      3  C   UNL     1      -0.967  -0.921   0.444  0.00  0.00    +0.082 C 
ATOM      4  C   UNL     1      -0.985  -2.382   0.056  0.00  0.00    +0.150 C 
ATOM      5  N   UNL     1       0.327  -3.022  -0.231  0.00  0.00    -0.267 N 
ATOM      6  C   UNL     1       0.548  -4.334  -0.600  0.00  0.00    +0.048 C 
ATOM      7  C   UNL     1       1.825  -4.718  -0.817  0.00  0.00    +0.072 C 
ATOM      8  S   UNL     1       2.722  -3.212  -0.496  0.00  0.00    -0.060 S 
ATOM      9  C   UNL     1       1.425  -2.217  -0.115  0.00  0.00    +0.166 C 
ATOM     10  N   UNL     1       1.371  -0.945   0.223  0.00  0.00    -0.230 NA
ENDROOT
BRANCH   4  11
ATOM     11  C   UNL     1      -1.640  -3.151   1.175  0.00  0.00    -0.022 A 
ATOM     12  C   UNL     1      -0.956  -3.369   2.356  0.00  0.00    +0.007 A 
ATOM     13  C   UNL     1      -1.556  -4.074   3.383  0.00  0.00    +0.020 A 
ATOM     14  C   UNL     1      -2.842  -4.560   3.228  0.00  0.00    +0.041 A 
ATOM     15  C   UNL     1      -3.526  -4.341   2.045  0.00  0.00    +0.020 A 
ATOM     16  C   UNL     1      -2.927  -3.632   1.022  0.00  0.00    +0.007 A 
ATOM     17 CL   UNL     1      -3.596  -5.446   4.516  0.00  0.00    -0.084 Cl
ENDBRANCH   4  11
BRANCH   6  18
ATOM     18  C   UNL     1      -0.567  -5.281  -0.752  0.00  0.00    +0.091 C 
ATOM     19  C   UNL     1      -0.317  -6.583  -0.986  0.00  0.00    +0.239 C 
ATOM     20  O   UNL     1       0.957  -7.045  -0.958  0.00  0.00    -0.271 OA
BRANCH  19  21
ATOM     21  N   UNL     1      -1.362  -7.451  -1.254  0.00  0.00    -0.310 N 
ATOM     22  H   UNL     1      -2.279  -7.138  -1.201  0.00  0.00    +0.149 HD
BRANCH  21  23
ATOM     23  C   UNL     1      -1.084  -8.843  -1.618  0.00  0.00    +0.132 C 
BRANCH  23  24
ATOM     24  C   UNL     1      -2.393  -9.546  -1.983  0.00  0.00    +0.178 C 
BRANCH  24  25
ATOM     25  O   UNL     1      -2.942  -8.950  -3.159  0.00  0.00    -0.381 OA
ATOM     26  C   UNL     1      -4.173  -9.537  -3.588  0.00  0.00    +0.194 C 
ENDBRANCH  24  25
ENDBRANCH  23  24
ENDBRANCH  21  23
ENDBRANCH  19  21
ENDBRANCH   6  18
BRANCH   3  27
ATOM     27  C   UNL     1      -2.152  -0.234   0.733  0.00  0.00    +0.339 C 
ATOM     28  O   UNL     1      -2.114   0.944   1.043  0.00  0.00    -0.245 OA
BRANCH  27  29
ATOM     29  O   UNL     1      -3.339  -0.878   0.667  0.00  0.00    -0.457 OA
BRANCH  29  30
ATOM     30  C   UNL     1      -4.508  -0.116   0.975  0.00  0.00    +0.259 C 
BRANCH  30  31
ATOM     31  C   UNL     1      -5.727  -0.994   0.850  0.00  0.00    +0.006 C 
ATOM     32  C   UNL     1      -6.654  -0.962   1.775  0.00  0.00    +0.007 C 
ENDBRANCH  30  31
ENDBRANCH  29  30
ENDBRANCH  27  29
ENDBRANCH   3  27
TORSDOF 10
