REMARK  Name = ZINC59061006
REMARK  10 active torsions:
REMARK  status: ('A' for Active; 'I' for Inactive)
REMARK    1  A    between atoms: C_1  and  C_2
REMARK    2  A    between atoms: C_5  and  C_37
REMARK    3  A    between atoms: N_8  and  C_10
REMARK    4  A    between atoms: C_10  and  C_11
REMARK    5  A    between atoms: C_16  and  C_17
REMARK    6  A    between atoms: C_17  and  N_18
REMARK    7  A    between atoms: C_19  and  C_21
REMARK    8  A    between atoms: C_21  and  N_22
REMARK    9  A    between atoms: C_25  and  C_29
REMARK   10  A    between atoms: C_25  and  C_30
REMARK                            x       y       z     vdW  Elec       q    Type
REMARK                         _______ _______ _______ _____ _____    ______ ____
ROOT
ATOM      1  N   UNL     1       1.148  -2.905   4.014  0.00  0.00    -0.310 N 
ATOM      2  C   UNL     1       0.815  -4.160   3.653  0.00  0.00    +0.231 C 
ATOM      3  O   UNL     1      -0.072  -4.344   2.847  0.00  0.00    -0.274 OA
ATOM      4  H   UNL     1       1.858  -2.758   4.659  0.00  0.00    +0.149 HD
ENDROOT
BRANCH   1   5
ATOM      5  C   UNL     1       0.437  -1.763   3.434  0.00  0.00    +0.139 C 
BRANCH   5  11
ATOM      6  C   UNL     1       2.180   0.032   3.384  0.00  0.00    -0.059 A 
ATOM      7  C   UNL     1       2.723   1.211   3.861  0.00  0.00    +0.002 A 
ATOM      8  C   UNL     1       2.122   1.871   4.916  0.00  0.00    +0.000 A 
ATOM      9  C   UNL     1       0.977   1.354   5.494  0.00  0.00    +0.000 A 
ATOM     10  C   UNL     1       0.434   0.177   5.016  0.00  0.00    +0.005 A 
ATOM     11  C   UNL     1       1.033  -0.482   3.958  0.00  0.00    -0.029 A 
BRANCH   6  12
ATOM     12  C   UNL     1       2.836  -0.688   2.234  0.00  0.00    -0.043 C 
BRANCH  12  18
ATOM     13  C   UNL     1       4.773  -3.151   5.061  0.00  0.00    +0.005 C 
ATOM     14  C   UNL     1       5.643  -2.303   4.131  0.00  0.00    -0.031 C 
ATOM     15  C   UNL     1       6.202  -3.183   3.010  0.00  0.00    +0.003 C 
ATOM     16  C   UNL     1       5.040  -3.725   2.172  0.00  0.00    -0.031 C 
ATOM     17  C   UNL     1       4.217  -2.553   1.633  0.00  0.00    -0.075 C 
ATOM     18  N   UNL     1       3.689  -1.765   2.754  0.00  0.00    +0.383 N 
ATOM     19  C   UNL     1       4.797  -1.183   3.521  0.00  0.00    -0.075 C 
ATOM     20  C   UNL     1       5.592  -4.543   1.002  0.00  0.00    +0.005 C 
ATOM     21  H   UNL     1       3.143  -2.363   3.356  0.00  0.00    -0.081 HD
ENDBRANCH  12  18
ENDBRANCH   6  12
ENDBRANCH   5  11
ENDBRANCH   1   5
BRANCH   2  22
ATOM     22  C   UNL     1       1.546  -5.335   4.250  0.00  0.00    +0.213 C 
BRANCH  22  23
ATOM     23  N   UNL     1       1.003  -6.580   3.699  0.00  0.00    -0.215 N 
ATOM     24  C   UNL     1      -0.026  -7.261   4.241  0.00  0.00    +0.251 C 
ATOM     25  O   UNL     1      -0.652  -6.972   5.238  0.00  0.00    -0.272 OA
ATOM     26  C   UNL     1      -0.237  -8.465   3.344  0.00  0.00    +0.135 C 
ATOM     27  N   UNL     1       0.794  -8.307   2.304  0.00  0.00    -0.281 N 
ATOM     28  C   UNL     1       1.463  -7.176   2.594  0.00  0.00    +0.310 C 
ATOM     29  O   UNL     1       2.384  -6.747   1.927  0.00  0.00    -0.252 OA
ATOM     30  C   UNL     1      -0.019  -9.763   4.125  0.00  0.00    +0.047 C 
ATOM     31  H   UNL     1       0.957  -8.900   1.554  0.00  0.00    +0.152 HD
BRANCH  26  32
ATOM     32  C   UNL     1      -1.615  -8.436   2.734  0.00  0.00    -0.015 A 
ATOM     33  C   UNL     1      -2.660  -7.841   3.416  0.00  0.00    +0.009 A 
ATOM     34  C   UNL     1      -3.923  -7.814   2.857  0.00  0.00    +0.039 A 
ATOM     35  C   UNL     1      -4.143  -8.383   1.615  0.00  0.00    +0.123 A 
ATOM     36  C   UNL     1      -3.096  -8.979   0.933  0.00  0.00    +0.039 A 
ATOM     37  C   UNL     1      -1.831  -9.001   1.491  0.00  0.00    +0.009 A 
ATOM     38  F   UNL     1      -5.378  -8.357   1.068  0.00  0.00    -0.205 F 
ENDBRANCH  26  32
ENDBRANCH  22  23
ENDBRANCH   2  22
TORSDOF 7
