REMARK  Name = ZINC63395168
REMARK  17 active torsions:
REMARK  status: ('A' for Active; 'I' for Inactive)
REMARK    1  A    between atoms: C_1  and  C_2
REMARK    2  A    between atoms: C_2  and  C_3
REMARK    3  A    between atoms: C_2  and  C_4
REMARK    4  A    between atoms: C_2  and  C_5
REMARK    5  A    between atoms: C_7  and  C_16
REMARK    6  A    between atoms: C_9  and  C_12
REMARK    7  A    between atoms: C_10  and  O_11
REMARK    8  A    between atoms: C_12  and  C_13
REMARK    9  A    between atoms: C_12  and  C_14
REMARK   10  A    between atoms: C_12  and  C_15
REMARK   11  A    between atoms: C_16  and  C_17
REMARK   12  A    between atoms: C_17  and  C_18
REMARK   13  A    between atoms: N_20  and  C_21
REMARK   14  A    between atoms: C_21  and  C_22
REMARK   15  A    between atoms: C_22  and  C_23
REMARK   16  A    between atoms: C_26  and  O_32
REMARK   17  A    between atoms: O_32  and  C_33
REMARK                            x       y       z     vdW  Elec       q    Type
REMARK                         _______ _______ _______ _____ _____    ______ ____
ROOT
ATOM      1  C   UNL     1       3.861   1.311  -3.894  0.00  0.00    +0.100 C 
ENDROOT
BRANCH   1   2
ATOM      2  C   UNL     1       4.415   2.305  -4.881  0.00  0.00    +0.213 C 
ATOM      3  O   UNL     1       3.724   2.700  -5.797  0.00  0.00    -0.276 OA
ATOM      4  N   UNL     1       5.678   2.756  -4.748  0.00  0.00    -0.315 N 
ATOM      5  H   UNL     1       6.231   2.440  -4.016  0.00  0.00    +0.149 HD
BRANCH   4   6
ATOM      6  C   UNL     1       6.217   3.722  -5.708  0.00  0.00    +0.108 C 
BRANCH   6   7
ATOM      7  C   UNL     1       7.659   4.065  -5.331  0.00  0.00    +0.052 C 
BRANCH   7   8
ATOM      8  C   UNL     1       8.213   5.059  -6.319  0.00  0.00    -0.040 C 
ATOM      9  C   UNL     1       8.246   6.405  -6.187  0.00  0.00    +0.002 A 
ATOM     10  C   UNL     1       7.792   7.312  -5.128  0.00  0.00    +0.055 A 
ATOM     11  C   UNL     1       7.960   8.648  -5.277  0.00  0.00    +0.121 A 
ATOM     12  C   UNL     1       8.559   9.207  -6.419  0.00  0.00    +0.047 A 
ATOM     13  C   UNL     1       9.007   8.454  -7.447  0.00  0.00    +0.029 A 
ATOM     14  C   UNL     1       8.876   6.995  -7.391  0.00  0.00    +0.043 A 
ATOM     15  N   UNL     1       9.220   6.052  -8.232  0.00  0.00    -0.380 N 
ATOM     16  C   UNL     1       8.852   4.754  -7.656  0.00  0.00    +0.144 C 
ATOM     17  H   UNL     1       9.649   6.188  -9.092  0.00  0.00    +0.160 HD
BRANCH  11  18
ATOM     18  O   UNL     1       7.535   9.477  -4.287  0.00  0.00    -0.495 OA
ATOM     19  C   UNL     1       7.731  10.879  -4.485  0.00  0.00    +0.277 C 
ENDBRANCH  11  18
ENDBRANCH   7   8
ENDBRANCH   6   7
ENDBRANCH   4   6
ENDBRANCH   1   2
BRANCH   1  20
ATOM     20  C   UNL     1       2.418   0.968  -4.270  0.00  0.00    +0.044 C 
BRANCH  20  23
ATOM     21  C   UNL     1       0.707  -0.490  -1.238  0.00  0.00    -0.000 A 
ATOM     22  C   UNL     1       1.217   0.419  -2.145  0.00  0.00    +0.011 A 
ATOM     23  C   UNL     1       1.864  -0.026  -3.283  0.00  0.00    -0.046 A 
ATOM     24  C   UNL     1       2.003  -1.382  -3.516  0.00  0.00    +0.011 A 
ATOM     25  C   UNL     1       1.496  -2.295  -2.612  0.00  0.00    -0.000 A 
ATOM     26  C   UNL     1       0.851  -1.851  -1.467  0.00  0.00    +0.124 A 
BRANCH  21  28
ATOM     27  C   UNL     1      -0.019   1.526   0.010  0.00  0.00    +0.015 C 
ATOM     28  C   UNL     1       0.002  -0.004   0.002  0.00  0.00    -0.009 C 
ATOM     29  C   UNL     1       0.742  -0.511   1.242  0.00  0.00    +0.015 C 
ATOM     30  C   UNL     1      -1.433  -0.534   0.013  0.00  0.00    +0.015 C 
ENDBRANCH  21  28
BRANCH  25  31
ATOM     31  C   UNL     1       1.648  -3.773  -2.867  0.00  0.00    -0.009 C 
ATOM     32  C   UNL     1       2.396  -3.989  -4.184  0.00  0.00    +0.015 C 
ATOM     33  C   UNL     1       2.438  -4.409  -1.722  0.00  0.00    +0.015 C 
ATOM     34  C   UNL     1       0.264  -4.420  -2.953  0.00  0.00    +0.015 C 
ENDBRANCH  25  31
BRANCH  26  35
ATOM     35  O   UNL     1       0.356  -2.747  -0.573  0.00  0.00    -0.506 OA
ATOM     36  H   UNL     1      -0.556  -3.015  -0.749  0.00  0.00    +0.292 HD
ENDBRANCH  26  35
ENDBRANCH  20  23
ENDBRANCH   1  20
TORSDOF 10
