REMARK  Name = ZINC08972282
REMARK  11 active torsions:
REMARK  status: ('A' for Active; 'I' for Inactive)
REMARK    1  A    between atoms: C_1  and  C_2
REMARK    2  A    between atoms: C_9  and  C_18
REMARK    3  A    between atoms: C_12  and  C_14
REMARK    4  A    between atoms: C_14  and  C_15
REMARK    5  A    between atoms: C_15  and  S_16
REMARK    6  A    between atoms: S_16  and  C_17
REMARK    7  A    between atoms: N_20  and  C_21
REMARK    8  A    between atoms: C_23  and  O_29
REMARK    9  A    between atoms: C_26  and  O_27
REMARK   10  A    between atoms: O_27  and  C_28
REMARK   11  A    between atoms: O_29  and  C_30
REMARK                            x       y       z     vdW  Elec       q    Type
REMARK                         _______ _______ _______ _____ _____    ______ ____
ROOT
ATOM      1  C   UNL     1      -6.517  -4.663  -3.396  0.00  0.00    +0.044 C 
ATOM      2  C   UNL     1      -5.138  -4.428  -2.834  0.00  0.00    -0.050 A 
ATOM      3  C   UNL     1      -4.029  -4.947  -3.477  0.00  0.00    +0.005 A 
ATOM      4  C   UNL     1      -2.765  -4.734  -2.968  0.00  0.00    +0.024 A 
ATOM      5  C   UNL     1      -2.597  -3.994  -1.799  0.00  0.00    +0.036 A 
ATOM      6  C   UNL     1      -3.719  -3.478  -1.161  0.00  0.00    -0.027 A 
ATOM      7  C   UNL     1      -4.979  -3.692  -1.673  0.00  0.00    +0.008 A 
ATOM      8  C   UNL     1      -3.207  -2.744   0.049  0.00  0.00    +0.049 C 
ATOM      9  C   UNL     1      -3.594  -1.261  -0.001  0.00  0.00    +0.076 C 
ATOM     10  C   UNL     1      -4.425  -1.024   1.283  0.00  0.00    -0.004 C 
ATOM     11  C   UNL     1      -4.916  -2.448   1.646  0.00  0.00    -0.068 C 
ATOM     12  C   UNL     1      -1.711  -2.912  -0.004  0.00  0.00    +0.211 C 
ATOM     13  O   UNL     1      -0.905  -2.471   0.788  0.00  0.00    -0.277 OA
ATOM     14  N   UNL     1      -1.440  -3.646  -1.099  0.00  0.00    -0.286 N 
ATOM     15  H   UNL     1      -0.545  -3.904  -1.370  0.00  0.00    +0.155 HD
ATOM     16  N   UNL     1      -3.768  -3.291   1.276  0.00  0.00    +0.394 N 
ATOM     17  H   UNL     1      -3.064  -3.273   2.023  0.00  0.00    -0.083 HD
ATOM     18  H   UNL     1      -4.078  -4.257   1.120  0.00  0.00    -0.083 HD
ENDROOT
BRANCH   9  19
ATOM     19  C   UNL     1      -2.360  -0.396   0.006  0.00  0.00    +0.220 C 
ATOM     20  O   UNL     1      -1.839  -0.091   1.058  0.00  0.00    -0.275 OA
ATOM     21  N   UNL     1      -1.835   0.038  -1.157  0.00  0.00    -0.282 N 
ATOM     22  H   UNL     1      -2.295  -0.138  -1.993  0.00  0.00    +0.155 HD
BRANCH  21  23
ATOM     23  C   UNL     1      -0.624   0.743  -1.159  0.00  0.00    +0.079 A 
ATOM     24  C   UNL     1       0.282   0.571  -0.123  0.00  0.00    +0.072 A 
ATOM     25  C   UNL     1       1.482   1.264  -0.131  0.00  0.00    +0.122 A 
ATOM     26  C   UNL     1       1.775   2.134  -1.171  0.00  0.00    +0.049 A 
ATOM     27  C   UNL     1       0.872   2.311  -2.202  0.00  0.00    +0.051 A 
ATOM     28  C   UNL     1      -0.330   1.621  -2.199  0.00  0.00    +0.141 A 
BRANCH  28  29
ATOM     29  O   UNL     1      -1.218   1.797  -3.214  0.00  0.00    -0.493 OA
ATOM     30  C   UNL     1      -0.848   2.708  -4.250  0.00  0.00    +0.277 C 
ENDBRANCH  28  29
BRANCH  25  31
ATOM     31  O   UNL     1       2.373   1.092   0.882  0.00  0.00    -0.495 OA
ATOM     32  C   UNL     1       3.590   1.839   0.810  0.00  0.00    +0.277 C 
ENDBRANCH  25  31
ENDBRANCH  21  23
ENDBRANCH   9  19
BRANCH  11  33
ATOM     33  C   UNL     1      -5.223  -2.548   3.142  0.00  0.00    -0.005 C 
BRANCH  33  34
ATOM     34  C   UNL     1      -5.714  -3.960   3.469  0.00  0.00    +0.067 C 
BRANCH  34  35
ATOM     35  S   UNL     1      -6.077  -4.079   5.242  0.00  0.00    -0.164 S 
ATOM     36  C   UNL     1      -6.639  -5.789   5.461  0.00  0.00    +0.084 C 
ENDBRANCH  34  35
ENDBRANCH  33  34
ENDBRANCH  11  33
TORSDOF 7
