REMARK  Name = ZINC53071533
REMARK  8 active torsions:
REMARK  status: ('A' for Active; 'I' for Inactive)
REMARK    1  A    between atoms: C_1  and  C_2
REMARK    2  A    between atoms: C_2  and  C_3
REMARK    3  A    between atoms: C_3  and  C_4
REMARK    4  A    between atoms: C_3  and  C_6
REMARK    5  A    between atoms: C_3  and  N_8
REMARK    6  A    between atoms: C_4  and  C_5
REMARK    7  A    between atoms: C_6  and  O_7
REMARK    8  A    between atoms: C_9  and  C_11
REMARK                            x       y       z     vdW  Elec       q    Type
REMARK                         _______ _______ _______ _____ _____    ______ ____
ROOT
ATOM      1  N   UNL     1      -2.142  -0.048  -1.174  0.00  0.00    -0.304 N 
ATOM      2  C   UNL     1      -1.689  -0.361  -2.404  0.00  0.00    +0.247 C 
ATOM      3  O   UNL     1      -0.691  -1.046  -2.529  0.00  0.00    -0.270 OA
ATOM      4  H   UNL     1      -2.937   0.498  -1.075  0.00  0.00    +0.150 HD
ENDROOT
BRANCH   2   5
ATOM      5  C   UNL     1      -2.399   0.126  -3.594  0.00  0.00    +0.062 A 
ATOM      6  C   UNL     1      -3.520   0.902  -3.615  0.00  0.00    +0.096 A 
ATOM      7  N   UNL     1      -3.884   1.148  -4.897  0.00  0.00    -0.360 N 
ATOM      8  H   UNL     1      -4.651   1.679  -5.162  0.00  0.00    +0.165 HD
ATOM      9  C   UNL     1      -3.008   0.537  -5.771  0.00  0.00    +0.048 A 
ATOM     10  C   UNL     1      -2.038  -0.124  -5.002  0.00  0.00    +0.013 A 
ATOM     11  C   UNL     1      -1.012  -0.830  -5.626  0.00  0.00    +0.027 A 
ATOM     12  C   UNL     1      -0.953  -0.872  -7.003  0.00  0.00    +0.033 A 
ATOM     13  C   UNL     1      -1.910  -0.215  -7.765  0.00  0.00    +0.034 A 
ATOM     14  C   UNL     1      -2.935   0.479  -7.159  0.00  0.00    +0.042 A 
ATOM     15 BR   UNL     1      -1.812  -0.284  -9.653  0.00  0.00    -0.049 Br
ATOM     16 BR   UNL     1       0.438  -1.828  -7.856  0.00  0.00    -0.049 Br
ENDBRANCH   2   5
BRANCH   1  17
ATOM     17  C   UNL     1      -1.433  -0.534   0.013  0.00  0.00    +0.057 C 
BRANCH  17  19
ATOM     18  C   UNL     1      -0.019   1.526   0.010  0.00  0.00    +0.006 C 
ATOM     19  C   UNL     1       0.002  -0.004   0.002  0.00  0.00    +0.024 C 
ENDBRANCH  17  19
BRANCH  17  20
ATOM     20  C   UNL     1      -1.413  -2.063   0.004  0.00  0.00    +0.024 C 
ATOM     21  C   UNL     1      -2.844  -2.592  -0.110  0.00  0.00    +0.006 C 
ENDBRANCH  17  20
BRANCH  17  22
ATOM     22  C   UNL     1      -2.149  -0.040   1.272  0.00  0.00    +0.181 C 
BRANCH  22  23
ATOM     23  O   UNL     1      -1.458  -0.514   2.429  0.00  0.00    -0.393 OA
ATOM     24  H   UNL     1      -1.858  -0.238   3.266  0.00  0.00    +0.209 HD
ENDBRANCH  22  23
ENDBRANCH  17  22
ENDBRANCH   1  17
TORSDOF 6
