REMARK  Name = ZINC39684127
REMARK  9 active torsions:
REMARK  status: ('A' for Active; 'I' for Inactive)
REMARK    1  A    between atoms: C_1  and  C_2
REMARK    2  A    between atoms: C_7  and  C_11
REMARK    3  A    between atoms: C_11  and  C_12
REMARK    4  A    between atoms: C_12  and  N_13
REMARK    5  A    between atoms: C_14  and  C_16
REMARK    6  A    between atoms: C_27  and  C_29
REMARK    7  A    between atoms: C_29  and  C_31
REMARK    8  A    between atoms: C_29  and  O_32
REMARK    9  A    between atoms: O_32  and  C_33
REMARK                            x       y       z     vdW  Elec       q    Type
REMARK                         _______ _______ _______ _____ _____    ______ ____
ROOT
ATOM      1  C   UNL     1      -8.677   1.744  -6.179  0.00  0.00    +0.100 C 
ATOM      2  C   UNL     1      -9.916   2.147  -5.348  0.00  0.00    +0.121 C 
ATOM      3  N   UNL     1     -11.072   1.688  -6.153  0.00  0.00    -0.297 N 
ATOM      4  C   UNL     1     -10.642   0.380  -6.703  0.00  0.00    +0.115 C 
ATOM      5  C   UNL     1      -9.158   0.583  -7.066  0.00  0.00    -0.004 C 
ATOM      6  C   UNL     1      -8.362  -0.682  -6.759  0.00  0.00    -0.010 C 
ATOM      7  C   UNL     1      -8.818  -1.806  -7.694  0.00  0.00    -0.082 C 
ATOM      8  N   UNL     1      -8.609  -1.400  -9.088  0.00  0.00    +0.379 N 
ATOM      9  C   UNL     1      -9.449  -0.238  -9.403  0.00  0.00    -0.082 C 
ATOM     10  C   UNL     1      -9.020   0.953  -8.540  0.00  0.00    -0.010 C 
ATOM     11  C   UNL     1     -12.249   2.317  -6.342  0.00  0.00    +0.256 C 
ATOM     12  O   UNL     1     -12.417   3.434  -5.901  0.00  0.00    -0.272 OA
ATOM     13  H   UNL     1      -7.639  -1.159  -9.226  0.00  0.00    -0.086 HD
ATOM     14  H   UNL     1      -8.852  -2.164  -9.700  0.00  0.00    -0.086 HD
ENDROOT
BRANCH   1  16
ATOM     15  N   UNL     1      -6.290   1.295  -5.711  0.00  0.00    -0.315 N 
ATOM     16  C   UNL     1      -7.564   1.285  -5.272  0.00  0.00    +0.218 C 
ATOM     17  O   UNL     1      -7.815   0.906  -4.148  0.00  0.00    -0.275 OA
ATOM     18  H   UNL     1      -6.089   1.598  -6.611  0.00  0.00    +0.149 HD
BRANCH  15  19
ATOM     19  C   UNL     1      -5.208   0.849  -4.830  0.00  0.00    +0.109 C 
BRANCH  19  20
ATOM     20  C   UNL     1      -3.872   0.960  -5.567  0.00  0.00    +0.056 C 
BRANCH  20  27
ATOM     21  C   UNL     1       0.513  -1.939  -2.147  0.00  0.00    +0.046 C 
ATOM     22  C   UNL     1      -0.620  -1.988  -3.139  0.00  0.00    -0.027 A 
ATOM     23  C   UNL     1      -1.031  -3.196  -3.661  0.00  0.00    +0.005 A 
ATOM     24  C   UNL     1      -2.073  -3.254  -4.575  0.00  0.00    +0.001 A 
ATOM     25  C   UNL     1      -2.711  -2.113  -4.975  0.00  0.00    +0.010 A 
ATOM     26  C   UNL     1      -2.312  -0.879  -4.459  0.00  0.00    +0.003 A 
ATOM     27  C   UNL     1      -2.759   0.501  -4.660  0.00  0.00    -0.021 A 
ATOM     28  C   UNL     1      -1.989   1.280  -3.884  0.00  0.00    +0.087 A 
ATOM     29  N   UNL     1      -1.085   0.512  -3.203  0.00  0.00    -0.360 N 
ATOM     30  C   UNL     1      -1.259  -0.815  -3.528  0.00  0.00    +0.050 A 
ATOM     31  H   UNL     1      -0.422   0.850  -2.580  0.00  0.00    +0.165 HD
ENDBRANCH  20  27
ENDBRANCH  19  20
ENDBRANCH  15  19
ENDBRANCH   1  16
BRANCH  11  32
ATOM     32  C   UNL     1     -13.356   1.633  -7.102  0.00  0.00    +0.256 C 
ATOM     33  C   UNL     1     -13.886   0.456  -6.281  0.00  0.00    +0.062 C 
BRANCH  32  34
ATOM     34  O   UNL     1     -14.415   2.562  -7.342  0.00  0.00    -0.480 OA
BRANCH  34  35
ATOM     35  C   UNL     1     -15.221   2.317  -8.408  0.00  0.00    +0.122 A 
ATOM     36  C   UNL     1     -16.189   3.241  -8.774  0.00  0.00    +0.045 A 
ATOM     37  C   UNL     1     -17.007   2.990  -9.858  0.00  0.00    +0.004 A 
ATOM     38  C   UNL     1     -16.863   1.818 -10.578  0.00  0.00    +0.000 A 
ATOM     39  C   UNL     1     -15.899   0.895 -10.216  0.00  0.00    +0.004 A 
ATOM     40  C   UNL     1     -15.074   1.145  -9.136  0.00  0.00    +0.045 A 
ENDBRANCH  34  35
ENDBRANCH  32  34
ENDBRANCH  11  32
TORSDOF 7
