REMARK  Name = ZINC16009688
REMARK  11 active torsions:
REMARK  status: ('A' for Active; 'I' for Inactive)
REMARK    1  A    between atoms: C_1  and  C_2
REMARK    2  A    between atoms: C_2  and  N_3
REMARK    3  A    between atoms: N_3  and  C_4
REMARK    4  A    between atoms: N_3  and  C_6
REMARK    5  A    between atoms: C_4  and  C_5
REMARK    6  A    between atoms: C_9  and  C_12
REMARK    7  A    between atoms: C_20  and  O_33
REMARK    8  A    between atoms: C_23  and  C_24
REMARK    9  A    between atoms: C_23  and  N_69
REMARK   10  A    between atoms: N_26  and  C_27
REMARK   11  A    between atoms: C_27  and  C_28
REMARK                            x       y       z     vdW  Elec       q    Type
REMARK                         _______ _______ _______ _____ _____    ______ ____
ROOT
ATOM      1  C   UNL     1      -2.052  -3.067   0.191  0.00  0.00    -0.031 C 
ATOM      2  C   UNL     1      -1.612  -4.527   0.044  0.00  0.00    +0.011 C 
ATOM      3  C   UNL     1      -1.012  -4.732  -1.349  0.00  0.00    +0.005 C 
ATOM      4  C   UNL     1      -0.543  -6.180  -1.497  0.00  0.00    +0.000 C 
ATOM      5  C   UNL     1       0.522  -6.480  -0.440  0.00  0.00    +0.003 C 
ATOM      6  C   UNL     1      -0.077  -6.281   0.954  0.00  0.00    +0.035 C 
ATOM      7  C   UNL     1      -0.554  -4.838   1.106  0.00  0.00    +0.066 C 
ATOM      8  C   UNL     1       0.627  -3.881   0.935  0.00  0.00    +0.016 C 
ATOM      9  C   UNL     1       0.128  -2.438   1.048  0.00  0.00    -0.075 C 
ATOM     10  N   UNL     1      -0.876  -2.192  -0.010  0.00  0.00    +0.390 N 
ATOM     11  H   UNL     1      -0.457  -2.404  -0.923  0.00  0.00    -0.080 HD
ENDROOT
BRANCH   1  15
ATOM     12  C   UNL     1      -4.984  -2.155  -2.782  0.00  0.00    +0.030 A 
ATOM     13  C   UNL     1      -5.377  -2.440  -1.481  0.00  0.00    +0.023 A 
ATOM     14  C   UNL     1      -4.427  -2.734  -0.522  0.00  0.00    +0.004 A 
ATOM     15  C   UNL     1      -3.086  -2.745  -0.857  0.00  0.00    -0.060 A 
ATOM     16  C   UNL     1      -2.690  -2.457  -2.150  0.00  0.00    +0.004 A 
ATOM     17  C   UNL     1      -3.635  -2.167  -3.115  0.00  0.00    +0.023 A 
BRANCH  12  18
ATOM     18  N   UNL     1      -5.942  -1.856  -3.753  0.00  0.00    -0.330 N 
BRANCH  18  20
ATOM     19  C   UNL     1      -5.476  -2.851  -5.939  0.00  0.00    +0.024 C 
ATOM     20  C   UNL     1      -5.525  -1.556  -5.125  0.00  0.00    +0.102 C 
ENDBRANCH  18  20
BRANCH  18  21
ATOM     21  C   UNL     1      -7.364  -1.843  -3.401  0.00  0.00    +0.102 C 
ATOM     22  C   UNL     1      -7.763  -0.439  -2.942  0.00  0.00    +0.024 C 
ENDBRANCH  18  21
ENDBRANCH  12  18
ENDBRANCH   1  15
BRANCH   7  23
ATOM     23  O   UNL     1      -1.120  -4.660   2.406  0.00  0.00    -0.388 OA
ATOM     24  H   UNL     1      -0.506  -4.840   3.131  0.00  0.00    +0.210 HD
ENDBRANCH   7  23
BRANCH  10  25
ATOM     25  C   UNL     1      -1.293  -0.775   0.010  0.00  0.00    +0.019 C 
BRANCH  25  26
ATOM     26  C   UNL     1      -1.859  -0.407   1.357  0.00  0.00    +0.197 C 
ATOM     27  O   UNL     1      -2.014  -1.262   2.204  0.00  0.00    -0.278 OA
ATOM     28  N   UNL     1      -2.194   0.871   1.621  0.00  0.00    -0.310 N 
ATOM     29  H   UNL     1      -2.066   1.555   0.946  0.00  0.00    +0.149 HD
BRANCH  28  30
ATOM     30  C   UNL     1      -2.745   1.229   2.931  0.00  0.00    +0.178 C 
BRANCH  30  31
ATOM     31  C   UNL     1      -3.032   2.708   2.968  0.00  0.00    +0.122 A 
ATOM     32  C   UNL     1      -4.191   3.293   2.614  0.00  0.00    +0.046 A 
ATOM     33  C   UNL     1      -4.022   4.683   2.804  0.00  0.00    +0.041 A 
ATOM     34  C   UNL     1      -2.771   4.865   3.263  0.00  0.00    +0.195 A 
ATOM     35  O   UNL     1      -2.178   3.664   3.365  0.00  0.00    -0.466 OA
ENDBRANCH  30  31
ENDBRANCH  28  30
ENDBRANCH  25  26
ENDBRANCH  10  25
TORSDOF 9
