REMARK  Name = ZINC16504132
REMARK  11 active torsions:
REMARK  status: ('A' for Active; 'I' for Inactive)
REMARK    1  A    between atoms: C_1  and  C_2
REMARK    2  A    between atoms: C_2  and  C_3
REMARK    3  A    between atoms: C_2  and  C_4
REMARK    4  A    between atoms: C_2  and  C_5
REMARK    5  A    between atoms: C_8  and  C_11
REMARK    6  A    between atoms: C_21  and  C_23
REMARK    7  A    between atoms: C_23  and  N_24
REMARK    8  A    between atoms: N_24  and  C_25
REMARK    9  A    between atoms: C_25  and  C_26
REMARK   10  A    between atoms: C_28  and  C_30
REMARK   11  A    between atoms: C_34  and  N_36
REMARK                            x       y       z     vdW  Elec       q    Type
REMARK                         _______ _______ _______ _____ _____    ______ ____
ROOT
ATOM      1  C   UNL     1       5.945  -1.601   3.044  0.00  0.00    +0.137 C 
ATOM      2  C   UNL     1       7.368  -1.055   3.138  0.00  0.00    -0.012 A 
ATOM      3  C   UNL     1       8.024  -0.838   4.349  0.00  0.00    +0.013 A 
ATOM      4  C   UNL     1       9.288  -0.355   4.357  0.00  0.00    +0.046 A 
ATOM      5  S   UNL     1       9.624  -0.176   2.612  0.00  0.00    -0.101 S 
ATOM      6  C   UNL     1       8.061  -0.755   2.006  0.00  0.00    -0.003 A 
ATOM      7  C   UNL     1       7.604  -0.882   0.589  0.00  0.00    +0.062 C 
ATOM      8  C   UNL     1       6.361  -1.792   0.552  0.00  0.00    +0.114 C 
ATOM      9  N   UNL     1       5.480  -1.405   1.664  0.00  0.00    -0.289 N 
ATOM     10  C   UNL     1       4.261  -0.884   1.421  0.00  0.00    +0.234 C 
ATOM     11  O   UNL     1       3.539  -0.573   2.345  0.00  0.00    -0.274 OA
ENDROOT
BRANCH   1  15
ATOM     12  C   UNL     1       5.925  -5.764   4.001  0.00  0.00    -0.042 A 
ATOM     13  C   UNL     1       5.087  -4.896   4.675  0.00  0.00    +0.004 A 
ATOM     14  C   UNL     1       5.093  -3.548   4.365  0.00  0.00    +0.006 A 
ATOM     15  C   UNL     1       5.938  -3.069   3.381  0.00  0.00    -0.023 A 
ATOM     16  C   UNL     1       6.772  -3.938   2.703  0.00  0.00    +0.006 A 
ATOM     17  C   UNL     1       6.770  -5.285   3.017  0.00  0.00    +0.004 A 
BRANCH  12  19
ATOM     18  C   UNL     1       4.521  -7.805   4.096  0.00  0.00    +0.015 C 
ATOM     19  C   UNL     1       5.918  -7.232   4.339  0.00  0.00    -0.013 C 
ATOM     20  C   UNL     1       6.930  -7.964   3.454  0.00  0.00    +0.015 C 
ATOM     21  C   UNL     1       6.298  -7.419   5.809  0.00  0.00    +0.015 C 
ENDBRANCH  12  19
ENDBRANCH   1  15
BRANCH  10  22
ATOM     22  C   UNL     1       3.794  -0.688   0.001  0.00  0.00    +0.204 C 
BRANCH  22  23
ATOM     23  N   UNL     1       2.448  -0.111   0.005  0.00  0.00    -0.285 N 
ATOM     24  C   UNL     1       2.288   1.227   0.004  0.00  0.00    +0.247 C 
ATOM     25  O   UNL     1       3.256   1.954  -0.104  0.00  0.00    -0.270 OA
BRANCH  24  26
ATOM     26  C   UNL     1       0.935   1.810   0.133  0.00  0.00    +0.039 A 
ATOM     27  C   UNL     1      -0.109   1.342  -0.667  0.00  0.00    +0.013 A 
ATOM     28  C   UNL     1      -1.367   1.895  -0.546  0.00  0.00    +0.003 A 
ATOM     29  C   UNL     1      -1.598   2.902   0.374  0.00  0.00    +0.033 A 
ATOM     30  C   UNL     1      -0.568   3.370   1.170  0.00  0.00    +0.127 A 
ATOM     31  C   UNL     1       0.697   2.830   1.054  0.00  0.00    +0.045 A 
BRANCH  30  32
ATOM     32  N   UNL     1      -0.822   4.453   2.146  0.00  0.00    +0.056 N 
ATOM     33  O   UNL     1       0.084   4.866   2.848  0.00  0.00    -0.126 OA
ATOM     34  O   UNL     1      -1.938   4.930   2.249  0.00  0.00    -0.126 OA
ENDBRANCH  30  32
ENDBRANCH  24  26
BRANCH  23  35
ATOM     35  C   UNL     1       1.275  -0.989   0.010  0.00  0.00    +0.135 C 
BRANCH  35  36
ATOM     36  C   UNL     1       0.977  -1.437  -1.398  0.00  0.00    -0.016 C 
ATOM     37  C   UNL     1       0.870  -2.714  -1.670  0.00  0.00    +0.005 C 
ENDBRANCH  35  36
ENDBRANCH  23  35
ENDBRANCH  22  23
ENDBRANCH  10  22
TORSDOF 8
