REMARK  Name = ZINC52569750
REMARK  2 active torsions:
REMARK  status: ('A' for Active; 'I' for Inactive)
REMARK    1  A    between atoms: N_12  and  C_13
REMARK    2  A    between atoms: C_13  and  N_14
REMARK                            x       y       z     vdW  Elec       q    Type
REMARK                         _______ _______ _______ _____ _____    ______ ____
ROOT
ATOM      1  C   UNL     1       4.195   0.130  -2.521  0.00  0.00    +0.043 C 
ENDROOT
BRANCH   1   2
ATOM      2  N   UNL     1       4.841  -0.247  -3.780  0.00  0.00    -0.241 N 
ATOM      3  C   UNL     1       5.577  -1.363  -3.950  0.00  0.00    +0.246 C 
ATOM      4  O   UNL     1       5.821  -2.213  -3.120  0.00  0.00    -0.273 OA
ATOM      5  C   UNL     1       6.036  -1.334  -5.393  0.00  0.00    +0.122 C 
ATOM      6  C   UNL     1       5.476  -2.539  -6.146  0.00  0.00    +0.047 C 
ATOM      7  C   UNL     1       6.400  -2.904  -7.341  0.00  0.00    +0.072 C 
ATOM      8  S   UNL     1       8.047  -2.622  -6.556  0.00  0.00    -0.158 S 
ATOM      9  C   UNL     1       7.573  -1.238  -5.438  0.00  0.00    +0.104 C 
ATOM     10  N   UNL     1       5.452  -0.090  -5.920  0.00  0.00    -0.284 N 
ATOM     11  C   UNL     1       4.768   0.472  -4.907  0.00  0.00    +0.308 C 
ATOM     12  O   UNL     1       4.155   1.517  -5.003  0.00  0.00    -0.252 OA
ATOM     13  H   UNL     1       5.540   0.255  -6.822  0.00  0.00    +0.151 HD
ENDBRANCH   1   2
BRANCH   1  23
ATOM     14  C   UNL     1      -0.019   1.526   0.010  0.00  0.00    +0.000 C 
ATOM     15  C   UNL     1       1.417   2.055  -0.000  0.00  0.00    -0.002 C 
ATOM     16  C   UNL     1       2.133   1.562  -1.259  0.00  0.00    -0.015 C 
ATOM     17  C   UNL     1       2.154   0.032  -1.267  0.00  0.00    -0.063 C 
ATOM     18  C   UNL     1       0.718  -0.497  -1.257  0.00  0.00    -0.025 C 
ATOM     19  C   UNL     1       0.002  -0.004   0.002  0.00  0.00    +0.002 C 
ATOM     20  C   UNL     1       0.744  -2.028  -1.261  0.00  0.00    +0.000 C 
ATOM     21  C   UNL     1       1.532  -2.512  -2.482  0.00  0.00    -0.018 C 
ATOM     22  C   UNL     1       2.938  -1.908  -2.447  0.00  0.00    -0.076 C 
ATOM     23  N   UNL     1       2.843  -0.444  -2.473  0.00  0.00    +0.393 N 
ATOM     24  H   UNL     1       2.328  -0.153  -3.290  0.00  0.00    -0.079 HD
ENDBRANCH   1  23
TORSDOF 2
