REMARK  Name = ZINC54920805
REMARK  3 active torsions:
REMARK  status: ('A' for Active; 'I' for Inactive)
REMARK    1  A    between atoms: N_12  and  C_16
REMARK    2  A    between atoms: C_16  and  C_17
REMARK    3  A    between atoms: C_22  and  C_23
REMARK                            x       y       z     vdW  Elec       q    Type
REMARK                         _______ _______ _______ _____ _____    ______ ____
ROOT
ATOM      1  C   UNL     1      -0.017   1.377   0.010  0.00  0.00    +0.000 A 
ATOM      2  C   UNL     1       1.172   2.083   0.002  0.00  0.00    +0.000 A 
ATOM      3  C   UNL     1       2.376   1.407  -0.013  0.00  0.00    +0.004 A 
ATOM      4  C   UNL     1       2.397   0.022  -0.021  0.00  0.00    -0.042 A 
ATOM      5  C   UNL     1       1.208  -0.684  -0.013  0.00  0.00    -0.042 A 
ATOM      6  C   UNL     1       0.002  -0.004   0.002  0.00  0.00    +0.004 A 
ATOM      7  C   UNL     1       1.495  -2.173  -0.024  0.00  0.00    +0.071 C 
ATOM      8  C   UNL     1       2.962  -2.287  -0.449  0.00  0.00    +0.120 C 
ATOM      9  C   UNL     1       3.567  -0.942  -0.037  0.00  0.00    +0.071 C 
ATOM     10  C   UNL     1       3.653  -3.444   0.217  0.00  0.00    +0.247 C 
ATOM     11  O   UNL     1       3.778  -3.641   1.407  0.00  0.00    -0.273 OA
ATOM     12  N   UNL     1       4.103  -4.216  -0.796  0.00  0.00    -0.220 N 
ATOM     13  C   UNL     1       3.786  -3.696  -1.990  0.00  0.00    +0.310 C 
ATOM     14  O   UNL     1       4.082  -4.210  -3.051  0.00  0.00    -0.252 OA
ATOM     15  N   UNL     1       3.102  -2.538  -1.881  0.00  0.00    -0.284 N 
ATOM     16  H   UNL     1       2.770  -1.986  -2.606  0.00  0.00    +0.151 HD
ENDROOT
BRANCH  12  17
ATOM     17  C   UNL     1       4.844  -5.467  -0.613  0.00  0.00    +0.154 C 
BRANCH  17  18
ATOM     18  C   UNL     1       3.876  -6.619  -0.541  0.00  0.00    -0.012 A 
ATOM     19  C   UNL     1       3.517  -7.145   0.683  0.00  0.00    +0.006 A 
ATOM     20  C   UNL     1       2.628  -8.203   0.750  0.00  0.00    +0.000 A 
ATOM     21  C   UNL     1       2.093  -8.741  -0.407  0.00  0.00    +0.001 A 
ATOM     22  C   UNL     1       2.444  -8.225  -1.637  0.00  0.00    +0.019 A 
ATOM     23  C   UNL     1       3.336  -7.153  -1.712  0.00  0.00    +0.056 A 
BRANCH  23  24
ATOM     24  C   UNL     1       3.699  -6.608  -2.986  0.00  0.00    +0.099 C 
ATOM     25  N   UNL     1       3.987  -6.176  -3.996  0.00  0.00    -0.191 NA
ENDBRANCH  23  24
ENDBRANCH  17  18
ENDBRANCH  12  17
TORSDOF 3
