REMARK  Name = ZINC09876114
REMARK  5 active torsions:
REMARK  status: ('A' for Active; 'I' for Inactive)
REMARK    1  A    between atoms: C_8  and  C_30
REMARK    2  A    between atoms: C_11  and  C_12
REMARK    3  A    between atoms: C_11  and  N_53
REMARK    4  A    between atoms: C_15  and  C_25
REMARK    5  A    between atoms: C_18  and  C_20
REMARK                            x       y       z     vdW  Elec       q    Type
REMARK                         _______ _______ _______ _____ _____    ______ ____
ROOT
ATOM      1  C   UNL     1       3.927  -1.633  -0.475  0.00  0.00    +0.022 C 
ENDROOT
BRANCH   1  11
ATOM      2  C   UNL     1       9.956   0.416  -1.352  0.00  0.00    +0.000 A 
ATOM      3  C   UNL     1       9.201   0.768  -2.456  0.00  0.00    +0.000 A 
ATOM      4  C   UNL     1       7.877   0.384  -2.534  0.00  0.00    +0.002 A 
ATOM      5  C   UNL     1       7.299  -0.353  -1.510  0.00  0.00    -0.061 A 
ATOM      6  C   UNL     1       8.051  -0.700  -0.409  0.00  0.00    -0.047 A 
ATOM      7  C   UNL     1       9.381  -0.315  -0.332  0.00  0.00    +0.004 A 
ATOM      8  C   UNL     1       7.466  -1.494   0.731  0.00  0.00    +0.029 C 
ATOM      9  C   UNL     1       6.165  -2.164   0.286  0.00  0.00    +0.024 C 
ATOM     10  C   UNL     1       5.854  -0.756  -1.645  0.00  0.00    -0.041 C 
ATOM     11  N   UNL     1       5.311  -1.128  -0.328  0.00  0.00    +0.396 N 
ATOM     12  H   UNL     1       5.301  -0.299   0.277  0.00  0.00    -0.080 HD
BRANCH   9  13
ATOM     13  C   UNL     1       5.460  -2.753   1.481  0.00  0.00    +0.197 C 
ATOM     14  O   UNL     1       4.739  -2.057   2.163  0.00  0.00    -0.278 OA
ATOM     15  N   UNL     1       5.632  -4.053   1.791  0.00  0.00    -0.331 N 
ATOM     16  H   UNL     1       6.209  -4.610   1.245  0.00  0.00    +0.145 HD
ATOM     17  H   UNL     1       5.179  -4.433   2.560  0.00  0.00    +0.145 HD
ENDBRANCH   9  13
ENDBRANCH   1  11
BRANCH   1  18
ATOM     18  C   UNL     1       3.008  -0.468  -0.742  0.00  0.00    +0.219 C 
ATOM     19  O   UNL     1       3.459   0.656  -0.815  0.00  0.00    -0.276 OA
ATOM     20  N   UNL     1       1.686  -0.675  -0.901  0.00  0.00    -0.186 N 
ATOM     21  C   UNL     1       0.682   0.367  -1.165  0.00  0.00    +0.143 C 
ATOM     22  C   UNL     1      -0.642  -0.418  -1.254  0.00  0.00    +0.088 C 
ATOM     23  C   UNL     1      -0.230  -1.854  -1.024  0.00  0.00    +0.075 C 
ATOM     24  N   UNL     1       1.047  -1.912  -0.840  0.00  0.00    -0.180 NA
BRANCH  23  25
ATOM     25  C   UNL     1      -1.140  -3.004  -1.011  0.00  0.00    +0.035 A 
ATOM     26  C   UNL     1      -0.852  -4.343  -0.815  0.00  0.00    +0.017 A 
ATOM     27  C   UNL     1      -1.889  -5.247  -0.844  0.00  0.00    +0.008 A 
ATOM     28  C   UNL     1      -3.152  -4.801  -1.073  0.00  0.00    +0.046 A 
ATOM     29  S   UNL     1      -2.909  -3.042  -1.251  0.00  0.00    -0.095 S 
ENDBRANCH  23  25
BRANCH  21  30
ATOM     30  C   UNL     1       0.635   1.358  -0.031  0.00  0.00    +0.013 A 
ATOM     31  C   UNL     1       0.402   2.693  -0.073  0.00  0.00    +0.013 A 
ATOM     32  C   UNL     1       0.403   3.411   1.109  0.00  0.00    +0.008 A 
ATOM     33  C   UNL     1       0.649   2.761   2.272  0.00  0.00    +0.045 A 
ATOM     34  S   UNL     1       0.881   1.081   1.715  0.00  0.00    -0.100 S 
ENDBRANCH  21  30
ENDBRANCH   1  18
TORSDOF 5
