REMARK  Name = ZINC45741283
REMARK  5 active torsions:
REMARK  status: ('A' for Active; 'I' for Inactive)
REMARK    1  A    between atoms: C_1  and  C_2
REMARK    2  A    between atoms: C_2  and  C_3
REMARK    3  A    between atoms: C_3  and  S_4
REMARK    4  A    between atoms: S_4  and  N_7
REMARK    5  A    between atoms: C_10  and  N_13
REMARK                            x       y       z     vdW  Elec       q    Type
REMARK                         _______ _______ _______ _____ _____    ______ ____
ROOT
ATOM      1  N   UNL     1      -5.872  -5.851   0.033  0.00  0.00    -0.296 N 
ATOM      2  C   UNL     1      -7.034  -6.038  -0.624  0.00  0.00    +0.303 C 
ATOM      3  O   UNL     1      -7.598  -5.095  -1.143  0.00  0.00    -0.253 OA
ATOM      4  N   UNL     1      -7.571  -7.272  -0.705  0.00  0.00    -0.283 N 
ATOM      5  C   UNL     1      -6.966  -8.400   0.018  0.00  0.00    +0.128 C 
ATOM      6  C   UNL     1      -8.038  -9.044   0.906  0.00  0.00    +0.127 C 
ATOM      7  N   UNL     1      -9.238  -9.285   0.094  0.00  0.00    -0.297 N 
ATOM      8  C   UNL     1      -9.843  -8.157  -0.628  0.00  0.00    +0.127 C 
ATOM      9  C   UNL     1      -8.775  -7.512  -1.513  0.00  0.00    +0.128 C 
ATOM     10  C   UNL     1      -9.790 -10.552   0.011  0.00  0.00    +0.218 A 
ATOM     11  N   UNL     1      -9.225 -11.548   0.677  0.00  0.00    -0.223 NA
ATOM     12  C   UNL     1      -9.727 -12.771   0.620  0.00  0.00    +0.116 A 
ATOM     13  C   UNL     1     -10.856 -13.002  -0.150  0.00  0.00    +0.039 A 
ATOM     14  C   UNL     1     -11.421 -11.938  -0.834  0.00  0.00    +0.116 A 
ATOM     15  N   UNL     1     -10.873 -10.739  -0.730  0.00  0.00    -0.223 NA
ATOM     16  H   UNL     1      -5.459  -6.589   0.508  0.00  0.00    +0.151 HD
ENDROOT
BRANCH   1  20
ATOM     17  N   UNL     1      -3.002  -2.795   0.007  0.00  0.00    -0.181 NA
ATOM     18  C   UNL     1      -3.708  -3.000   1.279  0.00  0.00    +0.111 C 
ATOM     19  C   UNL     1      -4.347  -4.392   1.269  0.00  0.00    +0.039 C 
ATOM     20  C   UNL     1      -5.233  -4.533   0.029  0.00  0.00    +0.077 C 
ATOM     21  C   UNL     1      -4.377  -4.386  -1.231  0.00  0.00    +0.039 C 
ATOM     22  C   UNL     1      -3.739  -2.988  -1.249  0.00  0.00    +0.111 C 
BRANCH  17  23
ATOM     23  S   UNL     1      -1.408  -2.347  -0.011  0.00  0.00    +0.032 S 
ATOM     24  O   UNL     1      -0.912  -2.820  -1.256  0.00  0.00    -0.158 OA
ATOM     25  O   UNL     1      -0.879  -2.838   1.213  0.00  0.00    -0.158 OA
BRANCH  23  26
ATOM     26  C   UNL     1      -1.433  -0.533   0.002  0.00  0.00    +0.185 C 
BRANCH  26  28
ATOM     27  C   UNL     1      -0.019   1.527  -0.002  0.00  0.00    +0.005 C 
ATOM     28  C   UNL     1       0.003  -0.003  -0.013  0.00  0.00    +0.021 C 
ENDBRANCH  26  28
ENDBRANCH  23  26
ENDBRANCH  17  23
ENDBRANCH   1  20
TORSDOF 4
