REMARK  Name = ZINC04223169
REMARK  3 active torsions:
REMARK  status: ('A' for Active; 'I' for Inactive)
REMARK    1  A    between atoms: C_6  and  N_7
REMARK    2  A    between atoms: C_8  and  C_10
REMARK    3  A    between atoms: C_10  and  C_11
REMARK                            x       y       z     vdW  Elec       q    Type
REMARK                         _______ _______ _______ _____ _____    ______ ____
ROOT
ATOM      1  C   UNL     1      -1.351   7.675  -0.142  0.00  0.00    +0.089 C 
ENDROOT
BRANCH   1   2
ATOM      2  C   UNL     1      -2.804   8.145  -0.226  0.00  0.00    +0.025 C 
ATOM      3  C   UNL     1      -2.834   9.627  -0.468  0.00  0.00    +0.200 C 
ATOM      4  O   UNL     1      -2.076  10.091  -1.292  0.00  0.00    -0.278 OA
ATOM      5  N   UNL     1      -3.655  10.460   0.180  0.00  0.00    -0.315 N 
ATOM      6  C   UNL     1      -4.566  10.003   1.233  0.00  0.00    +0.059 C 
ATOM      7  C   UNL     1      -3.914  10.311   2.567  0.00  0.00    +0.020 C 
ATOM      8  C   UNL     1      -4.803   9.798   3.700  0.00  0.00    +0.002 C 
ATOM      9  C   UNL     1      -4.966   8.282   3.565  0.00  0.00    -0.001 C 
ATOM     10  C   UNL     1      -5.641   7.970   2.228  0.00  0.00    -0.014 C 
ATOM     11  C   UNL     1      -4.795   8.501   1.078  0.00  0.00    -0.050 C 
ATOM     12  H   UNL     1      -3.647  11.401  -0.055  0.00  0.00    +0.149 HD
ATOM     13  N   UNL     1      -3.493   7.819   1.034  0.00  0.00    +0.390 N 
ATOM     14  H   UNL     1      -2.919   8.129   1.827  0.00  0.00    -0.084 HD
ATOM     15  H   UNL     1      -3.637   6.804   1.091  0.00  0.00    -0.084 HD
ENDBRANCH   1   2
BRANCH   1  17
ATOM     16  N   UNL     1      -0.132   5.530   0.044  0.00  0.00    -0.285 N 
ATOM     17  C   UNL     1      -1.314   6.171  -0.041  0.00  0.00    +0.216 C 
ATOM     18  O   UNL     1      -2.349   5.539  -0.037  0.00  0.00    -0.276 OA
ATOM     19  H   UNL     1       0.691   6.038   0.117  0.00  0.00    +0.155 HD
BRANCH  16  25
ATOM     20  C   UNL     1       0.876   3.454   0.756  0.00  0.00    +0.027 A 
ATOM     21  C   UNL     1       0.920   2.073   0.733  0.00  0.00    +0.051 A 
ATOM     22  C   UNL     1      -0.007   1.358  -0.009  0.00  0.00    +0.162 A 
ATOM     23  C   UNL     1      -0.980   2.033  -0.739  0.00  0.00    +0.164 A 
ATOM     24  C   UNL     1      -1.020   3.418  -0.721  0.00  0.00    +0.072 A 
ATOM     25  C   UNL     1      -0.091   4.130   0.026  0.00  0.00    +0.037 A 
ATOM     26  O   UNL     1      -1.899   1.348  -1.473  0.00  0.00    -0.485 OA
ATOM     27  C   UNL     1      -1.599  -0.021  -1.766  0.00  0.00    +0.270 C 
ATOM     28  C   UNL     1      -1.117  -0.694  -0.474  0.00  0.00    +0.270 C 
ATOM     29  O   UNL     1       0.050  -0.003  -0.017  0.00  0.00    -0.485 OA
ENDBRANCH  16  25
ENDBRANCH   1  17
TORSDOF 3
