REMARK  Name = ZINC35023439
REMARK  8 active torsions:
REMARK  status: ('A' for Active; 'I' for Inactive)
REMARK    1  A    between atoms: C_1  and  C_2
REMARK    2  A    between atoms: C_6  and  C_29
REMARK    3  A    between atoms: C_8  and  O_11
REMARK    4  A    between atoms: O_11  and  C_12
REMARK    5  A    between atoms: N_14  and  C_15
REMARK    6  A    between atoms: C_15  and  C_25
REMARK    7  A    between atoms: C_29  and  C_30
REMARK    8  A    between atoms: C_29  and  C_31
REMARK                            x       y       z     vdW  Elec       q    Type
REMARK                         _______ _______ _______ _____ _____    ______ ____
ROOT
ATOM      1  C   UNL     1       2.825   0.290   3.500  0.00  0.00    +0.406 C 
ATOM      2  O   UNL     1       2.201   1.333   3.489  0.00  0.00    -0.226 OA
ATOM      3  N   UNL     1       3.461  -0.103   4.621  0.00  0.00    -0.201 N 
ATOM      4  H   UNL     1       3.959  -0.936   4.630  0.00  0.00    +0.160 HD
ENDROOT
BRANCH   3   5
ATOM      5  C   UNL     1       3.400   0.727   5.827  0.00  0.00    +0.437 C 
ATOM      6  O   UNL     1       2.033   0.987   6.194  0.00  0.00    -0.426 OA
ATOM      7  C   UNL     1       1.703   2.154   5.567  0.00  0.00    +0.169 A 
ATOM      8  C   UNL     1       0.475   2.732   5.289  0.00  0.00    +0.051 A 
ATOM      9  C   UNL     1       0.415   3.946   4.630  0.00  0.00    +0.024 A 
ATOM     10  C   UNL     1       1.579   4.587   4.248  0.00  0.00    +0.045 A 
ATOM     11  C   UNL     1       2.809   4.015   4.522  0.00  0.00    +0.069 A 
ATOM     12  C   UNL     1       2.876   2.799   5.182  0.00  0.00    +0.170 A 
ATOM     13  O   UNL     1       3.940   2.036   5.568  0.00  0.00    -0.426 OA
ATOM     14 CL   UNL     1       1.498   6.112   3.421  0.00  0.00    -0.083 Cl
BRANCH   5  15
ATOM     15  C   UNL     1       4.151   0.054   6.979  0.00  0.00    +0.491 C 
ATOM     16  F   UNL     1       5.490  -0.128   6.619  0.00  0.00    -0.162 F 
ATOM     17  F   UNL     1       4.079   0.864   8.117  0.00  0.00    -0.162 F 
ATOM     18  F   UNL     1       3.568  -1.188   7.252  0.00  0.00    -0.162 F 
ENDBRANCH   5  15
ENDBRANCH   3   5
BRANCH   1  19
ATOM     19  O   UNL     1       2.881  -0.473   2.392  0.00  0.00    -0.447 OA
BRANCH  19  25
ATOM     20  C   UNL     1      -0.023   1.513   0.037  0.00  0.00    +0.007 C 
ATOM     21  C   UNL     1       0.003  -0.017   0.020  0.00  0.00    -0.011 C 
ATOM     22  C   UNL     1       0.715  -0.501  -1.244  0.00  0.00    +0.004 C 
ATOM     23  C   UNL     1       2.148   0.033  -1.258  0.00  0.00    +0.007 C 
ATOM     24  C   UNL     1       2.895  -0.479  -0.025  0.00  0.00    +0.032 C 
ATOM     25  C   UNL     1       2.183   0.005   1.240  0.00  0.00    +0.182 C 
ATOM     26  C   UNL     1       0.749  -0.529   1.254  0.00  0.00    +0.048 C 
BRANCH  24  27
ATOM     27  C   UNL     1       4.329   0.055  -0.039  0.00  0.00    -0.011 C 
ATOM     28  C   UNL     1       5.082  -0.538  -1.231  0.00  0.00    +0.007 C 
ATOM     29  C   UNL     1       4.304   1.580  -0.159  0.00  0.00    +0.007 C 
ENDBRANCH  24  27
ENDBRANCH  19  25
ENDBRANCH   1  19
TORSDOF 5
