REMARK  Name = ZINC10061666
REMARK  7 active torsions:
REMARK  status: ('A' for Active; 'I' for Inactive)
REMARK    1  A    between atoms: C_1  and  C_2
REMARK    2  A    between atoms: C_2  and  C_3
REMARK    3  A    between atoms: C_3  and  N_45
REMARK    4  A    between atoms: C_9  and  N_14
REMARK    5  A    between atoms: C_10  and  C_11
REMARK    6  A    between atoms: C_15  and  C_17
REMARK    7  A    between atoms: C_17  and  C_18
REMARK                            x       y       z     vdW  Elec       q    Type
REMARK                         _______ _______ _______ _____ _____    ______ ____
ROOT
ATOM      1  C   UNL     1      -3.906   6.423   5.903  0.00  0.00    -0.074 C 
ATOM      2  C   UNL     1      -2.810   6.626   4.852  0.00  0.00    +0.018 C 
ATOM      3  C   UNL     1      -2.460   5.265   4.262  0.00  0.00    -0.027 A 
ATOM      4  C   UNL     1      -2.814   4.133   4.912  0.00  0.00    -0.021 A 
ATOM      5  S   UNL     1      -2.220   2.820   3.886  0.00  0.00    -0.079 S 
ATOM      6  C   UNL     1      -1.512   3.758   2.613  0.00  0.00    +0.084 A 
ATOM      7  C   UNL     1      -1.746   5.066   3.015  0.00  0.00    +0.068 A 
ATOM      8  C   UNL     1      -3.546   4.047   6.214  0.00  0.00    -0.035 C 
ATOM      9  N   UNL     1      -3.480   5.381   6.860  0.00  0.00    +0.383 N 
ATOM     10  H   UNL     1      -2.512   5.566   7.146  0.00  0.00    -0.081 HD
ENDROOT
BRANCH   7  11
ATOM     11  C   UNL     1      -1.294   6.204   2.208  0.00  0.00    +0.244 C 
ATOM     12  O   UNL     1      -2.023   6.672   1.353  0.00  0.00    -0.270 OA
ATOM     13  N   UNL     1      -0.070   6.731   2.413  0.00  0.00    -0.325 N 
ATOM     14  H   UNL     1       0.511   6.358   3.094  0.00  0.00    +0.145 HD
ATOM     15  H   UNL     1       0.229   7.483   1.879  0.00  0.00    +0.145 HD
ENDBRANCH   7  11
BRANCH   6  16
ATOM     16  N   UNL     1      -0.863   3.311   1.472  0.00  0.00    -0.279 N 
ATOM     17  C   UNL     1      -0.724   1.989   1.250  0.00  0.00    +0.222 C 
ATOM     18  O   UNL     1      -1.166   1.190   2.049  0.00  0.00    -0.275 OA
ATOM     19  H   UNL     1      -0.509   3.950   0.833  0.00  0.00    +0.155 HD
BRANCH  17  20
ATOM     20  C   UNL     1      -0.018   1.503   0.010  0.00  0.00    +0.138 C 
BRANCH  20  21
ATOM     21  C   UNL     1       0.002  -0.004   0.002  0.00  0.00    -0.001 A 
ATOM     22  C   UNL     1      -0.906  -0.867  -0.516  0.00  0.00    +0.011 A 
ATOM     23  C   UNL     1      -0.675  -2.226  -0.409  0.00  0.00    +0.008 A 
ATOM     24  C   UNL     1       0.446  -2.655   0.219  0.00  0.00    +0.045 A 
ATOM     25  S   UNL     1       1.224  -1.116   0.678  0.00  0.00    -0.101 S 
ENDBRANCH  20  21
ENDBRANCH  17  20
ENDBRANCH   6  16
BRANCH   9  26
ATOM     26  C   UNL     1      -4.349   5.408   8.056  0.00  0.00    -0.079 C 
BRANCH  26  28
ATOM     27  C   UNL     1      -6.694   5.274   8.907  0.00  0.00    +0.002 C 
ATOM     28  C   UNL     1      -5.816   5.241   7.655  0.00  0.00    -0.022 C 
ENDBRANCH  26  28
ENDBRANCH   9  26
TORSDOF 6
