REMARK  Name = ZINC09227389
REMARK  8 active torsions:
REMARK  status: ('A' for Active; 'I' for Inactive)
REMARK    1  A    between atoms: C_1  and  C_2
REMARK    2  A    between atoms: C_3  and  N_11
REMARK    3  A    between atoms: C_7  and  N_8
REMARK    4  A    between atoms: C_12  and  C_14
REMARK    5  A    between atoms: C_14  and  N_15
REMARK    6  A    between atoms: N_15  and  C_16
REMARK    7  A    between atoms: N_15  and  S_22
REMARK    8  A    between atoms: S_22  and  C_25
REMARK                            x       y       z     vdW  Elec       q    Type
REMARK                         _______ _______ _______ _____ _____    ______ ____
ROOT
ATOM      1  N   UNL     1       1.057  -1.422   1.768  0.00  0.00    -0.165 NA
ENDROOT
BRANCH   1   2
ATOM      2  C   UNL     1       2.246  -1.940   2.449  0.00  0.00    +0.080 C 
ATOM      3  C   UNL     1       2.006  -3.394   2.858  0.00  0.00    +0.020 C 
ATOM      4  C   UNL     1       3.247  -3.936   3.570  0.00  0.00    +0.002 C 
ATOM      5  C   UNL     1       3.528  -3.095   4.816  0.00  0.00    +0.000 C 
ATOM      6  C   UNL     1       3.768  -1.640   4.407  0.00  0.00    +0.002 C 
ATOM      7  C   UNL     1       2.526  -1.099   3.696  0.00  0.00    +0.020 C 
ENDBRANCH   1   2
BRANCH   1   8
ATOM      8  S   UNL     1       1.167  -0.878   0.207  0.00  0.00    +0.062 S 
ATOM      9  O   UNL     1      -0.135  -0.978  -0.351  0.00  0.00    -0.153 OA
ATOM     10  O   UNL     1       2.295  -1.523  -0.368  0.00  0.00    -0.153 OA
BRANCH   8  11
ATOM     11  C   UNL     1       1.553   0.840   0.281  0.00  0.00    +0.106 A 
ATOM     12  C   UNL     1       0.536   1.776   0.312  0.00  0.00    +0.031 A 
ATOM     13  C   UNL     1       0.837   3.123   0.375  0.00  0.00    +0.040 A 
ATOM     14  C   UNL     1       2.158   3.536   0.395  0.00  0.00    +0.124 A 
ATOM     15  C   UNL     1       3.176   2.599   0.359  0.00  0.00    +0.040 A 
ATOM     16  C   UNL     1       2.873   1.252   0.301  0.00  0.00    +0.031 A 
ATOM     17  F   UNL     1       2.454   4.853   0.452  0.00  0.00    -0.205 F 
ENDBRANCH   8  11
ENDBRANCH   1   8
BRANCH   1  18
ATOM     18  C   UNL     1      -0.230  -1.385   2.467  0.00  0.00    +0.205 C 
BRANCH  18  20
ATOM     19  N   UNL     1      -2.119  -2.922   2.900  0.00  0.00    -0.284 N 
ATOM     20  C   UNL     1      -0.913  -2.721   2.332  0.00  0.00    +0.233 C 
ATOM     21  O   UNL     1      -0.378  -3.617   1.714  0.00  0.00    -0.274 OA
ATOM     22  H   UNL     1      -2.567  -2.140   3.531  0.00  0.00    +0.155 HD
BRANCH  19  25
ATOM     23  C   UNL     1      -4.159  -3.656   4.744  0.00  0.00    +0.048 C 
ATOM     24  C   UNL     1      -3.804  -4.521   3.562  0.00  0.00    +0.001 A 
ATOM     25  C   UNL     1      -2.802  -4.125   2.686  0.00  0.00    +0.039 A 
ATOM     26  C   UNL     1      -2.474  -4.927   1.601  0.00  0.00    +0.024 A 
ATOM     27  C   UNL     1      -3.149  -6.114   1.393  0.00  0.00    +0.004 A 
ATOM     28  C   UNL     1      -4.151  -6.503   2.264  0.00  0.00    +0.033 A 
ATOM     29  C   UNL     1      -4.479  -5.706   3.345  0.00  0.00    +0.131 A 
BRANCH  29  30
ATOM     30  N   UNL     1      -5.553  -6.126   4.274  0.00  0.00    +0.057 N 
ATOM     31  O   UNL     1      -6.051  -7.232   4.168  0.00  0.00    -0.126 OA
ATOM     32  O   UNL     1      -5.937  -5.366   5.144  0.00  0.00    -0.126 OA
ENDBRANCH  29  30
ENDBRANCH  19  25
ENDBRANCH  18  20
ENDBRANCH   1  18
TORSDOF 7
