REMARK  Name = ZINC64870423
REMARK  7 active torsions:
REMARK  status: ('A' for Active; 'I' for Inactive)
REMARK    1  A    between atoms: C_1  and  C_2
REMARK    2  A    between atoms: C_7  and  C_8
REMARK    3  A    between atoms: C_11  and  C_15
REMARK    4  A    between atoms: N_25  and  C_28
REMARK    5  A    between atoms: C_28  and  C_29
REMARK    6  A    between atoms: C_34  and  O_35
REMARK    7  A    between atoms: O_35  and  C_36
REMARK                            x       y       z     vdW  Elec       q    Type
REMARK                         _______ _______ _______ _____ _____    ______ ____
ROOT
ATOM      1  C   UNL     1      -2.499  -0.380   5.808  0.00  0.00    -0.000 A 
ATOM      2  C   UNL     1      -3.084  -1.600   5.503  0.00  0.00    +0.008 A 
ATOM      3  C   UNL     1      -4.024  -2.154   6.347  0.00  0.00    +0.016 A 
ATOM      4  C   UNL     1      -4.384  -1.479   7.511  0.00  0.00    +0.063 A 
ATOM      5  C   UNL     1      -3.791  -0.242   7.818  0.00  0.00    +0.056 A 
ATOM      6  C   UNL     1      -2.844   0.297   6.961  0.00  0.00    +0.034 A 
ATOM      7  N   UNL     1      -4.169   0.408   8.985  0.00  0.00    -0.307 N 
ATOM      8  H   UNL     1      -3.768   1.262   9.210  0.00  0.00    +0.170 HD
ATOM      9  C   UNL     1      -5.085  -0.135   9.805  0.00  0.00    +0.330 A 
ATOM     10  O   UNL     1      -5.388   0.467  10.817  0.00  0.00    -0.246 OA
ATOM     11  N   UNL     1      -5.679  -1.312   9.555  0.00  0.00    -0.256 N 
ATOM     12  C   UNL     1      -5.382  -2.026   8.447  0.00  0.00    +0.265 A 
ATOM     13  O   UNL     1      -5.925  -3.091   8.227  0.00  0.00    -0.267 OA
ENDROOT
BRANCH   1  16
ATOM     14  C   UNL     1       0.768   0.854   4.702  0.00  0.00    +0.181 C 
ATOM     15  N   UNL     1      -0.379   0.858   5.641  0.00  0.00    -0.265 NA
ATOM     16  C   UNL     1      -1.474   0.210   4.874  0.00  0.00    +0.242 C 
ATOM     17  O   UNL     1      -0.794  -0.830   4.136  0.00  0.00    -0.274 OA
ATOM     18  N   UNL     1       0.493  -0.229   3.734  0.00  0.00    -0.177 NA
ATOM     19  H   UNL     1      -0.164   0.335   6.477  0.00  0.00    +0.127 HD
ATOM     20  H   UNL     1       0.446   0.131   2.792  0.00  0.00    +0.156 HD
BRANCH  14  27
ATOM     21  C   UNL     1       2.282   3.033   5.844  0.00  0.00    +0.044 C 
ATOM     22  C   UNL     1       2.772   1.616   5.992  0.00  0.00    -0.044 A 
ATOM     23  C   UNL     1       3.944   1.358   6.680  0.00  0.00    +0.004 A 
ATOM     24  C   UNL     1       4.394   0.058   6.815  0.00  0.00    +0.000 A 
ATOM     25  C   UNL     1       3.672  -0.984   6.264  0.00  0.00    +0.000 A 
ATOM     26  C   UNL     1       2.501  -0.727   5.578  0.00  0.00    +0.007 A 
ATOM     27  C   UNL     1       2.048   0.573   5.446  0.00  0.00    -0.011 A 
ENDBRANCH  14  27
ENDBRANCH   1  16
BRANCH  11  28
ATOM     28  C   UNL     1      -6.668  -1.834  10.502  0.00  0.00    +0.168 C 
BRANCH  28  29
ATOM     29  C   UNL     1      -8.039  -1.341  10.118  0.00  0.00    +0.014 A 
ATOM     30  C   UNL     1      -8.597  -0.264  10.779  0.00  0.00    +0.009 A 
ATOM     31  C   UNL     1      -9.855   0.188  10.428  0.00  0.00    +0.001 A 
ATOM     32  C   UNL     1     -10.559  -0.435   9.413  0.00  0.00    +0.004 A 
ATOM     33  C   UNL     1     -10.005  -1.512   8.749  0.00  0.00    +0.046 A 
ATOM     34  C   UNL     1      -8.740  -1.964   9.096  0.00  0.00    +0.125 A 
BRANCH  34  35
ATOM     35  O   UNL     1      -8.191  -3.020   8.440  0.00  0.00    -0.495 OA
ATOM     36  C   UNL     1      -8.970  -3.613   7.399  0.00  0.00    +0.277 C 
ENDBRANCH  34  35
ENDBRANCH  28  29
ENDBRANCH  11  28
TORSDOF 5
