REMARK  Name = ZINC36092916
REMARK  10 active torsions:
REMARK  status: ('A' for Active; 'I' for Inactive)
REMARK    1  A    between atoms: C_1  and  C_2
REMARK    2  A    between atoms: C_7  and  N_12
REMARK    3  A    between atoms: C_9  and  C_11
REMARK    4  A    between atoms: C_13  and  C_15
REMARK    5  A    between atoms: C_15  and  C_16
REMARK    6  A    between atoms: C_16  and  C_17
REMARK    7  A    between atoms: C_17  and  C_18
REMARK    8  A    between atoms: C_18  and  N_19
REMARK    9  A    between atoms: C_26  and  O_32
REMARK   10  A    between atoms: O_32  and  C_33
REMARK                            x       y       z     vdW  Elec       q    Type
REMARK                         _______ _______ _______ _____ _____    ______ ____
ROOT
ATOM      1  N   UNL     1      -5.137  -8.147   2.969  0.00  0.00    -0.287 N 
ATOM      2  C   UNL     1      -5.922  -7.912   4.039  0.00  0.00    +0.279 A 
ATOM      3  O   UNL     1      -5.493  -7.283   4.990  0.00  0.00    -0.265 OA
ATOM      4  C   UNL     1      -7.253  -8.404   4.048  0.00  0.00    +0.129 A 
ATOM      5  C   UNL     1      -7.703  -9.113   2.950  0.00  0.00    +0.079 A 
ATOM      6  C   UNL     1      -9.088  -9.491   3.228  0.00  0.00    +0.027 A 
ATOM      7  C   UNL     1     -10.055 -10.204   2.513  0.00  0.00    +0.057 A 
ATOM      8  C   UNL     1     -11.306 -10.399   3.062  0.00  0.00    +0.121 A 
ATOM      9  C   UNL     1     -11.606  -9.889   4.323  0.00  0.00    +0.047 A 
ATOM     10  C   UNL     1     -10.663  -9.186   5.037  0.00  0.00    +0.030 A 
ATOM     11  C   UNL     1      -9.394  -8.977   4.502  0.00  0.00    +0.049 A 
ATOM     12  N   UNL     1      -8.277  -8.326   4.978  0.00  0.00    -0.349 N 
ATOM     13  H   UNL     1      -8.216  -7.880   5.838  0.00  0.00    +0.166 HD
ATOM     14  N   UNL     1      -6.851  -9.323   1.881  0.00  0.00    -0.333 N 
ATOM     15  C   UNL     1      -5.596  -8.834   1.909  0.00  0.00    +0.161 A 
ATOM     16  S   UNL     1      -4.562  -9.100   0.571  0.00  0.00    -0.013 S 
ATOM     17  H   UNL     1      -7.159  -9.820   1.107  0.00  0.00    +0.168 HD
ENDROOT
BRANCH   8  18
ATOM     18  O   UNL     1     -12.249 -11.092   2.369  0.00  0.00    -0.495 OA
ATOM     19  C   UNL     1     -13.523 -11.257   2.995  0.00  0.00    +0.277 C 
ENDBRANCH   8  18
BRANCH   1  20
ATOM     20  C   UNL     1      -3.763  -7.640   2.959  0.00  0.00    +0.127 C 
BRANCH  20  21
ATOM     21  C   UNL     1      -3.742  -6.234   2.357  0.00  0.00    +0.022 C 
BRANCH  21  22
ATOM     22  C   UNL     1      -2.307  -5.704   2.346  0.00  0.00    +0.011 C 
BRANCH  22  23
ATOM     23  C   UNL     1      -2.287  -4.298   1.743  0.00  0.00    +0.096 C 
BRANCH  23  25
ATOM     24  N   UNL     1      -0.612  -2.548   1.244  0.00  0.00    -0.312 N 
ATOM     25  C   UNL     1      -0.873  -3.776   1.733  0.00  0.00    +0.213 C 
ATOM     26  O   UNL     1       0.030  -4.462   2.164  0.00  0.00    -0.276 OA
ATOM     27  H   UNL     1      -1.333  -2.000   0.898  0.00  0.00    +0.149 HD
BRANCH  24  33
ATOM     28  C   UNL     1      -0.019   1.526   0.010  0.00  0.00    +0.008 C 
ATOM     29  C   UNL     1       0.002  -0.004   0.002  0.00  0.00    -0.009 C 
ATOM     30  C   UNL     1       0.718  -0.497  -1.257  0.00  0.00    +0.003 C 
ATOM     31  C   UNL     1       0.739  -2.027  -1.265  0.00  0.00    +0.002 C 
ATOM     32  C   UNL     1       1.479  -2.534  -0.026  0.00  0.00    +0.022 C 
ATOM     33  C   UNL     1       0.763  -2.041   1.233  0.00  0.00    +0.076 C 
ATOM     34  C   UNL     1       0.742  -0.511   1.242  0.00  0.00    +0.009 C 
ATOM     35  C   UNL     1       0.026  -0.018   2.500  0.00  0.00    +0.009 C 
ENDBRANCH  24  33
ENDBRANCH  23  25
ENDBRANCH  22  23
ENDBRANCH  21  22
ENDBRANCH  20  21
ENDBRANCH   1  20
TORSDOF 7
