REMARK  Name = ZINC51818522
REMARK  7 active torsions:
REMARK  status: ('A' for Active; 'I' for Inactive)
REMARK    1  A    between atoms: C_1  and  C_2
REMARK    2  A    between atoms: C_4  and  C_14
REMARK    3  A    between atoms: N_16  and  C_17
REMARK    4  A    between atoms: N_16  and  C_18
REMARK    5  A    between atoms: C_18  and  C_19
REMARK    6  A    between atoms: C_19  and  C_21
REMARK    7  A    between atoms: C_19  and  O_22
REMARK                            x       y       z     vdW  Elec       q    Type
REMARK                         _______ _______ _______ _____ _____    ______ ____
ROOT
ATOM      1  C   UNL     1      -0.033   1.550  -0.004  0.00  0.00    +0.056 C 
ATOM      2  C   UNL     1      -0.017   0.020   0.003  0.00  0.00    +0.220 C 
ATOM      3  C   UNL     1       0.610  -0.496  -1.299  0.00  0.00    +0.299 C 
ATOM      4  O   UNL     1       0.623  -1.927  -1.253  0.00  0.00    -0.472 OA
ATOM      5  C   UNL     1       1.063  -2.498  -0.099  0.00  0.00    +0.163 A 
ATOM      6  C   UNL     1       1.444  -3.832  -0.101  0.00  0.00    +0.049 A 
ATOM      7  C   UNL     1       1.890  -4.427   1.064  0.00  0.00    +0.004 A 
ATOM      8  C   UNL     1       1.958  -3.695   2.235  0.00  0.00    +0.004 A 
ATOM      9  C   UNL     1       1.581  -2.365   2.243  0.00  0.00    +0.049 A 
ATOM     10  C   UNL     1       1.135  -1.762   1.077  0.00  0.00    +0.163 A 
ATOM     11  O   UNL     1       0.775  -0.449   1.100  0.00  0.00    -0.481 OA
ENDROOT
BRANCH   3  12
ATOM     12  C   UNL     1      -0.208  -0.032  -2.476  0.00  0.00    +0.260 C 
ATOM     13  O   UNL     1      -1.171  -0.675  -2.837  0.00  0.00    -0.271 OA
ATOM     14  N   UNL     1       0.130   1.099  -3.127  0.00  0.00    -0.299 N 
ATOM     15  C   UNL     1       1.362   1.807  -2.773  0.00  0.00    +0.132 C 
BRANCH  14  16
ATOM     16  C   UNL     1      -0.735   1.619  -4.189  0.00  0.00    +0.138 C 
BRANCH  16  17
ATOM     17  C   UNL     1      -1.763   2.578  -3.586  0.00  0.00    +0.129 C 
ATOM     18  C   UNL     1      -2.666   3.120  -4.696  0.00  0.00    +0.039 C 
BRANCH  17  19
ATOM     19  O   UNL     1      -2.557   1.881  -2.624  0.00  0.00    -0.391 OA
ATOM     20  H   UNL     1      -3.046   1.130  -2.987  0.00  0.00    +0.210 HD
ENDBRANCH  17  19
ENDBRANCH  16  17
ENDBRANCH  14  16
ENDBRANCH   3  12
TORSDOF 4
