REMARK  Name = ZINC64717747
REMARK  7 active torsions:
REMARK  status: ('A' for Active; 'I' for Inactive)
REMARK    1  A    between atoms: C_4  and  C_7
REMARK    2  A    between atoms: N_9  and  C_10
REMARK    3  A    between atoms: C_10  and  C_11
REMARK    4  A    between atoms: C_16  and  C_19
REMARK    5  A    between atoms: N_21  and  C_22
REMARK    6  A    between atoms: C_22  and  C_23
REMARK    7  A    between atoms: C_23  and  C_24
REMARK                            x       y       z     vdW  Elec       q    Type
REMARK                         _______ _______ _______ _____ _____    ______ ____
ROOT
ATOM      1  C   UNL     1       4.746  -4.230  -0.067  0.00  0.00    +0.233 C 
ATOM      2  O   UNL     1       3.609  -4.653  -0.058  0.00  0.00    -0.274 OA
ATOM      3  N   UNL     1       5.784  -5.089  -0.081  0.00  0.00    -0.300 N 
ATOM      4  C   UNL     1       7.167  -4.592  -0.086  0.00  0.00    +0.108 C 
ATOM      5  C   UNL     1       7.914  -5.225  -1.264  0.00  0.00    +0.032 C 
ATOM      6  C   UNL     1       7.794  -6.748  -1.180  0.00  0.00    +0.078 C 
ATOM      7  C   UNL     1       6.320  -7.151  -1.271  0.00  0.00    +0.032 C 
ATOM      8  C   UNL     1       5.555  -6.540  -0.087  0.00  0.00    +0.108 C 
ENDROOT
BRANCH   6   9
ATOM      9  C   UNL     1       8.557  -7.376  -2.319  0.00  0.00    +0.216 C 
ATOM     10  O   UNL     1       9.139  -6.674  -3.119  0.00  0.00    -0.276 OA
ATOM     11  N   UNL     1       8.592  -8.717  -2.449  0.00  0.00    -0.315 N 
ATOM     12  H   UNL     1       8.126  -9.278  -1.809  0.00  0.00    +0.149 HD
BRANCH  11  13
ATOM     13  C   UNL     1       9.333  -9.327  -3.555  0.00  0.00    +0.108 C 
BRANCH  13  14
ATOM     14  C   UNL     1       9.213 -10.850  -3.472  0.00  0.00    +0.052 C 
BRANCH  14  15
ATOM     15  C   UNL     1       9.976 -11.477  -4.610  0.00  0.00    -0.040 C 
ATOM     16  C   UNL     1      11.245 -11.942  -4.580  0.00  0.00    +0.000 A 
ATOM     17  C   UNL     1      12.258 -12.000  -3.519  0.00  0.00    +0.030 A 
ATOM     18  C   UNL     1      13.469 -12.535  -3.796  0.00  0.00    +0.042 A 
ATOM     19  C   UNL     1      13.780 -13.034  -5.070  0.00  0.00    +0.022 A 
ATOM     20  C   UNL     1      12.902 -13.015  -6.094  0.00  0.00    +0.027 A 
ATOM     21  C   UNL     1      11.599 -12.476  -5.915  0.00  0.00    +0.043 A 
ATOM     22  N   UNL     1      10.587 -12.346  -6.738  0.00  0.00    -0.380 N 
ATOM     23  C   UNL     1       9.474 -11.720  -6.016  0.00  0.00    +0.144 C 
ATOM     24 CL   UNL     1      14.669 -12.605  -2.544  0.00  0.00    -0.084 Cl
ATOM     25  H   UNL     1      10.575 -12.621  -7.668  0.00  0.00    +0.160 HD
ENDBRANCH  14  15
ENDBRANCH  13  14
ENDBRANCH  11  13
ENDBRANCH   6   9
BRANCH   1  26
ATOM     26  C   UNL     1       4.997  -2.744  -0.061  0.00  0.00    +0.200 C 
BRANCH  26  29
ATOM     27  C   UNL     1       3.696  -0.685  -0.037  0.00  0.00    +0.244 C 
ATOM     28  O   UNL     1       4.738  -0.060  -0.044  0.00  0.00    -0.270 OA
ATOM     29  N   UNL     1       3.717  -2.032  -0.045  0.00  0.00    -0.303 N 
ATOM     30  H   UNL     1       2.885  -2.531  -0.039  0.00  0.00    +0.150 HD
BRANCH  27  34
ATOM     31  C   UNL     1      -0.017   1.379   0.010  0.00  0.00    +0.000 A 
ATOM     32  C   UNL     1       1.168   2.094   0.002  0.00  0.00    +0.001 A 
ATOM     33  C   UNL     1       2.377   1.429  -0.013  0.00  0.00    +0.013 A 
ATOM     34  C   UNL     1       2.403   0.034  -0.021  0.00  0.00    +0.037 A 
ATOM     35  C   UNL     1       1.204  -0.681  -0.013  0.00  0.00    +0.013 A 
ATOM     36  C   UNL     1       0.002  -0.004   0.002  0.00  0.00    +0.001 A 
ENDBRANCH  27  34
ENDBRANCH  26  29
ENDBRANCH   1  26
TORSDOF 7
