REMARK  Name = ZINC12499266
REMARK  11 active torsions:
REMARK  status: ('A' for Active; 'I' for Inactive)
REMARK    1  A    between atoms: C_1  and  C_2
REMARK    2  A    between atoms: C_2  and  O_3
REMARK    3  A    between atoms: O_3  and  C_4
REMARK    4  A    between atoms: C_4  and  C_6
REMARK    5  A    between atoms: C_10  and  N_11
REMARK    6  A    between atoms: N_11  and  C_12
REMARK    7  A    between atoms: C_12  and  N_14
REMARK    8  A    between atoms: C_15  and  C_17
REMARK    9  A    between atoms: C_17  and  O_18
REMARK   10  A    between atoms: O_18  and  C_19
REMARK   11  A    between atoms: C_23  and  C_25
REMARK                            x       y       z     vdW  Elec       q    Type
REMARK                         _______ _______ _______ _____ _____    ______ ____
ROOT
ATOM      1  N   UNL     1       1.137   2.397   0.004  0.00  0.00    -0.290 N 
ATOM      2  H   UNL     1       1.124   3.367   0.009  0.00  0.00    +0.154 HD
ENDROOT
BRANCH   1   7
ATOM      3  C   UNL     1       3.630   2.250  -0.026  0.00  0.00    +0.091 A 
ATOM      4  C   UNL     1       4.741   1.312  -0.036  0.00  0.00    -0.021 A 
ATOM      5  C   UNL     1       4.393   0.008  -0.040  0.00  0.00    -0.004 A 
ATOM      6  S   UNL     1       2.622   0.011  -0.024  0.00  0.00    -0.077 S 
ATOM      7  C   UNL     1       2.345   1.721  -0.011  0.00  0.00    +0.086 A 
ATOM      8  C   UNL     1       5.314  -1.173  -0.056  0.00  0.00    +0.043 C 
ATOM      9  C   UNL     1       6.718  -0.686  -0.445  0.00  0.00    +0.005 C 
ATOM     10  C   UNL     1       7.062   0.546   0.396  0.00  0.00    +0.005 C 
ATOM     11  C   UNL     1       6.205   1.734  -0.046  0.00  0.00    +0.037 C 
BRANCH   3  12
ATOM     12  C   UNL     1       3.857   3.696  -0.028  0.00  0.00    +0.342 C 
ATOM     13  O   UNL     1       3.964   4.296   1.024  0.00  0.00    -0.245 OA
BRANCH  12  14
ATOM     14  O   UNL     1       3.946   4.363  -1.197  0.00  0.00    -0.461 OA
BRANCH  14  16
ATOM     15  C   UNL     1       4.245   6.374  -2.538  0.00  0.00    +0.048 C 
ATOM     16  C   UNL     1       4.172   5.795  -1.123  0.00  0.00    +0.229 C 
ENDBRANCH  14  16
ENDBRANCH  12  14
ENDBRANCH   3  12
ENDBRANCH   1   7
BRANCH   1  17
ATOM     17  C   UNL     1      -0.021   1.708   0.011  0.00  0.00    +0.141 C 
ATOM     18  S   UNL     1       0.002  -0.004   0.002  0.00  0.00    -0.018 S 
BRANCH  17  19
ATOM     19  N   UNL     1      -1.197   2.366   0.021  0.00  0.00    -0.265 N 
ATOM     20  C   UNL     1      -2.355   1.676   0.022  0.00  0.00    +0.256 C 
ATOM     21  O   UNL     1      -2.339   0.464   0.016  0.00  0.00    -0.272 OA
ATOM     22  H   UNL     1      -1.210   3.336   0.026  0.00  0.00    +0.157 HD
BRANCH  20  23
ATOM     23  C   UNL     1      -3.671   2.412   0.033  0.00  0.00    +0.324 C 
BRANCH  23  24
ATOM     24  O   UNL     1      -4.744   1.468   0.033  0.00  0.00    -0.483 OA
BRANCH  24  25
ATOM     25  C   UNL     1      -6.007   1.971   0.041  0.00  0.00    +0.122 A 
ATOM     26  C   UNL     1      -6.208   3.344   0.055  0.00  0.00    +0.047 A 
ATOM     27  C   UNL     1      -7.492   3.852   0.058  0.00  0.00    +0.019 A 
ATOM     28  C   UNL     1      -8.578   2.993   0.059  0.00  0.00    +0.021 A 
ATOM     29  C   UNL     1      -8.379   1.625   0.051  0.00  0.00    -0.033 A 
ATOM     30  C   UNL     1      -7.096   1.112   0.042  0.00  0.00    +0.050 A 
ATOM     31  C   UNL     1      -9.562   0.692   0.051  0.00  0.00    +0.045 C 
ATOM     32 BR   UNL     1     -10.335   3.692   0.070  0.00  0.00    -0.050 Br
ENDBRANCH  24  25
ENDBRANCH  23  24
ENDBRANCH  20  23
ENDBRANCH  17  19
ENDBRANCH   1  17
TORSDOF 9
