REMARK  Name = ZINC18196346
REMARK  6 active torsions:
REMARK  status: ('A' for Active; 'I' for Inactive)
REMARK    1  A    between atoms: C_1  and  O_2
REMARK    2  A    between atoms: O_2  and  C_3
REMARK    3  A    between atoms: C_7  and  C_10
REMARK    4  A    between atoms: C_8  and  O_9
REMARK    5  A    between atoms: C_17  and  O_18
REMARK    6  A    between atoms: C_25  and  C_28
REMARK                            x       y       z     vdW  Elec       q    Type
REMARK                         _______ _______ _______ _____ _____    ______ ____
ROOT
ATOM      1  C   UNL     1       4.842   7.571  -0.026  0.00  0.00    +0.096 C 
ATOM      2  C   UNL     1       5.040   8.191   1.329  0.00  0.00    +0.067 A 
ATOM      3  C   UNL     1       4.508   7.648   2.468  0.00  0.00    +0.126 A 
ATOM      4  N   UNL     1       4.868   8.431   3.503  0.00  0.00    -0.260 N 
ATOM      5  H   UNL     1       4.630   8.285   4.463  0.00  0.00    +0.190 HD
ATOM      6  N   UNL     1       5.638   9.488   2.992  0.00  0.00    -0.134 NA
ATOM      7  C   UNL     1       5.738   9.339   1.689  0.00  0.00    +0.237 A 
ATOM      8  N   UNL     1       3.742   6.489   2.429  0.00  0.00    -0.303 N 
ATOM      9  C   UNL     1       3.264   6.062   1.215  0.00  0.00    +0.017 C 
ATOM     10  C   UNL     1       3.744   6.533   0.044  0.00  0.00    +0.024 C 
ATOM     11  C   UNL     1       3.233   6.070  -1.183  0.00  0.00    +0.162 C 
ATOM     12  O   UNL     1       3.680   6.521  -2.220  0.00  0.00    -0.292 OA
ATOM     13  C   UNL     1       2.148   5.032  -1.241  0.00  0.00    +0.088 C 
ATOM     14  C   UNL     1       2.248   4.142   0.003  0.00  0.00    +0.039 C 
ATOM     15  C   UNL     1       2.155   5.036   1.241  0.00  0.00    +0.060 C 
ATOM     16  H   UNL     1       3.550   5.993   3.240  0.00  0.00    +0.153 HD
ENDROOT
BRANCH   1  21
ATOM     17  C   UNL     1       7.935   6.727  -2.038  0.00  0.00    +0.162 A 
ATOM     18  C   UNL     1       8.482   5.705  -1.279  0.00  0.00    +0.049 A 
ATOM     19  C   UNL     1       7.852   5.292  -0.120  0.00  0.00    +0.004 A 
ATOM     20  C   UNL     1       6.676   5.896   0.284  0.00  0.00    +0.008 A 
ATOM     21  C   UNL     1       6.125   6.916  -0.469  0.00  0.00    +0.010 A 
ATOM     22  C   UNL     1       6.749   7.331  -1.634  0.00  0.00    +0.163 A 
BRANCH  17  24
ATOM     23  C   UNL     1       9.765   6.465  -3.535  0.00  0.00    +0.277 C 
ATOM     24  O   UNL     1       8.554   7.134  -3.179  0.00  0.00    -0.491 OA
ENDBRANCH  17  24
BRANCH  22  25
ATOM     25  O   UNL     1       6.205   8.331  -2.379  0.00  0.00    -0.503 OA
ATOM     26  H   UNL     1       6.512   9.215  -2.134  0.00  0.00    +0.292 HD
ENDBRANCH  22  25
ENDBRANCH   1  21
BRANCH  14  27
ATOM     27  C   UNL     1       1.115   3.148   0.008  0.00  0.00    -0.006 A 
ATOM     28  C   UNL     1       1.169   1.793   0.001  0.00  0.00    +0.011 A 
ATOM     29  C   UNL     1      -0.013   1.076   0.008  0.00  0.00    +0.008 A 
ATOM     30  C   UNL     1      -1.190   1.748   0.017  0.00  0.00    +0.045 A 
ATOM     31  S   UNL     1      -0.644   3.448   0.027  0.00  0.00    -0.101 S 
ENDBRANCH  14  27
BRANCH   7  32
ATOM     32  O   UNL     1       6.407  10.165   0.841  0.00  0.00    -0.491 OA
ATOM     33  H   UNL     1       6.820  10.913   1.360  0.00  0.00    +0.294 HD
ENDBRANCH   7  32
TORSDOF 5
