REMARK  Name = ZINC05414780
REMARK  5 active torsions:
REMARK  status: ('A' for Active; 'I' for Inactive)
REMARK    1  A    between atoms: C_1  and  O_2
REMARK    2  A    between atoms: O_2  and  C_3
REMARK    3  A    between atoms: C_6  and  C_9
REMARK    4  A    between atoms: N_10  and  N_11
REMARK    5  A    between atoms: C_15  and  C_17
REMARK                            x       y       z     vdW  Elec       q    Type
REMARK                         _______ _______ _______ _____ _____    ______ ____
ROOT
ATOM      1  N   UNL     1       2.197   3.946   0.002  0.00  0.00    -0.215 N 
ATOM      2  C   UNL     1       1.121   3.077   0.007  0.00  0.00    +0.178 A 
ATOM      3  N   UNL     1       1.112   1.752   0.001  0.00  0.00    -0.231 NA
ATOM      4  C   UNL     1      -0.013   1.076   0.008  0.00  0.00    +0.129 A 
ATOM      5  C   UNL     1      -1.207   1.751   0.017  0.00  0.00    +0.047 A 
ATOM      6  S   UNL     1      -0.629   3.443   0.026  0.00  0.00    -0.051 S 
ATOM      7  H   UNL     1       2.047   4.904   0.008  0.00  0.00    +0.176 HD
ENDROOT
BRANCH   5   8
ATOM      8  C   UNL     1      -2.585   1.226   0.021  0.00  0.00    +0.075 A 
ATOM      9  C   UNL     1      -3.508   1.681   0.943  0.00  0.00    +0.027 A 
ATOM     10  C   UNL     1      -4.862   1.127   0.895  0.00  0.00    +0.018 A 
ATOM     11  C   UNL     1      -5.839   1.558   1.802  0.00  0.00    +0.011 A 
ATOM     12  C   UNL     1      -7.097   1.028   1.749  0.00  0.00    +0.001 A 
ATOM     13  C   UNL     1      -7.414   0.065   0.802  0.00  0.00    +0.004 A 
ATOM     14  C   UNL     1      -6.467  -0.373  -0.101  0.00  0.00    +0.047 A 
ATOM     15  C   UNL     1      -5.180   0.152  -0.066  0.00  0.00    +0.139 A 
ATOM     16  O   UNL     1      -4.252  -0.274  -0.949  0.00  0.00    -0.422 OA
ATOM     17  C   UNL     1      -3.000   0.206  -0.950  0.00  0.00    +0.346 A 
ATOM     18  O   UNL     1      -2.197  -0.209  -1.765  0.00  0.00    -0.244 OA
ENDBRANCH   5   8
BRANCH   1  20
ATOM     19  C   UNL     1       4.515   4.257  -0.019  0.00  0.00    +0.138 C 
ATOM     20  N   UNL     1       3.504   3.442  -0.013  0.00  0.00    -0.188 NA
BRANCH  19  24
ATOM     21  C   UNL     1       8.475   2.729  -0.065  0.00  0.00    +0.120 A 
ATOM     22  C   UNL     1       8.263   4.102  -0.056  0.00  0.00    +0.046 A 
ATOM     23  C   UNL     1       6.979   4.603  -0.041  0.00  0.00    +0.013 A 
ATOM     24  C   UNL     1       5.890   3.727  -0.035  0.00  0.00    -0.005 A 
ATOM     25  C   UNL     1       6.109   2.346  -0.039  0.00  0.00    +0.013 A 
ATOM     26  C   UNL     1       7.396   1.855  -0.059  0.00  0.00    +0.046 A 
BRANCH  21  28
ATOM     27  C   UNL     1       9.890   0.819  -0.088  0.00  0.00    +0.277 C 
ATOM     28  O   UNL     1       9.743   2.240  -0.079  0.00  0.00    -0.495 OA
ENDBRANCH  21  28
ENDBRANCH  19  24
ENDBRANCH   1  20
TORSDOF 4
