REMARK  Name = ZINC06464484
REMARK  7 active torsions:
REMARK  status: ('A' for Active; 'I' for Inactive)
REMARK    1  A    between atoms: C_1  and  C_2
REMARK    2  A    between atoms: C_2  and  O_3
REMARK    3  A    between atoms: O_3  and  C_4
REMARK    4  A    between atoms: C_6  and  C_11
REMARK    5  A    between atoms: C_9  and  O_10
REMARK    6  A    between atoms: C_13  and  O_25
REMARK    7  A    between atoms: N_16  and  C_17
REMARK                            x       y       z     vdW  Elec       q    Type
REMARK                         _______ _______ _______ _____ _____    ______ ____
ROOT
ATOM      1  C   UNL     1       0.002  -0.004   0.002  0.00  0.00    +0.028 C 
ATOM      2  C   UNL     1       0.041   1.314   0.343  0.00  0.00    +0.077 C 
ATOM      3  C   UNL     1       1.194   2.225   0.452  0.00  0.00    +0.229 C 
ATOM      4  N   UNL     1       0.949   3.446   0.800  0.00  0.00    -0.186 NA
ATOM      5  C   UNL     1      -0.298   3.882   1.055  0.00  0.00    +0.197 C 
ATOM      6  N   UNL     1      -0.692   5.093   1.416  0.00  0.00    -0.221 NA
ATOM      7  S   UNL     1      -1.292   2.424   0.776  0.00  0.00    -0.045 S 
ENDROOT
BRANCH   6   8
ATOM      8  C   UNL     1       0.226   6.090   1.574  0.00  0.00    +0.085 A 
ATOM      9  C   UNL     1       1.293   6.212   0.678  0.00  0.00    +0.029 A 
ATOM     10  C   UNL     1       2.216   7.222   0.844  0.00  0.00    +0.002 A 
ATOM     11  C   UNL     1       2.090   8.115   1.893  0.00  0.00    +0.002 A 
ATOM     12  C   UNL     1       1.038   8.002   2.785  0.00  0.00    +0.022 A 
ATOM     13  C   UNL     1       0.102   7.000   2.630  0.00  0.00    +0.066 A 
ATOM     14 CL   UNL     1      -1.221   6.864   3.745  0.00  0.00    -0.081 Cl
ENDBRANCH   6   8
BRANCH   1  17
ATOM     15  C   UNL     1      -2.527  -2.758  -0.275  0.00  0.00    +0.162 A 
ATOM     16  C   UNL     1      -1.343  -2.057  -0.391  0.00  0.00    +0.057 A 
ATOM     17  C   UNL     1      -1.252  -0.755   0.121  0.00  0.00    -0.020 A 
ATOM     18  C   UNL     1      -2.361  -0.176   0.751  0.00  0.00    +0.012 A 
ATOM     19  C   UNL     1      -3.539  -0.882   0.856  0.00  0.00    +0.050 A 
ATOM     20  C   UNL     1      -3.628  -2.172   0.349  0.00  0.00    +0.158 A 
BRANCH  20  21
ATOM     21  O   UNL     1      -4.791  -2.865   0.461  0.00  0.00    -0.503 OA
ATOM     22  H   UNL     1      -4.859  -3.390   1.270  0.00  0.00    +0.292 HD
ENDBRANCH  20  21
BRANCH  15  23
ATOM     23  O   UNL     1      -2.619  -4.022  -0.770  0.00  0.00    -0.489 OA
BRANCH  23  25
ATOM     24  C   UNL     1      -1.746  -5.979  -1.886  0.00  0.00    +0.048 C 
ATOM     25  C   UNL     1      -1.452  -4.560  -1.396  0.00  0.00    +0.226 C 
ENDBRANCH  23  25
ENDBRANCH  15  23
ENDBRANCH   1  17
BRANCH   3  26
ATOM     26  O   UNL     1       2.454   1.803   0.199  0.00  0.00    -0.492 OA
ATOM     27  H   UNL     1       3.127   2.489   0.303  0.00  0.00    +0.294 HD
ENDBRANCH   3  26
TORSDOF 6
