REMARK  Name = ZINC06194754
REMARK  11 active torsions:
REMARK  status: ('A' for Active; 'I' for Inactive)
REMARK    1  A    between atoms: C_1  and  C_2
REMARK    2  A    between atoms: C_2  and  O_3
REMARK    3  A    between atoms: O_3  and  C_4
REMARK    4  A    between atoms: C_4  and  C_6
REMARK    5  A    between atoms: C_11  and  C_13
REMARK    6  A    between atoms: C_11  and  C_27
REMARK    7  A    between atoms: C_11  and  N_69
REMARK    8  A    between atoms: C_17  and  C_26
REMARK    9  A    between atoms: C_19  and  C_25
REMARK   10  A    between atoms: N_31  and  C_32
REMARK   11  A    between atoms: C_32  and  C_33
REMARK                            x       y       z     vdW  Elec       q    Type
REMARK                         _______ _______ _______ _____ _____    ______ ____
ROOT
ATOM      1  C   UNL     1      -2.498  -0.657   1.744  0.00  0.00    +0.039 C 
ENDROOT
BRANCH   1   2
ATOM      2  C   UNL     1      -3.069  -2.026   1.479  0.00  0.00    +0.011 A 
ATOM      3  C   UNL     1      -3.476  -2.358   0.229  0.00  0.00    +0.017 A 
ATOM      4  C   UNL     1      -4.025  -3.697   0.005  0.00  0.00    -0.001 A 
ATOM      5  C   UNL     1      -4.462  -4.097  -1.262  0.00  0.00    +0.013 A 
ATOM      6  C   UNL     1      -4.970  -5.353  -1.438  0.00  0.00    -0.050 A 
ATOM      7  C   UNL     1      -5.057  -6.236  -0.370  0.00  0.00    +0.008 A 
ATOM      8  C   UNL     1      -4.633  -5.863   0.887  0.00  0.00    -0.026 A 
ATOM      9  C   UNL     1      -4.112  -4.589   1.090  0.00  0.00    +0.052 A 
ATOM     10  N   UNL     1      -3.681  -4.190   2.337  0.00  0.00    -0.322 N 
ATOM     11  H   UNL     1      -3.748  -4.823   3.108  0.00  0.00    +0.169 HD
ATOM     12  C   UNL     1      -3.172  -2.961   2.532  0.00  0.00    +0.251 A 
ATOM     13  O   UNL     1      -2.796  -2.643   3.647  0.00  0.00    -0.268 OA
ATOM     14  C   UNL     1      -4.733  -6.832   2.037  0.00  0.00    +0.046 C 
ATOM     15  C   UNL     1      -5.439  -5.784  -2.804  0.00  0.00    +0.044 C 
ENDBRANCH   1   2
BRANCH   1  21
ATOM     16  C   UNL     1      -4.934   1.977   4.070  0.00  0.00    +0.094 C 
ATOM     17  C   UNL     1      -3.429   1.904   4.343  0.00  0.00    -0.004 C 
ATOM     18  C   UNL     1      -2.720   1.325   3.116  0.00  0.00    -0.077 C 
ATOM     19  C   UNL     1      -4.684   0.037   2.518  0.00  0.00    -0.077 C 
ATOM     20  C   UNL     1      -5.451   0.578   3.727  0.00  0.00    -0.004 C 
ATOM     21  N   UNL     1      -3.246  -0.032   2.854  0.00  0.00    +0.389 N 
ATOM     22  H   UNL     1      -3.128  -0.603   3.699  0.00  0.00    -0.080 HD
BRANCH  16  23
ATOM     23  C   UNL     1      -5.643   2.492   5.295  0.00  0.00    +0.310 C 
ATOM     24  O   UNL     1      -5.012   2.772   6.287  0.00  0.00    -0.251 OA
BRANCH  23  25
ATOM     25  O   UNL     1      -6.978   2.639   5.286  0.00  0.00    -0.465 OA
BRANCH  25  27
ATOM     26  C   UNL     1      -9.107   3.241   6.302  0.00  0.00    +0.048 C 
ATOM     27  C   UNL     1      -7.594   3.140   6.502  0.00  0.00    +0.229 C 
ENDBRANCH  25  27
ENDBRANCH  23  25
ENDBRANCH  16  23
ENDBRANCH   1  21
BRANCH   1  28
ATOM     28  C   UNL     1      -1.050  -0.785   2.143  0.00  0.00    +0.143 A 
ATOM     29  N   UNL     1      -0.590  -1.196   3.299  0.00  0.00    -0.115 NA
ATOM     30  N   UNL     1       0.697  -1.165   3.250  0.00  0.00    -0.023 NA
ATOM     31  N   UNL     1       1.070  -0.750   2.090  0.00  0.00    -0.044 NA
ATOM     32  N   UNL     1       0.022  -0.500   1.381  0.00  0.00    -0.226 N 
BRANCH  32  33
ATOM     33  C   UNL     1       0.002  -0.004   0.002  0.00  0.00    +0.182 C 
BRANCH  33  34
ATOM     34  C   UNL     1      -0.018   1.503   0.010  0.00  0.00    -0.026 A 
ATOM     35  C   UNL     1      -1.225   2.177   0.020  0.00  0.00    +0.008 A 
ATOM     36  C   UNL     1      -1.245   3.559   0.032  0.00  0.00    +0.038 A 
ATOM     37  C   UNL     1      -0.056   4.268   0.025  0.00  0.00    +0.123 A 
ATOM     38  C   UNL     1       1.152   3.591   0.010  0.00  0.00    +0.038 A 
ATOM     39  C   UNL     1       1.170   2.210   0.003  0.00  0.00    +0.008 A 
ATOM     40  F   UNL     1      -0.074   5.619   0.032  0.00  0.00    -0.205 F 
ENDBRANCH  33  34
ENDBRANCH  32  33
ENDBRANCH   1  28
TORSDOF 8
