REMARK  Name = ZINC08962167
REMARK  5 active torsions:
REMARK  status: ('A' for Active; 'I' for Inactive)
REMARK    1  A    between atoms: C_1  and  C_2
REMARK    2  A    between atoms: C_2  and  C_3
REMARK    3  A    between atoms: C_10  and  N_16
REMARK    4  A    between atoms: N_16  and  S_17
REMARK    5  A    between atoms: S_17  and  C_20
REMARK                            x       y       z     vdW  Elec       q    Type
REMARK                         _______ _______ _______ _____ _____    ______ ____
ROOT
ATOM      1  C   UNL     1      -0.457   5.738   1.096  0.00  0.00    +0.110 C 
ATOM      2  C   UNL     1      -1.664   5.160   0.368  0.00  0.00    +0.251 C 
ATOM      3  O   UNL     1      -1.276   4.411  -0.776  0.00  0.00    -0.489 OA
ATOM      4  C   UNL     1      -0.231   3.555  -0.633  0.00  0.00    +0.133 A 
ATOM      5  C   UNL     1      -0.434   2.187  -0.579  0.00  0.00    +0.048 A 
ATOM      6  C   UNL     1       0.641   1.335  -0.419  0.00  0.00    +0.028 A 
ATOM      7  C   UNL     1       1.933   1.841  -0.322  0.00  0.00    +0.049 A 
ATOM      8  C   UNL     1       2.152   3.207  -0.381  0.00  0.00    +0.041 A 
ATOM      9  C   UNL     1       1.071   4.072  -0.539  0.00  0.00    +0.080 A 
ATOM     10  C   UNL     1       1.267   5.532  -0.613  0.00  0.00    +0.248 C 
ATOM     11  O   UNL     1       2.117   6.006  -1.342  0.00  0.00    -0.270 OA
ATOM     12  N   UNL     1       0.484   6.335   0.147  0.00  0.00    -0.305 N 
ATOM     13  H   UNL     1       0.546   7.300   0.062  0.00  0.00    +0.149 HD
ENDROOT
BRANCH   1  15
ATOM     14  C   UNL     1       1.492   5.186   2.558  0.00  0.00    +0.006 C 
ATOM     15  C   UNL     1       0.247   4.622   1.869  0.00  0.00    +0.022 C 
ENDBRANCH   1  15
BRANCH   7  16
ATOM     16  N   UNL     1       3.015   0.967  -0.164  0.00  0.00    -0.216 N 
ATOM     17  H   UNL     1       3.701   1.158   0.494  0.00  0.00    +0.174 HD
BRANCH  16  18
ATOM     18  S   UNL     1       3.123  -0.395  -1.101  0.00  0.00    +0.073 S 
ATOM     19  O   UNL     1       4.340  -1.036  -0.746  0.00  0.00    -0.150 OA
ATOM     20  O   UNL     1       1.864  -1.048  -1.015  0.00  0.00    -0.150 OA
BRANCH  18  21
ATOM     21  C   UNL     1       3.301   0.136  -2.772  0.00  0.00    +0.116 A 
ATOM     22  C   UNL     1       2.334  -0.148  -3.687  0.00  0.00    +0.029 A 
ATOM     23  C   UNL     1       2.456   0.267  -5.012  0.00  0.00    +0.003 A 
ATOM     24  C   UNL     1       3.550   0.960  -5.431  0.00  0.00    +0.008 A 
ATOM     25  C   UNL     1       4.571   1.267  -4.516  0.00  0.00    -0.016 A 
ATOM     26  C   UNL     1       4.446   0.849  -3.168  0.00  0.00    +0.009 A 
ATOM     27  C   UNL     1       5.467   1.156  -2.253  0.00  0.00    +0.010 A 
ATOM     28  C   UNL     1       6.560   1.850  -2.673  0.00  0.00    +0.001 A 
ATOM     29  C   UNL     1       6.684   2.261  -3.999  0.00  0.00    +0.001 A 
ATOM     30  C   UNL     1       5.715   1.981  -4.912  0.00  0.00    +0.008 A 
ENDBRANCH  18  21
ENDBRANCH  16  18
ENDBRANCH   7  16
TORSDOF 4
