REMARK  Name = ZINC09015550
REMARK  4 active torsions:
REMARK  status: ('A' for Active; 'I' for Inactive)
REMARK    1  A    between atoms: C_4  and  C_7
REMARK    2  A    between atoms: C_9  and  C_28
REMARK    3  A    between atoms: N_17  and  S_18
REMARK    4  A    between atoms: S_18  and  C_21
REMARK                            x       y       z     vdW  Elec       q    Type
REMARK                         _______ _______ _______ _____ _____    ______ ____
ROOT
ATOM      1  C   UNL     1       3.699  -0.689  -0.038  0.00  0.00    +0.073 C 
ATOM      2  C   UNL     1       3.696  -2.035  -0.051  0.00  0.00    +0.030 C 
ATOM      3  C   UNL     1       5.043  -2.736  -0.069  0.00  0.00    +0.152 C 
ATOM      4  N   UNL     1       6.227  -1.871  -0.070  0.00  0.00    -0.207 N 
ATOM      5  C   UNL     1       6.054  -0.501  -0.056  0.00  0.00    +0.239 C 
ATOM      6  N   UNL     1       4.850   0.027  -0.046  0.00  0.00    -0.213 NA
ATOM      7  N   UNL     1       7.279   0.056  -0.060  0.00  0.00    -0.181 NA
ATOM      8  C   UNL     1       8.206  -0.879  -0.076  0.00  0.00    +0.220 C 
ATOM      9  N   UNL     1       7.604  -2.108  -0.083  0.00  0.00    -0.231 N 
ATOM     10  N   UNL     1       9.555  -0.657  -0.086  0.00  0.00    -0.186 N 
ATOM     11  H   UNL     1      10.169  -1.407  -0.098  0.00  0.00    +0.177 HD
ATOM     12  H   UNL     1       8.045  -2.971  -0.095  0.00  0.00    +0.173 HD
ENDROOT
BRANCH   3  13
ATOM     13  C   UNL     1       5.121  -3.629   1.143  0.00  0.00    -0.021 A 
ATOM     14  C   UNL     1       5.431  -3.092   2.378  0.00  0.00    +0.007 A 
ATOM     15  C   UNL     1       5.503  -3.910   3.490  0.00  0.00    +0.020 A 
ATOM     16  C   UNL     1       5.265  -5.268   3.366  0.00  0.00    +0.041 A 
ATOM     17  C   UNL     1       4.956  -5.805   2.129  0.00  0.00    +0.020 A 
ATOM     18  C   UNL     1       4.878  -4.984   1.019  0.00  0.00    +0.007 A 
ATOM     19 CL   UNL     1       5.357  -6.296   4.761  0.00  0.00    -0.084 Cl
ENDBRANCH   3  13
BRANCH   1  23
ATOM     20  C   UNL     1      -0.017   1.379   0.010  0.00  0.00    +0.000 A 
ATOM     21  C   UNL     1       1.169   2.092   0.002  0.00  0.00    +0.001 A 
ATOM     22  C   UNL     1       2.377   1.426  -0.013  0.00  0.00    +0.010 A 
ATOM     23  C   UNL     1       2.402   0.033  -0.021  0.00  0.00    +0.000 A 
ATOM     24  C   UNL     1       1.205  -0.680  -0.013  0.00  0.00    +0.010 A 
ATOM     25  C   UNL     1       0.002  -0.004   0.002  0.00  0.00    +0.001 A 
ENDBRANCH   1  23
BRANCH  10  26
ATOM     26  S   UNL     1      10.139   0.892  -0.076  0.00  0.00    +0.074 S 
ATOM     27  O   UNL     1      11.557   0.791  -0.061  0.00  0.00    -0.150 OA
ATOM     28  O   UNL     1       9.436   1.598  -1.089  0.00  0.00    -0.150 OA
BRANCH  26  29
ATOM     29  C   UNL     1       9.670   1.616   1.461  0.00  0.00    +0.109 A 
ATOM     30  C   UNL     1       8.464   2.283   1.571  0.00  0.00    +0.030 A 
ATOM     31  C   UNL     1       8.096   2.851   2.776  0.00  0.00    +0.022 A 
ATOM     32  C   UNL     1       8.935   2.752   3.872  0.00  0.00    +0.041 A 
ATOM     33  C   UNL     1      10.141   2.084   3.761  0.00  0.00    +0.022 A 
ATOM     34  C   UNL     1      10.506   1.512   2.557  0.00  0.00    +0.030 A 
ATOM     35 CL   UNL     1       8.473   3.466   5.386  0.00  0.00    -0.084 Cl
ENDBRANCH  26  29
ENDBRANCH  10  26
TORSDOF 4
