REMARK  Name = ZINC40839585
REMARK  5 active torsions:
REMARK  status: ('A' for Active; 'I' for Inactive)
REMARK    1  A    between atoms: C_1  and  C_2
REMARK    2  A    between atoms: C_2  and  C_4
REMARK    3  A    between atoms: C_2  and  C_16
REMARK    4  A    between atoms: C_21  and  C_24
REMARK    5  A    between atoms: C_27  and  N_30
REMARK                            x       y       z     vdW  Elec       q    Type
REMARK                         _______ _______ _______ _____ _____    ______ ____
ROOT
ATOM      1  C   UNL     1      -1.412  -0.526   0.013  0.00  0.00    +0.223 C 
ATOM      2  O   UNL     1      -1.790  -1.233   0.922  0.00  0.00    -0.275 OA
ATOM      3  N   UNL     1      -2.256  -0.206  -0.988  0.00  0.00    -0.264 N 
ATOM      4  C   UNL     1      -3.559  -0.687  -0.979  0.00  0.00    +0.165 A 
ATOM      5  N   UNL     1      -4.526  -0.496  -1.856  0.00  0.00    -0.225 NA
ATOM      6  C   UNL     1      -5.724  -1.037  -1.688  0.00  0.00    +0.080 A 
ATOM      7  C   UNL     1      -5.963  -1.808  -0.585  0.00  0.00    +0.076 A 
ATOM      8  S   UNL     1      -4.369  -1.735   0.222  0.00  0.00    -0.060 S 
ATOM      9  H   UNL     1      -1.953   0.360  -1.716  0.00  0.00    +0.157 HD
ENDROOT
BRANCH   6  10
ATOM     10  C   UNL     1      -6.795  -0.808  -2.688  0.00  0.00    +0.001 A 
ATOM     11  C   UNL     1      -8.056  -1.374  -2.505  0.00  0.00    +0.012 A 
ATOM     12  C   UNL     1      -9.049  -1.158  -3.438  0.00  0.00    +0.033 A 
ATOM     13  C   UNL     1      -8.795  -0.381  -4.555  0.00  0.00    +0.126 A 
ATOM     14  C   UNL     1      -7.546   0.183  -4.742  0.00  0.00    +0.033 A 
ATOM     15  C   UNL     1      -6.547  -0.022  -3.812  0.00  0.00    +0.012 A 
BRANCH  13  16
ATOM     16  N   UNL     1      -9.864  -0.154  -5.553  0.00  0.00    +0.056 N 
ATOM     17  O   UNL     1     -10.957  -0.646  -5.392  0.00  0.00    -0.126 OA
ATOM     18  O   UNL     1      -9.645   0.524  -6.529  0.00  0.00    -0.126 OA
ENDBRANCH  13  16
ENDBRANCH   6  10
BRANCH   1  20
ATOM     19  C   UNL     1      -0.019   1.526   0.010  0.00  0.00    +0.019 C 
ATOM     20  C   UNL     1       0.002  -0.004   0.002  0.00  0.00    +0.094 C 
BRANCH  20  21
ATOM     21  C   UNL     1       0.742  -0.511   1.242  0.00  0.00    +0.149 C 
ATOM     22  C   UNL     1       2.116   0.100   1.294  0.00  0.00    +0.231 C 
ATOM     23  O   UNL     1       2.270   1.108   1.951  0.00  0.00    -0.274 OA
ATOM     24  N   UNL     1       3.171  -0.404   0.660  0.00  0.00    -0.284 N 
ATOM     25  C   UNL     1       3.183  -1.541  -0.143  0.00  0.00    +0.047 A 
ATOM     26  C   UNL     1       4.195  -1.704  -1.084  0.00  0.00    +0.024 A 
ATOM     27  C   UNL     1       4.225  -2.828  -1.885  0.00  0.00    +0.002 A 
ATOM     28  C   UNL     1       3.253  -3.803  -1.762  0.00  0.00    +0.001 A 
ATOM     29  C   UNL     1       2.240  -3.654  -0.832  0.00  0.00    +0.016 A 
ATOM     30  C   UNL     1       2.203  -2.528  -0.028  0.00  0.00    +0.030 A 
ATOM     31  S   UNL     1       0.906  -2.320   1.157  0.00  0.00    -0.110 S 
ATOM     32  H   UNL     1       4.013   0.066   0.767  0.00  0.00    +0.155 HD
ENDBRANCH  20  21
ENDBRANCH   1  20
TORSDOF 4
