REMARK  Name = ZINC04514128
REMARK  7 active torsions:
REMARK  status: ('A' for Active; 'I' for Inactive)
REMARK    1  A    between atoms: C_1  and  C_2
REMARK    2  A    between atoms: C_2  and  C_3
REMARK    3  A    between atoms: C_3  and  C_24
REMARK    4  A    between atoms: N_6  and  C_10
REMARK    5  A    between atoms: C_10  and  C_11
REMARK    6  A    between atoms: C_20  and  C_23
REMARK    7  A    between atoms: C_21  and  C_22
REMARK                            x       y       z     vdW  Elec       q    Type
REMARK                         _______ _______ _______ _____ _____    ______ ____
ROOT
ATOM      1  C   UNL     1       0.470   1.806   0.459  0.00  0.00    +0.138 C 
ATOM      2  C   UNL     1       1.735   2.631   0.338  0.00  0.00    +0.251 C 
ATOM      3  O   UNL     1       2.623   2.735   1.157  0.00  0.00    -0.272 OA
ATOM      4  N   UNL     1       1.669   3.225  -0.870  0.00  0.00    -0.220 N 
ATOM      5  C   UNL     1       0.549   2.892  -1.523  0.00  0.00    +0.310 C 
ATOM      6  O   UNL     1       0.266   3.303  -2.631  0.00  0.00    -0.252 OA
ATOM      7  N   UNL     1      -0.228   2.053  -0.815  0.00  0.00    -0.281 N 
ATOM      8  H   UNL     1      -1.081   1.682  -1.089  0.00  0.00    +0.152 HD
ENDROOT
BRANCH   1   9
ATOM      9  C   UNL     1      -0.362   2.278   1.623  0.00  0.00    -0.015 A 
ATOM     10  C   UNL     1      -0.218   1.681   2.862  0.00  0.00    +0.009 A 
ATOM     11  C   UNL     1      -0.977   2.117   3.932  0.00  0.00    +0.039 A 
ATOM     12  C   UNL     1      -1.889   3.144   3.760  0.00  0.00    +0.123 A 
ATOM     13  C   UNL     1      -2.036   3.738   2.518  0.00  0.00    +0.039 A 
ATOM     14  C   UNL     1      -1.273   3.303   1.451  0.00  0.00    +0.009 A 
ATOM     15  F   UNL     1      -2.634   3.568   4.804  0.00  0.00    -0.205 F 
ENDBRANCH   1   9
BRANCH   1  17
ATOM     16  C   UNL     1       1.494  -0.177  -0.666  0.00  0.00    +0.007 C 
ATOM     17  C   UNL     1       0.808   0.321   0.608  0.00  0.00    +0.037 C 
ENDBRANCH   1  17
BRANCH   4  18
ATOM     18  C   UNL     1       2.696   4.123  -1.403  0.00  0.00    +0.154 C 
BRANCH  18  19
ATOM     19  C   UNL     1       3.653   3.339  -2.263  0.00  0.00    -0.012 A 
ATOM     20  C   UNL     1       3.416   2.036  -2.559  0.00  0.00    +0.098 A 
ATOM     21  C   UNL     1       4.329   1.323  -3.368  0.00  0.00    +0.338 A 
ATOM     22  O   UNL     1       4.105   0.155  -3.626  0.00  0.00    -0.245 OA
ATOM     23  O   UNL     1       5.436   1.901  -3.858  0.00  0.00    -0.422 OA
ATOM     24  C   UNL     1       5.730   3.194  -3.602  0.00  0.00    +0.142 A 
ATOM     25  C   UNL     1       4.862   3.964  -2.808  0.00  0.00    +0.023 A 
ATOM     26  C   UNL     1       5.161   5.305  -2.546  0.00  0.00    +0.012 A 
ATOM     27  C   UNL     1       6.304   5.863  -3.073  0.00  0.00    +0.004 A 
ATOM     28  C   UNL     1       7.156   5.103  -3.860  0.00  0.00    -0.044 A 
ATOM     29  C   UNL     1       6.880   3.776  -4.118  0.00  0.00    -0.005 A 
ATOM     30  C   UNL     1       7.816   2.964  -4.975  0.00  0.00    +0.048 C 
ATOM     31  C   UNL     1       8.403   5.729  -4.429  0.00  0.00    +0.044 C 
ENDBRANCH  18  19
ENDBRANCH   4  18
TORSDOF 4
