REMARK  Name = ZINC39654399
REMARK  8 active torsions:
REMARK  status: ('A' for Active; 'I' for Inactive)
REMARK    1  A    between atoms: C_1  and  C_2
REMARK    2  A    between atoms: C_2  and  C_3
REMARK    3  A    between atoms: C_6  and  C_9
REMARK    4  A    between atoms: C_9  and  C_10
REMARK    5  A    between atoms: C_10  and  N_11
REMARK    6  A    between atoms: C_12  and  C_14
REMARK    7  A    between atoms: C_25  and  C_27
REMARK    8  A    between atoms: C_31  and  C_34
REMARK                            x       y       z     vdW  Elec       q    Type
REMARK                         _______ _______ _______ _____ _____    ______ ____
ROOT
ATOM      1  C   UNL     1       5.056  -0.741  -8.911  0.00  0.00    +0.100 C 
ATOM      2  C   UNL     1       4.120  -1.649  -9.741  0.00  0.00    +0.121 C 
ATOM      3  N   UNL     1       3.513  -0.743 -10.744  0.00  0.00    -0.296 N 
ATOM      4  C   UNL     1       4.621   0.156 -11.147  0.00  0.00    +0.115 C 
ATOM      5  C   UNL     1       5.385   0.440  -9.839  0.00  0.00    -0.004 C 
ATOM      6  C   UNL     1       6.886   0.500 -10.106  0.00  0.00    -0.010 C 
ATOM      7  C   UNL     1       7.196   1.717 -10.983  0.00  0.00    -0.082 C 
ATOM      8  N   UNL     1       6.750   2.939 -10.302  0.00  0.00    +0.379 N 
ATOM      9  C   UNL     1       5.292   2.914 -10.133  0.00  0.00    -0.082 C 
ATOM     10  C   UNL     1       4.902   1.748  -9.220  0.00  0.00    -0.010 C 
ATOM     11  C   UNL     1       2.241  -0.738 -11.190  0.00  0.00    +0.251 C 
ATOM     12  O   UNL     1       1.892   0.076 -12.023  0.00  0.00    -0.270 OA
ATOM     13  H   UNL     1       7.192   2.998  -9.397  0.00  0.00    -0.086 HD
ATOM     14  H   UNL     1       7.010   3.743 -10.854  0.00  0.00    -0.086 HD
ENDROOT
BRANCH  11  15
ATOM     15  C   UNL     1       1.271  -1.720 -10.666  0.00  0.00    +0.091 A 
ATOM     16  C   UNL     1       0.501  -1.415  -9.540  0.00  0.00    +0.056 A 
ATOM     17  C   UNL     1      -0.404  -2.338  -9.056  0.00  0.00    +0.021 A 
ATOM     18  C   UNL     1      -0.550  -3.564  -9.682  0.00  0.00    +0.007 A 
ATOM     19  C   UNL     1       0.208  -3.875 -10.795  0.00  0.00    -0.014 A 
ATOM     20  C   UNL     1       1.115  -2.958 -11.296  0.00  0.00    +0.140 A 
ATOM     21  F   UNL     1       1.851  -3.261 -12.388  0.00  0.00    -0.204 F 
ATOM     22  C   UNL     1       0.042  -5.213 -11.469  0.00  0.00    +0.047 C 
ATOM     23 CL   UNL     1       0.681   0.121  -8.752  0.00  0.00    -0.083 Cl
ENDBRANCH  11  15
BRANCH   1  25
ATOM     24  N   UNL     1       5.065   0.105  -6.587  0.00  0.00    -0.315 N 
ATOM     25  C   UNL     1       4.351  -0.254  -7.671  0.00  0.00    +0.218 C 
ATOM     26  O   UNL     1       3.140  -0.186  -7.650  0.00  0.00    -0.275 OA
ATOM     27  H   UNL     1       6.034   0.050  -6.604  0.00  0.00    +0.149 HD
BRANCH  24  28
ATOM     28  C   UNL     1       4.380   0.578  -5.382  0.00  0.00    +0.109 C 
BRANCH  28  29
ATOM     29  C   UNL     1       5.414   0.918  -4.307  0.00  0.00    +0.054 C 
BRANCH  29  33
ATOM     30  C   UNL     1       3.417   2.299  -0.792  0.00  0.00    -0.048 A 
ATOM     31  C   UNL     1       3.683   0.952  -0.952  0.00  0.00    +0.004 A 
ATOM     32  C   UNL     1       4.329   0.505  -2.089  0.00  0.00    +0.004 A 
ATOM     33  C   UNL     1       4.709   1.405  -3.067  0.00  0.00    -0.046 A 
ATOM     34  C   UNL     1       4.442   2.752  -2.908  0.00  0.00    +0.004 A 
ATOM     35  C   UNL     1       3.792   3.199  -1.772  0.00  0.00    +0.004 A 
BRANCH  30  37
ATOM     36  C   UNL     1       1.201   2.771   0.215  0.00  0.00    +0.009 C 
ATOM     37  C   UNL     1       2.713   2.786   0.448  0.00  0.00    +0.032 C 
ENDBRANCH  30  37
ENDBRANCH  29  33
ENDBRANCH  28  29
ENDBRANCH  24  28
ENDBRANCH   1  25
TORSDOF 6
