REMARK  Name = ZINC52094981
REMARK  5 active torsions:
REMARK  status: ('A' for Active; 'I' for Inactive)
REMARK    1  A    between atoms: C_1  and  C_2
REMARK    2  A    between atoms: C_2  and  C_3
REMARK    3  A    between atoms: C_6  and  C_9
REMARK    4  A    between atoms: C_9  and  C_11
REMARK    5  A    between atoms: C_9  and  O_24
REMARK                            x       y       z     vdW  Elec       q    Type
REMARK                         _______ _______ _______ _____ _____    ______ ____
ROOT
ATOM      1  C   UNL     1       3.042  -0.770   5.628  0.00  0.00    +0.001 A 
ATOM      2  C   UNL     1       2.160  -0.531   6.664  0.00  0.00    +0.035 A 
ATOM      3  C   UNL     1       2.385   0.525   7.532  0.00  0.00    +0.067 A 
ATOM      4  C   UNL     1       3.503   1.343   7.357  0.00  0.00    +0.068 A 
ATOM      5  C   UNL     1       4.383   1.097   6.315  0.00  0.00    +0.043 A 
ATOM      6  C   UNL     1       4.154   0.037   5.457  0.00  0.00    +0.026 A 
ATOM      7 BR   UNL     1       5.358  -0.305   4.040  0.00  0.00    -0.050 Br
ATOM      8  N   UNL     1       3.462   2.302   8.367  0.00  0.00    -0.306 N 
ATOM      9  H   UNL     1       4.110   3.011   8.503  0.00  0.00    +0.170 HD
ATOM     10  C   UNL     1       2.370   2.078   9.121  0.00  0.00    +0.325 A 
ATOM     11  O   UNL     1       2.038   2.738  10.088  0.00  0.00    -0.247 OA
ATOM     12  N   UNL     1       1.700   1.012   8.643  0.00  0.00    -0.306 N 
ATOM     13  H   UNL     1       0.879   0.646   9.010  0.00  0.00    +0.170 HD
ENDROOT
BRANCH   1  14
ATOM     14  C   UNL     1       2.797  -1.919   4.683  0.00  0.00    +0.176 C 
BRANCH  14  18
ATOM     15  C   UNL     1       0.731  -0.503   1.223  0.00  0.00    -0.048 A 
ATOM     16  C   UNL     1       2.097  -0.710   1.176  0.00  0.00    +0.004 A 
ATOM     17  C   UNL     1       2.766  -1.167   2.296  0.00  0.00    +0.007 A 
ATOM     18  C   UNL     1       2.068  -1.419   3.463  0.00  0.00    -0.015 A 
ATOM     19  C   UNL     1       0.702  -1.212   3.510  0.00  0.00    +0.007 A 
ATOM     20  C   UNL     1       0.034  -0.750   2.391  0.00  0.00    +0.004 A 
BRANCH  15  22
ATOM     21  C   UNL     1      -0.019   1.526   0.010  0.00  0.00    +0.009 C 
ATOM     22  C   UNL     1       0.002  -0.004   0.002  0.00  0.00    +0.032 C 
ENDBRANCH  15  22
ENDBRANCH  14  18
BRANCH  14  23
ATOM     23  O   UNL     1       2.005  -2.913   5.337  0.00  0.00    -0.382 OA
ATOM     24  H   UNL     1       1.140  -2.595   5.631  0.00  0.00    +0.211 HD
ENDBRANCH  14  23
ENDBRANCH   1  14
TORSDOF 4
