REMARK  Name = ZINC67647836
REMARK  3 active torsions:
REMARK  status: ('A' for Active; 'I' for Inactive)
REMARK    1  A    between atoms: C_3  and  C_6
REMARK    2  A    between atoms: C_14  and  C_16
REMARK    3  A    between atoms: C_17  and  C_18
REMARK                            x       y       z     vdW  Elec       q    Type
REMARK                         _______ _______ _______ _____ _____    ______ ____
ROOT
ATOM      1  C   UNL     1       3.604   1.915   0.191  0.00  0.00    +0.010 A 
ATOM      2  C   UNL     1       3.582   1.314  -1.025  0.00  0.00    +0.057 A 
ATOM      3  S   UNL     1       4.992   0.224  -0.978  0.00  0.00    -0.076 S 
ATOM      4  C   UNL     1       5.577   0.591   0.655  0.00  0.00    +0.116 A 
ATOM      5  C   UNL     1       4.665   1.561   1.129  0.00  0.00    +0.082 A 
ATOM      6  C   UNL     1       4.908   2.045   2.442  0.00  0.00    +0.283 A 
ATOM      7  O   UNL     1       4.088   2.973   2.991  0.00  0.00    -0.265 OA
ATOM      8  N   UNL     1       5.939   1.582   3.122  0.00  0.00    -0.188 NA
ATOM      9  C   UNL     1       6.767   0.669   2.616  0.00  0.00    +0.176 A 
ATOM     10  N   UNL     1       6.581   0.173   1.395  0.00  0.00    -0.219 NA
ENDROOT
BRANCH   1  13
ATOM     11  C   UNL     1       1.165   4.803   0.404  0.00  0.00    +0.008 A 
ATOM     12  C   UNL     1       2.149   4.007  -0.145  0.00  0.00    +0.016 A 
ATOM     13  C   UNL     1       2.577   2.912   0.557  0.00  0.00    +0.021 A 
ATOM     14  S   UNL     1       1.571   3.003   2.029  0.00  0.00    -0.097 S 
ATOM     15  C   UNL     1       0.655   4.479   1.619  0.00  0.00    +0.046 A 
ENDBRANCH   1  13
BRANCH   9  16
ATOM     16  C   UNL     1       7.900   0.192   3.425  0.00  0.00    +0.089 C 
ATOM     17  C   UNL     1       7.690  -0.683   4.429  0.00  0.00    +0.068 C 
ATOM     18 CL   UNL     1       9.507   0.757   3.088  0.00  0.00    -0.080 Cl
BRANCH  17  19
ATOM     19  C   UNL     1       6.370  -1.299   4.601  0.00  0.00    +0.110 A 
ATOM     20  N   UNL     1       5.999  -2.079   5.621  0.00  0.00    -0.346 N 
ATOM     21  H   UNL     1       6.555  -2.336   6.373  0.00  0.00    +0.167 HD
ATOM     22  C   UNL     1       4.719  -2.446   5.423  0.00  0.00    +0.102 A 
ATOM     23  C   UNL     1       4.305  -1.881   4.267  0.00  0.00    +0.102 A 
ATOM     24  N   UNL     1       5.333  -1.169   3.769  0.00  0.00    -0.346 N 
ATOM     25  H   UNL     1       5.324  -0.653   2.947  0.00  0.00    +0.167 HD
ENDBRANCH  17  19
ENDBRANCH   9  16
TORSDOF 3
