REMARK  Name = ZINC06740022
REMARK  11 active torsions:
REMARK  status: ('A' for Active; 'I' for Inactive)
REMARK    1  A    between atoms: C_1  and  C_2
REMARK    2  A    between atoms: C_2  and  C_3
REMARK    3  A    between atoms: C_12  and  C_13
REMARK    4  A    between atoms: C_13  and  C_15
REMARK    5  A    between atoms: C_13  and  C_23
REMARK    6  A    between atoms: C_15  and  C_16
REMARK    7  A    between atoms: N_18  and  C_19
REMARK    8  A    between atoms: C_19  and  C_20
REMARK    9  A    between atoms: C_20  and  N_59
REMARK   10  A    between atoms: C_21  and  N_59
REMARK   11  A    between atoms: C_22  and  N_59
REMARK                            x       y       z     vdW  Elec       q    Type
REMARK                         _______ _______ _______ _____ _____    ______ ____
ROOT
ATOM      1  C   UNL     1       3.835   2.189   5.524  0.00  0.00    +0.063 C 
ENDROOT
BRANCH   1  11
ATOM      2  C   UNL     1       0.000   1.080   2.488  0.00  0.00    -0.024 A 
ATOM      3  C   UNL     1      -0.411  -0.077   3.113  0.00  0.00    +0.005 A 
ATOM      4  C   UNL     1       0.256  -0.550   4.235  0.00  0.00    +0.001 A 
ATOM      5  C   UNL     1       1.325   0.130   4.745  0.00  0.00    +0.010 A 
ATOM      6  C   UNL     1       1.755   1.308   4.131  0.00  0.00    +0.004 A 
ATOM      7  C   UNL     1       1.086   1.789   2.990  0.00  0.00    +0.050 A 
ATOM      8  N   UNL     1       1.720   2.949   2.607  0.00  0.00    -0.360 N 
ATOM      9  H   UNL     1       1.469   3.496   1.846  0.00  0.00    +0.165 HD
ATOM     10  C   UNL     1       2.758   3.215   3.458  0.00  0.00    +0.088 A 
ATOM     11  C   UNL     1       2.833   2.263   4.401  0.00  0.00    -0.014 A 
BRANCH   2  13
ATOM     12  C   UNL     1      -0.013   1.086   0.008  0.00  0.00    +0.009 C 
ATOM     13  C   UNL     1      -0.729   1.579   1.267  0.00  0.00    +0.034 C 
ENDBRANCH   2  13
ENDBRANCH   1  11
BRANCH   1  14
ATOM     14  C   UNL     1       5.227   2.115   4.950  0.00  0.00    +0.006 A 
ATOM     15  C   UNL     1       5.699   3.137   4.147  0.00  0.00    +0.008 A 
ATOM     16  C   UNL     1       6.975   3.072   3.620  0.00  0.00    +0.004 A 
ATOM     17  C   UNL     1       7.785   1.985   3.893  0.00  0.00    +0.049 A 
ATOM     18  C   UNL     1       7.319   0.958   4.696  0.00  0.00    +0.167 A 
ATOM     19  C   UNL     1       6.035   1.026   5.232  0.00  0.00    +0.170 A 
ATOM     20  O   UNL     1       5.813  -0.097   5.976  0.00  0.00    -0.452 OA
ATOM     21  C   UNL     1       6.822  -1.038   5.565  0.00  0.00    +0.466 C 
ATOM     22  O   UNL     1       7.904  -0.203   5.111  0.00  0.00    -0.453 OA
ENDBRANCH   1  14
BRANCH   1  23
ATOM     23  C   UNL     1       3.711   3.436   6.401  0.00  0.00    +0.108 C 
BRANCH  23  24
ATOM     24  C   UNL     1       4.626   3.306   7.591  0.00  0.00    +0.214 C 
ATOM     25  O   UNL     1       5.310   2.314   7.725  0.00  0.00    -0.276 OA
ATOM     26  N   UNL     1       4.684   4.293   8.508  0.00  0.00    -0.317 N 
ATOM     27  H   UNL     1       4.137   5.087   8.401  0.00  0.00    +0.149 HD
BRANCH  26  28
ATOM     28  C   UNL     1       5.574   4.166   9.665  0.00  0.00    +0.085 C 
BRANCH  28  29
ATOM     29  C   UNL     1       5.449   5.414  10.542  0.00  0.00    -0.061 C 
BRANCH  29  32
ATOM     30  C   UNL     1       6.430   6.555  12.439  0.00  0.00    -0.097 C 
ATOM     31  C   UNL     1       5.907   4.195  12.584  0.00  0.00    -0.097 C 
ATOM     32  N   UNL     1       6.368   5.280  11.693  0.00  0.00    +0.377 N 
ATOM     33  H   UNL     1       7.306   5.051  11.345  0.00  0.00    -0.083 HD
ENDBRANCH  29  32
ENDBRANCH  28  29
ENDBRANCH  26  28
ENDBRANCH  23  24
ENDBRANCH   1  23
TORSDOF 8
