REMARK  Name = ZINC39916279
REMARK  6 active torsions:
REMARK  status: ('A' for Active; 'I' for Inactive)
REMARK    1  A    between atoms: C_1  and  C_2
REMARK    2  A    between atoms: C_2  and  O_3
REMARK    3  A    between atoms: O_3  and  C_4
REMARK    4  A    between atoms: C_4  and  C_6
REMARK    5  A    between atoms: C_7  and  N_30
REMARK    6  A    between atoms: C_21  and  C_23
REMARK                            x       y       z     vdW  Elec       q    Type
REMARK                         _______ _______ _______ _____ _____    ______ ____
ROOT
ATOM      1  C   UNL     1       1.444  -2.322  -2.456  0.00  0.00    +0.102 C 
ATOM      2  C   UNL     1       1.597  -3.663  -2.554  0.00  0.00    +0.194 C 
ATOM      3  O   UNL     1       2.203  -4.237  -3.620  0.00  0.00    -0.445 OA
ATOM      4  C   UNL     1       2.473  -3.439  -4.656  0.00  0.00    +0.129 C 
ATOM      5  C   UNL     1       2.306  -3.822  -5.978  0.00  0.00    +0.035 A 
ATOM      6  C   UNL     1       1.855  -5.115  -6.315  0.00  0.00    +0.013 A 
ATOM      7  C   UNL     1       1.714  -5.458  -7.624  0.00  0.00    +0.001 A 
ATOM      8  C   UNL     1       2.002  -4.555  -8.644  0.00  0.00    +0.002 A 
ATOM      9  C   UNL     1       2.436  -3.291  -8.381  0.00  0.00    +0.024 A 
ATOM     10  C   UNL     1       2.603  -2.867  -7.053  0.00  0.00    +0.044 A 
ATOM     11  N   UNL     1       3.020  -1.621  -6.795  0.00  0.00    -0.284 N 
ATOM     12  C   UNL     1       3.224  -1.150  -5.580  0.00  0.00    +0.229 C 
ATOM     13  O   UNL     1       3.600  -0.003  -5.427  0.00  0.00    -0.275 OA
ATOM     14  C   UNL     1       2.990  -2.038  -4.378  0.00  0.00    +0.154 C 
ATOM     15  C   UNL     1       1.907  -1.368  -3.523  0.00  0.00    +0.080 C 
ATOM     16  H   UNL     1       3.182  -1.030  -7.546  0.00  0.00    +0.155 HD
ENDROOT
BRANCH  15  17
ATOM     17  C   UNL     1       2.475  -0.131  -2.877  0.00  0.00    -0.038 A 
ATOM     18  C   UNL     1       3.562  -0.230  -2.030  0.00  0.00    +0.006 A 
ATOM     19  C   UNL     1       4.083   0.904  -1.437  0.00  0.00    +0.020 A 
ATOM     20  C   UNL     1       3.516   2.140  -1.693  0.00  0.00    +0.041 A 
ATOM     21  C   UNL     1       2.428   2.240  -2.541  0.00  0.00    +0.020 A 
ATOM     22  C   UNL     1       1.911   1.105  -3.138  0.00  0.00    +0.006 A 
ATOM     23 CL   UNL     1       4.170   3.566  -0.948  0.00  0.00    -0.084 Cl
ENDBRANCH  15  17
BRANCH   2  24
ATOM     24  N   UNL     1       1.125  -4.462  -1.547  0.00  0.00    -0.329 N 
ATOM     25  H   UNL     1       0.610  -4.075  -0.822  0.00  0.00    +0.145 HD
ATOM     26  H   UNL     1       1.307  -5.415  -1.559  0.00  0.00    +0.145 HD
ENDBRANCH   2  24
BRANCH   1  27
ATOM     27  C   UNL     1       0.821  -1.798  -1.311  0.00  0.00    +0.341 C 
ATOM     28  O   UNL     1      -0.331  -1.408  -1.369  0.00  0.00    -0.245 OA
BRANCH  27  29
ATOM     29  O   UNL     1       1.500  -1.727  -0.146  0.00  0.00    -0.462 OA
BRANCH  29  31
ATOM     30  C   UNL     1       1.728  -1.184   2.198  0.00  0.00    +0.048 C 
ATOM     31  C   UNL     1       0.805  -1.183   0.978  0.00  0.00    +0.229 C 
ENDBRANCH  29  31
ENDBRANCH  27  29
ENDBRANCH   1  27
TORSDOF 5
