REMARK  Name = ZINC12704314
REMARK  9 active torsions:
REMARK  status: ('A' for Active; 'I' for Inactive)
REMARK    1  A    between atoms: C_3  and  C_6
REMARK    2  A    between atoms: C_6  and  N_7
REMARK    3  A    between atoms: N_7  and  C_8
REMARK    4  A    between atoms: C_8  and  C_10
REMARK    5  A    between atoms: C_8  and  C_15
REMARK    6  A    between atoms: N_17  and  C_18
REMARK    7  A    between atoms: C_23  and  C_25
REMARK    8  A    between atoms: C_25  and  N_26
REMARK    9  A    between atoms: C_28  and  C_31
REMARK                            x       y       z     vdW  Elec       q    Type
REMARK                         _______ _______ _______ _____ _____    ______ ____
ROOT
ATOM      1  N   UNL     1       2.284   5.225   0.649  0.00  0.00    -0.279 N 
ATOM      2  C   UNL     1       2.381   5.955   1.778  0.00  0.00    +0.240 C 
ATOM      3  O   UNL     1       1.387   6.447   2.269  0.00  0.00    -0.273 OA
ENDROOT
BRANCH   1   4
ATOM      4  C   UNL     1       3.484   4.631   0.056  0.00  0.00    +0.151 C 
BRANCH   4   7
ATOM      5  C   UNL     1       5.318   7.216  -2.057  0.00  0.00    +0.008 A 
ATOM      6  C   UNL     1       4.987   6.489  -0.929  0.00  0.00    +0.013 A 
ATOM      7  C   UNL     1       4.019   5.545  -1.017  0.00  0.00    +0.007 A 
ATOM      8  S   UNL     1       3.547   5.658  -2.735  0.00  0.00    -0.100 S 
ATOM      9  C   UNL     1       4.665   6.963  -3.218  0.00  0.00    +0.045 A 
ENDBRANCH   4   7
ENDBRANCH   1   4
BRANCH   1  10
ATOM     10  C   UNL     1       0.978   5.026   0.016  0.00  0.00    +0.199 C 
BRANCH  10  11
ATOM     11  C   UNL     1       0.446   6.350  -0.468  0.00  0.00    +0.019 A 
ATOM     12  C   UNL     1      -0.133   6.655  -1.655  0.00  0.00    +0.013 A 
ATOM     13  C   UNL     1      -0.554   7.952  -1.881  0.00  0.00    +0.008 A 
ATOM     14  C   UNL     1      -0.367   8.883  -0.913  0.00  0.00    +0.045 A 
ATOM     15  S   UNL     1       0.415   7.924   0.374  0.00  0.00    -0.099 S 
ENDBRANCH  10  11
BRANCH  10  16
ATOM     16  C   UNL     1       0.019   4.435   1.018  0.00  0.00    +0.239 C 
ATOM     17  O   UNL     1       0.364   4.280   2.170  0.00  0.00    -0.273 OA
ATOM     18  N   UNL     1      -1.223   4.080   0.633  0.00  0.00    -0.311 N 
ATOM     19  H   UNL     1      -1.500   4.204  -0.289  0.00  0.00    +0.149 HD
BRANCH  18  20
ATOM     20  C   UNL     1      -2.155   3.506   1.606  0.00  0.00    +0.073 C 
ATOM     21  C   UNL     1      -1.973   1.975   1.674  0.00  0.00    +0.022 C 
ATOM     22  C   UNL     1      -3.410   1.430   1.865  0.00  0.00    +0.002 C 
ATOM     23  C   UNL     1      -4.255   2.370   0.969  0.00  0.00    +0.002 C 
ATOM     24  C   UNL     1      -3.606   3.756   1.158  0.00  0.00    +0.022 C 
ENDBRANCH  18  20
ENDBRANCH  10  16
ENDBRANCH   1  10
BRANCH   2  25
ATOM     25  C   UNL     1       3.724   6.160   2.430  0.00  0.00    +0.264 C 
BRANCH  25  26
ATOM     26  N   UNL     1       3.563   6.982   3.632  0.00  0.00    -0.154 N 
ATOM     27  N   UNL     1       3.632   8.269   3.670  0.00  0.00    -0.130 NA
ATOM     28  C   UNL     1       3.435   8.646   4.917  0.00  0.00    +0.205 A 
ATOM     29  N   UNL     1       3.252   7.528   5.633  0.00  0.00    -0.108 NA
ATOM     30  N   UNL     1       3.336   6.533   4.816  0.00  0.00    -0.045 NA
BRANCH  28  31
ATOM     31  C   UNL     1       3.424  10.039   5.431  0.00  0.00    +0.023 A 
ATOM     32  C   UNL     1       3.638  11.106   4.561  0.00  0.00    +0.014 A 
ATOM     33  C   UNL     1       3.621  12.399   5.042  0.00  0.00    +0.039 A 
ATOM     34  C   UNL     1       3.404  12.637   6.389  0.00  0.00    +0.123 A 
ATOM     35  C   UNL     1       3.197  11.579   7.258  0.00  0.00    +0.039 A 
ATOM     36  C   UNL     1       3.206  10.283   6.785  0.00  0.00    +0.014 A 
ATOM     37  F   UNL     1       3.394  13.905   6.856  0.00  0.00    -0.205 F 
ENDBRANCH  28  31
ENDBRANCH  25  26
ENDBRANCH   2  25
TORSDOF 9
