REMARK  Name = ZINC09329506
REMARK  8 active torsions:
REMARK  status: ('A' for Active; 'I' for Inactive)
REMARK    1  A    between atoms: C_4  and  O_33
REMARK    2  A    between atoms: C_5  and  C_7
REMARK    3  A    between atoms: N_8  and  N_9
REMARK    4  A    between atoms: C_10  and  C_12
REMARK    5  A    between atoms: C_14  and  C_18
REMARK    6  A    between atoms: C_22  and  O_24
REMARK    7  A    between atoms: O_24  and  C_25
REMARK    8  A    between atoms: C_25  and  C_26
REMARK                            x       y       z     vdW  Elec       q    Type
REMARK                         _______ _______ _______ _____ _____    ______ ____
ROOT
ATOM      1  C   UNL     1       3.619  -6.309  -0.069  0.00  0.00    +0.122 A 
ATOM      2  C   UNL     1       4.742  -7.115  -0.079  0.00  0.00    +0.062 A 
ATOM      3  C   UNL     1       4.251  -8.434  -0.084  0.00  0.00    +0.093 A 
ATOM      4  N   UNL     1       2.936  -8.369  -0.077  0.00  0.00    -0.173 NA
ATOM      5  N   UNL     1       2.540  -7.147  -0.063  0.00  0.00    -0.272 N 
ATOM      6  H   UNL     1       1.613  -6.862  -0.051  0.00  0.00    +0.189 HD
ENDROOT
BRANCH   3   7
ATOM      7  C   UNL     1       5.068  -9.673  -0.095  0.00  0.00    +0.006 A 
ATOM      8  C   UNL     1       6.459  -9.594  -0.097  0.00  0.00    +0.010 A 
ATOM      9  C   UNL     1       7.216 -10.747  -0.107  0.00  0.00    +0.004 A 
ATOM     10  C   UNL     1       6.599 -11.984  -0.116  0.00  0.00    +0.046 A 
ATOM     11  C   UNL     1       5.214 -12.072  -0.115  0.00  0.00    +0.122 A 
ATOM     12  C   UNL     1       4.446 -10.919  -0.099  0.00  0.00    +0.055 A 
BRANCH  11  13
ATOM     13  O   UNL     1       4.610 -13.290  -0.124  0.00  0.00    -0.487 OA
BRANCH  13  14
ATOM     14  C   UNL     1       5.463 -14.437  -0.135  0.00  0.00    +0.264 C 
BRANCH  14  15
ATOM     15  C   UNL     1       4.623 -15.688  -0.144  0.00  0.00    -0.010 A 
ATOM     16  C   UNL     1       4.235 -16.268   1.049  0.00  0.00    +0.008 A 
ATOM     17  C   UNL     1       3.464 -17.415   1.041  0.00  0.00    +0.020 A 
ATOM     18  C   UNL     1       3.081 -17.983  -0.161  0.00  0.00    +0.041 A 
ATOM     19  C   UNL     1       3.470 -17.401  -1.355  0.00  0.00    +0.020 A 
ATOM     20  C   UNL     1       4.236 -16.251  -1.346  0.00  0.00    +0.008 A 
ATOM     21 CL   UNL     1       2.114 -19.424  -0.172  0.00  0.00    -0.084 Cl
ENDBRANCH  14  15
ENDBRANCH  13  14
ENDBRANCH  11  13
ENDBRANCH   3   7
BRANCH   1  23
ATOM     22  N   UNL     1       2.412  -4.186  -0.045  0.00  0.00    -0.202 N 
ATOM     23  C   UNL     1       3.592  -4.838  -0.060  0.00  0.00    +0.281 C 
ATOM     24  O   UNL     1       4.634  -4.210  -0.067  0.00  0.00    -0.267 OA
ATOM     25  H   UNL     1       1.581  -4.686  -0.040  0.00  0.00    +0.178 HD
BRANCH  22  27
ATOM     26  C   UNL     1       1.250  -2.157  -0.022  0.00  0.00    +0.142 C 
ATOM     27  N   UNL     1       2.386  -2.785  -0.037  0.00  0.00    -0.187 NA
BRANCH  26  32
ATOM     28  C   UNL     1      -0.017   1.375   0.010  0.00  0.00    +0.001 A 
ATOM     29  C   UNL     1       1.169   2.089   0.002  0.00  0.00    +0.004 A 
ATOM     30  C   UNL     1       2.383   1.428  -0.013  0.00  0.00    +0.046 A 
ATOM     31  C   UNL     1       2.420   0.044  -0.021  0.00  0.00    +0.125 A 
ATOM     32  C   UNL     1       1.222  -0.684  -0.013  0.00  0.00    +0.036 A 
ATOM     33  C   UNL     1       0.002  -0.004   0.002  0.00  0.00    +0.013 A 
BRANCH  31  34
ATOM     34  O   UNL     1       3.613  -0.606  -0.036  0.00  0.00    -0.506 OA
ATOM     35  H   UNL     1       3.967  -0.799   0.843  0.00  0.00    +0.292 HD
ENDBRANCH  31  34
ENDBRANCH  26  32
ENDBRANCH  22  27
ENDBRANCH   1  23
TORSDOF 8
