REMARK  Name = ZINC32629421
REMARK  1 active torsions:
REMARK  status: ('A' for Active; 'I' for Inactive)
REMARK    1  A    between atoms: C_8  and  C_10
REMARK                            x       y       z     vdW  Elec       q    Type
REMARK                         _______ _______ _______ _____ _____    ______ ____
ROOT
ATOM      1  C   UNL     1      -0.550  -0.768   1.206  0.00  0.00    +0.035 C 
ATOM      2  C   UNL     1       0.911  -1.064   1.702  0.00  0.00    +0.160 C 
ATOM      3  O   UNL     1       1.635   0.137   1.361  0.00  0.00    -0.375 OA
ATOM      4  C   UNL     1       1.166   0.556   0.068  0.00  0.00    +0.136 C 
ATOM      5  C   UNL     1      -0.270   0.020  -0.096  0.00  0.00    +0.037 C 
ATOM      6  C   UNL     1      -0.019   1.525   0.010  0.00  0.00    +0.137 C 
ENDROOT
BRANCH   6   7
ATOM      7  C   UNL     1      -0.421   2.207   1.292  0.00  0.00    +0.362 C 
ATOM      8  O   UNL     1       0.403   2.411   2.152  0.00  0.00    -0.246 OA
ATOM      9  O   UNL     1      -1.694   2.588   1.479  0.00  0.00    -0.246 OA
ENDBRANCH   6   7
TORSDOF 1
