REMARK  Name = ZINC55758046
REMARK  9 active torsions:
REMARK  status: ('A' for Active; 'I' for Inactive)
REMARK    1  A    between atoms: C_1  and  C_2
REMARK    2  A    between atoms: N_11  and  C_15
REMARK    3  A    between atoms: C_15  and  C_16
REMARK    4  A    between atoms: N_18  and  C_19
REMARK    5  A    between atoms: C_19  and  C_21
REMARK    6  A    between atoms: C_19  and  C_22
REMARK    7  A    between atoms: C_22  and  N_23
REMARK    8  A    between atoms: C_25  and  C_32
REMARK    9  A    between atoms: C_28  and  C_31
REMARK                            x       y       z     vdW  Elec       q    Type
REMARK                         _______ _______ _______ _____ _____    ______ ____
ROOT
ATOM      1  C   UNL     1       3.253   3.006   1.919  0.00  0.00    +0.231 C 
ATOM      2  O   UNL     1       2.415   3.434   1.154  0.00  0.00    -0.274 OA
ATOM      3  N   UNL     1       4.183   3.834   2.433  0.00  0.00    -0.313 N 
ATOM      4  H   UNL     1       4.853   3.491   3.044  0.00  0.00    +0.149 HD
ENDROOT
BRANCH   3   5
ATOM      5  C   UNL     1       4.183   5.253   2.067  0.00  0.00    +0.053 C 
ATOM      6  C   UNL     1       3.244   6.020   3.000  0.00  0.00    +0.026 C 
BRANCH   5   7
ATOM      7  C   UNL     1       5.600   5.814   2.197  0.00  0.00    -0.057 C 
BRANCH   7   8
ATOM      8  N   UNL     1       6.521   5.010   1.381  0.00  0.00    +0.381 N 
ATOM      9  C   UNL     1       7.900   5.452   1.623  0.00  0.00    -0.076 C 
ATOM     10  C   UNL     1       8.869   4.566   0.839  0.00  0.00    -0.031 C 
ATOM     11  C   UNL     1       8.553   4.670  -0.656  0.00  0.00    +0.003 C 
ATOM     12  C   UNL     1       7.091   4.278  -0.886  0.00  0.00    -0.031 C 
ATOM     13  C   UNL     1       6.187   5.175  -0.038  0.00  0.00    -0.076 C 
ATOM     14  C   UNL     1       6.742   4.453  -2.366  0.00  0.00    +0.005 C 
ATOM     15  C   UNL     1      10.305   5.030   1.092  0.00  0.00    +0.005 C 
ATOM     16  H   UNL     1       6.433   4.037   1.636  0.00  0.00    -0.082 HD
ENDBRANCH   7   8
ENDBRANCH   5   7
ENDBRANCH   3   5
BRANCH   1  17
ATOM     17  C   UNL     1       3.253   1.546   2.295  0.00  0.00    +0.213 C 
BRANCH  17  27
ATOM     18  C   UNL     1       0.264   1.890  -0.962  0.00  0.00    +0.010 C 
ATOM     19  C   UNL     1       0.296   0.372  -1.147  0.00  0.00    +0.018 C 
ATOM     20  C   UNL     1       1.157   0.024  -2.365  0.00  0.00    +0.006 C 
ATOM     21  C   UNL     1       1.205  -1.495  -2.537  0.00  0.00    +0.000 C 
ATOM     22  C   UNL     1       1.823  -2.131  -1.289  0.00  0.00    +0.003 C 
ATOM     23  C   UNL     1       0.964  -1.793  -0.068  0.00  0.00    +0.035 C 
ATOM     24  C   UNL     1       0.887  -0.279   0.099  0.00  0.00    +0.115 C 
ATOM     25  C   UNL     1       2.255   0.291   0.394  0.00  0.00    +0.247 C 
ATOM     26  O   UNL     1       3.239   0.242  -0.314  0.00  0.00    -0.273 OA
ATOM     27  N   UNL     1       2.152   0.865   1.610  0.00  0.00    -0.215 N 
ATOM     28  C   UNL     1       0.918   0.735   2.113  0.00  0.00    +0.310 C 
ATOM     29  O   UNL     1       0.581   1.171   3.196  0.00  0.00    -0.252 OA
ATOM     30  N   UNL     1       0.093   0.067   1.285  0.00  0.00    -0.285 N 
ATOM     31  H   UNL     1      -0.841  -0.143   1.440  0.00  0.00    +0.151 HD
ENDBRANCH  17  27
ENDBRANCH   1  17
TORSDOF 5
