REMARK  Name = ZINC63994293
REMARK  14 active torsions:
REMARK  status: ('A' for Active; 'I' for Inactive)
REMARK    1  A    between atoms: C_1  and  C_2
REMARK    2  A    between atoms: C_2  and  C_4
REMARK    3  A    between atoms: C_2  and  N_7
REMARK    4  A    between atoms: C_4  and  O_5
REMARK    5  A    between atoms: O_5  and  C_6
REMARK    6  A    between atoms: N_7  and  C_8
REMARK    7  A    between atoms: N_14  and  C_32
REMARK    8  A    between atoms: C_15  and  C_28
REMARK    9  A    between atoms: C_17  and  N_19
REMARK   10  A    between atoms: C_20  and  C_22
REMARK   11  A    between atoms: C_28  and  O_30
REMARK   12  A    between atoms: O_30  and  C_31
REMARK   13  A    between atoms: C_32  and  C_33
REMARK   14  A    between atoms: C_33  and  C_34
REMARK                            x       y       z     vdW  Elec       q    Type
REMARK                         _______ _______ _______ _____ _____    ______ ____
ROOT
ATOM      1  C   UNL     1       2.106  -0.604   1.173  0.00  0.00    +0.044 A 
ATOM      2  C   UNL     1       2.793  -1.070   2.293  0.00  0.00    +0.033 A 
ATOM      3  C   UNL     1       4.170  -1.165   2.229  0.00  0.00    +0.015 A 
ATOM      4  C   UNL     1       4.839  -0.802   1.068  0.00  0.00    +0.105 A 
ATOM      5  N   UNL     1       4.143  -0.361   0.020  0.00  0.00    -0.348 N 
ATOM      6  C   UNL     1       2.830  -0.262   0.041  0.00  0.00    +0.107 A 
ATOM      7  N   UNL     1       6.216  -0.968   1.199  0.00  0.00    -0.301 N 
ATOM      8  C   UNL     1       6.540  -1.480   2.533  0.00  0.00    +0.208 C 
ATOM      9  C   UNL     1       5.186  -1.623   3.249  0.00  0.00    +0.138 C 
ATOM     10  H   UNL     1       4.619  -0.110  -0.787  0.00  0.00    +0.167 HD
ENDROOT
BRANCH   9  11
ATOM     11  N   UNL     1       4.948  -3.021   3.617  0.00  0.00    -0.306 N 
ATOM     12  C   UNL     1       4.076  -3.319   4.601  0.00  0.00    +0.219 C 
ATOM     13  O   UNL     1       3.488  -2.430   5.180  0.00  0.00    -0.275 OA
ATOM     14  H   UNL     1       5.417  -3.732   3.153  0.00  0.00    +0.149 HD
BRANCH  12  15
ATOM     15  C   UNL     1       3.830  -4.757   4.979  0.00  0.00    +0.103 C 
ATOM     16  C   UNL     1       2.830  -4.844   6.158  0.00  0.00    +0.043 C 
ATOM     17  C   UNL     1       3.445  -5.972   7.024  0.00  0.00    +0.160 C 
ATOM     18  O   UNL     1       4.867  -5.755   6.900  0.00  0.00    -0.379 OA
ATOM     19  C   UNL     1       5.120  -5.398   5.527  0.00  0.00    +0.172 C 
ENDBRANCH  12  15
ENDBRANCH   9  11
BRANCH   1  20
ATOM     20  N   UNL     1       0.711  -0.489   1.189  0.00  0.00    -0.338 N 
ATOM     21  H   UNL     1       0.213  -0.731   1.986  0.00  0.00    +0.146 HD
BRANCH  20  23
ATOM     22  C   UNL     1      -0.019   1.526   0.010  0.00  0.00    +0.030 C 
ATOM     23  C   UNL     1       0.002  -0.004   0.002  0.00  0.00    +0.093 C 
BRANCH  23  24
ATOM     24  C   UNL     1      -1.433  -0.534   0.013  0.00  0.00    +0.181 C 
BRANCH  24  25
ATOM     25  O   UNL     1      -2.137   0.021   1.126  0.00  0.00    -0.381 OA
ATOM     26  C   UNL     1      -3.495  -0.412   1.229  0.00  0.00    +0.194 C 
ENDBRANCH  24  25
ENDBRANCH  23  24
ENDBRANCH  20  23
ENDBRANCH   1  20
BRANCH   8  27
ATOM     27  C   UNL     1       7.222  -2.820   2.427  0.00  0.00    +0.330 C 
ATOM     28  O   UNL     1       7.132  -3.465   1.409  0.00  0.00    -0.249 OA
BRANCH  27  29
ATOM     29  O   UNL     1       7.929  -3.296   3.463  0.00  0.00    -0.467 OA
ATOM     30  C   UNL     1       8.550  -4.572   3.294  0.00  0.00    +0.280 C 
ENDBRANCH  27  29
ENDBRANCH   8  27
BRANCH   7  31
ATOM     31  C   UNL     1       7.198  -0.674   0.152  0.00  0.00    +0.112 C 
BRANCH  31  32
ATOM     32  C   UNL     1       7.657   0.780   0.278  0.00  0.00    +0.052 C 
BRANCH  32  33
ATOM     33  C   UNL     1       8.668   1.083  -0.798  0.00  0.00    -0.040 C 
ATOM     34  C   UNL     1       8.428   1.647  -2.003  0.00  0.00    -0.001 A 
ATOM     35  C   UNL     1       7.201   2.128  -2.650  0.00  0.00    +0.010 A 
ATOM     36  C   UNL     1       7.278   2.656  -3.892  0.00  0.00    +0.001 A 
ATOM     37  C   UNL     1       8.497   2.754  -4.577  0.00  0.00    +0.002 A 
ATOM     38  C   UNL     1       9.666   2.334  -4.050  0.00  0.00    +0.026 A 
ATOM     39  C   UNL     1       9.703   1.762  -2.748  0.00  0.00    +0.043 A 
ATOM     40  N   UNL     1      10.692   1.288  -2.030  0.00  0.00    -0.380 N 
ATOM     41  C   UNL     1      10.157   0.823  -0.746  0.00  0.00    +0.144 C 
ATOM     42  H   UNL     1      11.623   1.254  -2.302  0.00  0.00    +0.160 HD
ENDBRANCH  32  33
ENDBRANCH  31  32
ENDBRANCH   7  31
TORSDOF 11
