REMARK  Name = ZINC33033264
REMARK  13 active torsions:
REMARK  status: ('A' for Active; 'I' for Inactive)
REMARK    1  A    between atoms: C_1  and  O_2
REMARK    2  A    between atoms: O_2  and  C_3
REMARK    3  A    between atoms: C_6  and  S_11
REMARK    4  A    between atoms: C_8  and  O_9
REMARK    5  A    between atoms: O_9  and  C_10
REMARK    6  A    between atoms: S_11  and  N_14
REMARK    7  A    between atoms: N_14  and  C_15
REMARK    8  A    between atoms: C_17  and  C_27
REMARK    9  A    between atoms: C_20  and  N_21
REMARK   10  A    between atoms: N_29  and  C_30
REMARK   11  A    between atoms: N_29  and  C_33
REMARK   12  A    between atoms: C_30  and  C_31
REMARK   13  A    between atoms: C_33  and  C_34
REMARK                            x       y       z     vdW  Elec       q    Type
REMARK                         _______ _______ _______ _____ _____    ______ ____
ROOT
ATOM      1  C   UNL     1       3.597  -4.361   0.648  0.00  0.00    +0.070 A 
ATOM      2  C   UNL     1       2.684  -3.482   1.198  0.00  0.00    +0.039 A 
ATOM      3  C   UNL     1       1.641  -2.982   0.413  0.00  0.00    +0.039 A 
ATOM      4  C   UNL     1       1.522  -3.377  -0.922  0.00  0.00    +0.015 A 
ATOM      5  C   UNL     1       2.438  -4.250  -1.467  0.00  0.00    +0.026 A 
ATOM      6  C   UNL     1       3.476  -4.748  -0.689  0.00  0.00    +0.052 A 
ENDROOT
BRANCH   6   7
ATOM      7  N   UNL     1       4.397  -5.635  -1.243  0.00  0.00    -0.332 N 
ATOM      8  C   UNL     1       3.952  -6.099  -2.564  0.00  0.00    +0.086 C 
ATOM      9  C   UNL     1       4.948  -7.129  -3.103  0.00  0.00    -0.063 C 
ATOM     10  N   UNL     1       6.283  -6.519  -3.184  0.00  0.00    +0.381 N 
ATOM     11  C   UNL     1       6.728  -6.054  -1.863  0.00  0.00    -0.063 C 
ATOM     12  C   UNL     1       5.732  -5.025  -1.325  0.00  0.00    +0.086 C 
ATOM     13  H   UNL     1       7.003  -7.261  -3.560  0.00  0.00    -0.086 HD
ATOM     14  H   UNL     1       6.251  -5.659  -3.870  0.00  0.00    -0.086 HD
ENDBRANCH   6   7
BRANCH   3  15
ATOM     15  C   UNL     1       0.663  -2.042   0.995  0.00  0.00    +0.247 C 
ATOM     16  O   UNL     1       0.871  -0.845   0.951  0.00  0.00    -0.270 OA
ATOM     17  N   UNL     1      -0.459  -2.511   1.575  0.00  0.00    -0.290 N 
BRANCH  17  18
ATOM     18  C   UNL     1      -1.465  -1.577   2.086  0.00  0.00    +0.135 C 
BRANCH  18  19
ATOM     19  C   UNL     1      -1.160  -1.249   3.525  0.00  0.00    -0.016 C 
ATOM     20  C   UNL     1      -1.023  -0.000   3.897  0.00  0.00    +0.005 C 
ENDBRANCH  18  19
ENDBRANCH  17  18
BRANCH  17  21
ATOM     21  C   UNL     1      -0.673  -3.956   1.694  0.00  0.00    +0.135 C 
BRANCH  21  22
ATOM     22  C   UNL     1      -1.747  -4.386   0.728  0.00  0.00    -0.016 C 
ATOM     23  C   UNL     1      -1.506  -5.339  -0.137  0.00  0.00    +0.005 C 
ENDBRANCH  21  22
ENDBRANCH  17  21
ENDBRANCH   3  15
BRANCH   1  24
ATOM     24  N   UNL     1       4.644  -4.864   1.431  0.00  0.00    -0.214 N 
ATOM     25  H   UNL     1       5.688  -4.709   1.120  0.00  0.00    +0.174 HD
BRANCH  24  26
ATOM     26  S   UNL     1       4.311  -5.693   2.826  0.00  0.00    +0.073 S 
ATOM     27  O   UNL     1       5.557  -6.149   3.334  0.00  0.00    -0.150 OA
ATOM     28  O   UNL     1       3.432  -4.874   3.585  0.00  0.00    -0.150 OA
BRANCH  26  32
ATOM     29  C   UNL     1       1.952  -9.383   1.661  0.00  0.00    +0.162 A 
ATOM     30  C   UNL     1       1.293  -8.201   1.960  0.00  0.00    +0.051 A 
ATOM     31  C   UNL     1       2.015  -7.079   2.321  0.00  0.00    +0.032 A 
ATOM     32  C   UNL     1       3.396  -7.129   2.372  0.00  0.00    +0.112 A 
ATOM     33  C   UNL     1       4.059  -8.304   2.075  0.00  0.00    +0.078 A 
ATOM     34  C   UNL     1       3.341  -9.434   1.718  0.00  0.00    +0.163 A 
BRANCH  29  36
ATOM     35  C   UNL     1      -0.180 -10.362   1.274  0.00  0.00    +0.277 C 
ATOM     36  O   UNL     1       1.242 -10.489   1.312  0.00  0.00    -0.491 OA
ENDBRANCH  29  36
BRANCH  34  37
ATOM     37  O   UNL     1       3.993 -10.591   1.424  0.00  0.00    -0.491 OA
ATOM     38  C   UNL     1       5.419 -10.571   1.504  0.00  0.00    +0.277 C 
ENDBRANCH  34  37
ENDBRANCH  26  32
ENDBRANCH  24  26
ENDBRANCH   1  24
TORSDOF 11
