REMARK  Name = ZINC15305309
REMARK  10 active torsions:
REMARK  status: ('A' for Active; 'I' for Inactive)
REMARK    1  A    between atoms: C_1  and  C_2
REMARK    2  A    between atoms: C_2  and  C_3
REMARK    3  A    between atoms: C_2  and  C_4
REMARK    4  A    between atoms: C_4  and  C_5
REMARK    5  A    between atoms: C_5  and  C_33
REMARK    6  A    between atoms: C_10  and  C_12
REMARK    7  A    between atoms: C_14  and  O_19
REMARK    8  A    between atoms: C_17  and  O_18
REMARK    9  A    between atoms: O_19  and  C_20
REMARK   10  A    between atoms: N_23  and  C_26
REMARK                            x       y       z     vdW  Elec       q    Type
REMARK                         _______ _______ _______ _____ _____    ______ ____
ROOT
ATOM      1  C   UNL     1       0.342  -0.242   0.475  0.00  0.00    +0.048 C 
ATOM      2  C   UNL     1      -0.140   1.049   0.981  0.00  0.00    +0.086 C 
ATOM      3  C   UNL     1       1.188   1.818   1.355  0.00  0.00    +0.077 C 
ATOM      4  C   UNL     1       1.923   1.536   0.038  0.00  0.00    -0.023 C 
ATOM      5  C   UNL     1       0.540   3.162   1.553  0.00  0.00    +0.229 C 
ATOM      6  O   UNL     1       1.019   4.246   1.301  0.00  0.00    -0.275 OA
ATOM      7  N   UNL     1      -0.696   2.910   2.075  0.00  0.00    -0.210 N 
ATOM      8  C   UNL     1      -1.083   1.602   1.921  0.00  0.00    +0.229 C 
ATOM      9  O   UNL     1      -2.012   1.037   2.457  0.00  0.00    -0.275 OA
ATOM     10  N   UNL     1       1.634   0.092  -0.192  0.00  0.00    +0.396 N 
ATOM     11  H   UNL     1       1.561  -0.090  -1.200  0.00  0.00    -0.083 HD
ATOM     12  H   UNL     1       2.388  -0.480   0.205  0.00  0.00    -0.083 HD
ENDROOT
BRANCH   7  13
ATOM     13  C   UNL     1      -1.486   3.885   2.702  0.00  0.00    +0.044 A 
ATOM     14  C   UNL     1      -2.737   3.549   3.202  0.00  0.00    +0.025 A 
ATOM     15  C   UNL     1      -3.511   4.509   3.824  0.00  0.00    +0.017 A 
ATOM     16  C   UNL     1      -3.046   5.807   3.938  0.00  0.00    +0.018 A 
ATOM     17  C   UNL     1      -1.802   6.146   3.436  0.00  0.00    +0.017 A 
ATOM     18  C   UNL     1      -1.022   5.188   2.818  0.00  0.00    +0.025 A 
ATOM     19 BR   UNL     1      -4.111   7.121   4.783  0.00  0.00    -0.050 Br
ENDBRANCH   7  13
BRANCH   4  20
ATOM     20  C   UNL     1       3.403   1.775   0.189  0.00  0.00    -0.016 A 
ATOM     21  C   UNL     1       3.938   2.034   1.436  0.00  0.00    +0.051 A 
ATOM     22  C   UNL     1       5.301   2.250   1.574  0.00  0.00    +0.121 A 
ATOM     23  C   UNL     1       6.126   2.216   0.460  0.00  0.00    +0.049 A 
ATOM     24  C   UNL     1       5.590   1.962  -0.788  0.00  0.00    +0.049 A 
ATOM     25  C   UNL     1       4.228   1.741  -0.926  0.00  0.00    +0.119 A 
BRANCH  25  26
ATOM     26  O   UNL     1       3.701   1.491  -2.154  0.00  0.00    -0.507 OA
ATOM     27  H   UNL     1       3.420   2.284  -2.631  0.00  0.00    +0.292 HD
ENDBRANCH  25  26
BRANCH  22  28
ATOM     28  O   UNL     1       5.828   2.500   2.803  0.00  0.00    -0.495 OA
ATOM     29  C   UNL     1       7.239   2.718   2.871  0.00  0.00    +0.277 C 
ENDBRANCH  22  28
ENDBRANCH   4  20
BRANCH   1  30
ATOM     30  C   UNL     1      -0.636  -0.818  -0.516  0.00  0.00    +0.346 C 
ATOM     31  O   UNL     1      -1.806  -0.524  -0.450  0.00  0.00    -0.248 OA
ATOM     32  O   UNL     1      -0.207  -1.656  -1.472  0.00  0.00    -0.248 OA
ENDBRANCH   1  30
BRANCH   1  33
ATOM     33  C   UNL     1       0.570  -1.217   1.632  0.00  0.00    +0.002 C 
BRANCH  33  35
ATOM     34  C   UNL     1       2.249  -2.556   0.355  0.00  0.00    +0.007 C 
ATOM     35  C   UNL     1       0.899  -2.603   1.073  0.00  0.00    -0.018 C 
ATOM     36  C   UNL     1       0.966  -3.613   2.221  0.00  0.00    +0.007 C 
ENDBRANCH  33  35
ENDBRANCH   1  33
TORSDOF 7
