REMARK  Name = ZINC19720799
REMARK  10 active torsions:
REMARK  status: ('A' for Active; 'I' for Inactive)
REMARK    1  A    between atoms: C_1  and  C_2
REMARK    2  A    between atoms: C_5  and  N_8
REMARK    3  A    between atoms: C_10  and  C_20
REMARK    4  A    between atoms: C_11  and  C_13
REMARK    5  A    between atoms: C_17  and  C_19
REMARK    6  A    between atoms: C_20  and  N_21
REMARK    7  A    between atoms: N_21  and  C_22
REMARK    8  A    between atoms: C_22  and  C_23
REMARK    9  A    between atoms: C_23  and  S_24
REMARK   10  A    between atoms: S_24  and  C_25
REMARK                            x       y       z     vdW  Elec       q    Type
REMARK                         _______ _______ _______ _____ _____    ______ ____
ROOT
ATOM      1  N   UNL     1       0.073  -4.166   0.000  0.00  0.00    -0.239 N 
ATOM      2  C   UNL     1       0.025  -4.979   1.088  0.00  0.00    +0.116 A 
ATOM      3  C   UNL     1       0.042  -6.257   0.651  0.00  0.00    -0.019 A 
ATOM      4  C   UNL     1       0.103  -6.233  -0.756  0.00  0.00    +0.094 A 
ATOM      5  N   UNL     1       0.116  -4.974  -1.143  0.00  0.00    -0.166 NA
ENDROOT
BRANCH   1  10
ATOM      6  C   UNL     1       0.073   1.509   0.074  0.00  0.00    +0.044 C 
ATOM      7  C   UNL     1       0.073   0.002   0.054  0.00  0.00    -0.050 A 
ATOM      8  C   UNL     1       0.119  -0.673  -1.152  0.00  0.00    +0.005 A 
ATOM      9  C   UNL     1       0.119  -2.054  -1.173  0.00  0.00    +0.028 A 
ATOM     10  C   UNL     1       0.073  -2.765   0.018  0.00  0.00    +0.065 A 
ATOM     11  C   UNL     1       0.027  -2.085   1.228  0.00  0.00    +0.028 A 
ATOM     12  C   UNL     1       0.032  -0.704   1.243  0.00  0.00    +0.005 A 
ENDBRANCH   1  10
BRANCH   4  13
ATOM     13  C   UNL     1       0.140  -7.419  -1.647  0.00  0.00    +0.003 A 
ATOM     14  C   UNL     1      -0.696  -8.506  -1.399  0.00  0.00    +0.010 A 
ATOM     15  C   UNL     1      -0.657  -9.606  -2.231  0.00  0.00    +0.001 A 
ATOM     16  C   UNL     1       0.209  -9.631  -3.309  0.00  0.00    +0.003 A 
ATOM     17  C   UNL     1       1.041  -8.555  -3.560  0.00  0.00    -0.050 A 
ATOM     18  C   UNL     1       1.006  -7.447  -2.737  0.00  0.00    +0.013 A 
ATOM     19  C   UNL     1       1.982  -8.590  -4.736  0.00  0.00    +0.044 C 
ENDBRANCH   4  13
BRANCH   3  20
ATOM     20  C   UNL     1       0.004  -7.490   1.517  0.00  0.00    -0.043 C 
BRANCH  20  21
ATOM     21  N   UNL     1       1.337  -8.106   1.551  0.00  0.00    +0.382 N 
ATOM     22  H   UNL     1       1.647  -8.290   0.608  0.00  0.00    -0.085 HD
ATOM     23  H   UNL     1       1.986  -7.479   2.002  0.00  0.00    -0.085 HD
BRANCH  21  24
ATOM     24  C   UNL     1       1.274  -9.368   2.301  0.00  0.00    -0.071 C 
BRANCH  24  25
ATOM     25  C   UNL     1       2.663 -10.009   2.336  0.00  0.00    +0.057 C 
BRANCH  25  26
ATOM     26  S   UNL     1       2.585 -11.567   3.262  0.00  0.00    -0.105 S 
BRANCH  26  27
ATOM     27  C   UNL     1       4.238 -12.175   3.213  0.00  0.00    +0.138 A 
ATOM     28  C   UNL     1       4.698 -13.328   3.767  0.00  0.00    +0.141 A 
ATOM     29  N   UNL     1       6.028 -13.379   3.475  0.00  0.00    -0.264 N 
ATOM     30  N   UNL     1       6.331 -12.328   2.797  0.00  0.00    -0.067 NA
ATOM     31  N   UNL     1       5.290 -11.594   2.619  0.00  0.00    -0.123 NA
ATOM     32  H   UNL     1       6.641 -14.085   3.734  0.00  0.00    +0.190 HD
ENDBRANCH  26  27
ENDBRANCH  25  26
ENDBRANCH  24  25
ENDBRANCH  21  24
ENDBRANCH  20  21
ENDBRANCH   3  20
TORSDOF 8
