REMARK  Name = ZINC40982359
REMARK  11 active torsions:
REMARK  status: ('A' for Active; 'I' for Inactive)
REMARK    1  A    between atoms: C_1  and  C_2
REMARK    2  A    between atoms: C_2  and  C_3
REMARK    3  A    between atoms: C_3  and  S_4
REMARK    4  A    between atoms: S_4  and  C_5
REMARK    5  A    between atoms: C_10  and  C_19
REMARK    6  A    between atoms: C_12  and  C_16
REMARK    7  A    between atoms: C_13  and  C_15
REMARK    8  A    between atoms: C_24  and  O_25
REMARK    9  A    between atoms: O_25  and  C_26
REMARK   10  A    between atoms: C_26  and  C_27
REMARK   11  A    between atoms: C_30  and  C_33
REMARK                            x       y       z     vdW  Elec       q    Type
REMARK                         _______ _______ _______ _____ _____    ______ ____
ROOT
ATOM      1  C   UNL     1      -3.193  -2.614  -0.411  0.00  0.00    +0.210 A 
ATOM      2  N   UNL     1      -4.272  -1.821  -0.330  0.00  0.00    -0.187 NA
ATOM      3  C   UNL     1      -5.337  -2.553  -0.143  0.00  0.00    +0.219 A 
ATOM      4  N   UNL     1      -4.954  -3.853  -0.104  0.00  0.00    -0.220 N 
ATOM      5  N   UNL     1      -3.571  -3.867  -0.281  0.00  0.00    -0.141 NA
ATOM      6  C   UNL     1      -5.884  -4.964   0.081  0.00  0.00    +0.181 C 
ATOM      7  C   UNL     1      -7.224  -4.430   0.510  0.00  0.00    +0.060 C 
ATOM      8  C   UNL     1      -7.546  -3.129   0.453  0.00  0.00    +0.018 C 
ATOM      9  N   UNL     1      -6.665  -2.176   0.005  0.00  0.00    -0.287 N 
ATOM     10  C   UNL     1      -8.921  -2.700   0.896  0.00  0.00    +0.061 C 
ATOM     11  H   UNL     1      -6.959  -1.275  -0.200  0.00  0.00    +0.155 HD
ENDROOT
BRANCH   6  12
ATOM     12  C   UNL     1      -6.034  -5.715  -1.217  0.00  0.00    +0.023 A 
ATOM     13  C   UNL     1      -6.505  -5.065  -2.341  0.00  0.00    +0.009 A 
ATOM     14  C   UNL     1      -6.643  -5.754  -3.532  0.00  0.00    +0.001 A 
ATOM     15  C   UNL     1      -6.311  -7.094  -3.601  0.00  0.00    +0.004 A 
ATOM     16  C   UNL     1      -5.840  -7.749  -2.479  0.00  0.00    +0.046 A 
ATOM     17  C   UNL     1      -5.695  -7.058  -1.284  0.00  0.00    +0.127 A 
BRANCH  17  18
ATOM     18  O   UNL     1      -5.226  -7.699  -0.181  0.00  0.00    -0.487 OA
BRANCH  18  19
ATOM     19  C   UNL     1      -4.897  -9.082  -0.324  0.00  0.00    +0.264 C 
BRANCH  19  20
ATOM     20  C   UNL     1      -4.398  -9.618   0.992  0.00  0.00    -0.010 A 
ATOM     21  C   UNL     1      -3.051  -9.562   1.296  0.00  0.00    +0.007 A 
ATOM     22  C   UNL     1      -2.593 -10.054   2.504  0.00  0.00    +0.004 A 
ATOM     23  C   UNL     1      -3.483 -10.603   3.409  0.00  0.00    -0.050 A 
ATOM     24  C   UNL     1      -4.831 -10.659   3.105  0.00  0.00    +0.004 A 
ATOM     25  C   UNL     1      -5.289 -10.162   1.899  0.00  0.00    +0.007 A 
ATOM     26  C   UNL     1      -2.984 -11.140   4.725  0.00  0.00    +0.044 C 
ENDBRANCH  19  20
ENDBRANCH  18  19
ENDBRANCH  17  18
ENDBRANCH   6  12
BRANCH   7  27
ATOM     27  C   UNL     1      -8.190  -5.343   0.996  0.00  0.00    +0.241 C 
ATOM     28  O   UNL     1      -8.137  -5.728   2.150  0.00  0.00    -0.271 OA
ATOM     29  N   UNL     1      -9.168  -5.786   0.182  0.00  0.00    -0.325 N 
ATOM     30  H   UNL     1      -9.210  -5.479  -0.737  0.00  0.00    +0.145 HD
ATOM     31  H   UNL     1      -9.830  -6.412   0.515  0.00  0.00    +0.145 HD
ENDBRANCH   7  27
BRANCH   1  32
ATOM     32  S   UNL     1      -1.537  -2.065  -0.659  0.00  0.00    -0.084 S 
BRANCH  32  33
ATOM     33  C   UNL     1      -1.683  -0.260  -0.758  0.00  0.00    +0.077 C 
BRANCH  33  35
ATOM     34  C   UNL     1      -0.421   1.875  -1.059  0.00  0.00    +0.004 C 
ATOM     35  C   UNL     1      -0.298   0.353  -0.975  0.00  0.00    +0.008 C 
ENDBRANCH  33  35
ENDBRANCH  32  33
ENDBRANCH   1  32
TORSDOF 8
