REMARK  Name = ZINC16058919
REMARK  10 active torsions:
REMARK  status: ('A' for Active; 'I' for Inactive)
REMARK    1  A    between atoms: C_1  and  C_2
REMARK    2  A    between atoms: C_2  and  C_3
REMARK    3  A    between atoms: C_2  and  C_4
REMARK    4  A    between atoms: C_2  and  C_5
REMARK    5  A    between atoms: C_12  and  C_14
REMARK    6  A    between atoms: N_16  and  N_17
REMARK    7  A    between atoms: C_18  and  C_20
REMARK    8  A    between atoms: C_20  and  C_21
REMARK    9  A    between atoms: C_21  and  C_22
REMARK   10  A    between atoms: C_24  and  C_27
REMARK                            x       y       z     vdW  Elec       q    Type
REMARK                         _______ _______ _______ _____ _____    ______ ____
ROOT
ATOM      1  C   UNL     1      -5.913  -3.939   1.492  0.00  0.00    +0.267 C 
ATOM      2  O   UNL     1      -5.264  -4.870   1.933  0.00  0.00    -0.268 OA
ATOM      3  N   UNL     1      -7.228  -4.094   1.240  0.00  0.00    -0.230 N 
ATOM      4  H   UNL     1      -7.745  -3.352   0.889  0.00  0.00    +0.173 HD
ENDROOT
BRANCH   1  11
ATOM      5  C   UNL     1      -2.164   1.050   1.278  0.00  0.00    -0.001 C 
ATOM      6  C   UNL     1      -2.907   1.568   0.043  0.00  0.00    +0.009 C 
ATOM      7  C   UNL     1      -4.402   1.260   0.201  0.00  0.00    +0.043 C 
ATOM      8  C   UNL     1      -4.549  -0.171   0.619  0.00  0.00    -0.006 A 
ATOM      9  C   UNL     1      -3.570  -0.992   1.102  0.00  0.00    -0.036 A 
ATOM     10  C   UNL     1      -3.943  -2.286   1.424  0.00  0.00    +0.024 A 
ATOM     11  C   UNL     1      -5.264  -2.650   1.236  0.00  0.00    +0.076 A 
ATOM     12  S   UNL     1      -5.972  -1.141   0.599  0.00  0.00    -0.088 S 
ATOM     13  C   UNL     1      -2.141  -0.479   1.269  0.00  0.00    +0.040 C 
BRANCH   5  15
ATOM     14  C   UNL     1      -0.013   1.086   0.008  0.00  0.00    +0.011 C 
ATOM     15  C   UNL     1      -0.729   1.579   1.267  0.00  0.00    -0.035 C 
ATOM     16  C   UNL     1       0.011   1.072   2.506  0.00  0.00    +0.011 C 
ATOM     17  C   UNL     1      -0.750   3.109   1.275  0.00  0.00    +0.011 C 
ENDBRANCH   5  15
ENDBRANCH   1  11
BRANCH   3  18
ATOM     18  N   UNL     1      -7.848  -5.326   1.486  0.00  0.00    -0.234 N 
ATOM     19  C   UNL     1      -9.163  -5.480   1.234  0.00  0.00    +0.230 C 
ATOM     20  O   UNL     1      -9.809  -4.553   0.794  0.00  0.00    -0.274 OA
ATOM     21  H   UNL     1      -7.331  -6.068   1.837  0.00  0.00    +0.173 HD
BRANCH  19  22
ATOM     22  C   UNL     1      -9.830  -6.806   1.498  0.00  0.00    +0.107 C 
BRANCH  22  23
ATOM     23  C   UNL     1     -11.312  -6.713   1.129  0.00  0.00    +0.108 C 
BRANCH  23  24
ATOM     24  C   UNL     1     -11.980  -8.038   1.393  0.00  0.00    +0.228 A 
ATOM     25  N   UNL     1     -12.549  -8.413   2.512  0.00  0.00    -0.191 NA
ATOM     26  C   UNL     1     -13.006  -9.665   2.284  0.00  0.00    +0.203 A 
ATOM     27  N   UNL     1     -12.691  -9.973   1.052  0.00  0.00    -0.056 NA
ATOM     28  O   UNL     1     -12.107  -9.049   0.528  0.00  0.00    -0.338 OA
BRANCH  26  29
ATOM     29  C   UNL     1     -13.730 -10.527   3.250  0.00  0.00    +0.029 A 
ATOM     30  C   UNL     1     -14.155 -11.803   2.888  0.00  0.00    +0.019 A 
ATOM     31  C   UNL     1     -14.805 -12.537   3.819  0.00  0.00    +0.046 A 
ATOM     32  S   UNL     1     -14.839 -11.431   5.218  0.00  0.00    -0.104 S 
ATOM     33  C   UNL     1     -14.002 -10.087   4.513  0.00  0.00    +0.057 A 
ENDBRANCH  26  29
ENDBRANCH  23  24
ENDBRANCH  22  23
ENDBRANCH  19  22
ENDBRANCH   3  18
TORSDOF 7
