REMARK  Name = ZINC13124859
REMARK  5 active torsions:
REMARK  status: ('A' for Active; 'I' for Inactive)
REMARK    1  A    between atoms: C_1  and  O_2
REMARK    2  A    between atoms: O_2  and  C_3
REMARK    3  A    between atoms: C_6  and  C_10
REMARK    4  A    between atoms: C_7  and  O_9
REMARK    5  A    between atoms: C_13  and  C_16
REMARK                            x       y       z     vdW  Elec       q    Type
REMARK                         _______ _______ _______ _____ _____    ______ ____
ROOT
ATOM      1  C   UNL     1       2.494  -2.482  -4.368  0.00  0.00    +0.072 C 
ATOM      2  N   UNL     1       2.595  -3.754  -4.544  0.00  0.00    -0.190 NA
ATOM      3  N   UNL     1       3.260  -4.116  -5.713  0.00  0.00    -0.261 N 
ATOM      4  C   UNL     1       3.666  -2.895  -6.427  0.00  0.00    +0.128 C 
ATOM      5  C   UNL     1       3.146  -1.759  -5.524  0.00  0.00    +0.086 C 
ATOM      6  H   UNL     1       3.429  -5.025  -6.008  0.00  0.00    +0.169 HD
ENDROOT
BRANCH   4   7
ATOM      7  C   UNL     1       5.166  -2.832  -6.561  0.00  0.00    +0.018 A 
ATOM      8  C   UNL     1       5.965  -3.609  -5.745  0.00  0.00    +0.029 A 
ATOM      9  C   UNL     1       7.342  -3.551  -5.866  0.00  0.00    +0.042 A 
ATOM     10  C   UNL     1       7.920  -2.714  -6.804  0.00  0.00    +0.029 A 
ATOM     11  C   UNL     1       7.124  -1.935  -7.622  0.00  0.00    +0.022 A 
ATOM     12  C   UNL     1       5.744  -1.998  -7.508  0.00  0.00    +0.134 A 
ATOM     13  O   UNL     1       4.949  -1.248  -8.316  0.00  0.00    -0.465 OA
ATOM     14  C   UNL     1       5.571  -0.161  -9.006  0.00  0.00    +0.394 C 
ATOM     15  O   UNL     1       6.783  -0.634  -9.607  0.00  0.00    -0.339 OA
ATOM     16  C   UNL     1       7.765  -1.024  -8.638  0.00  0.00    +0.202 C 
ATOM     17 CL   UNL     1       8.345  -4.529  -4.840  0.00  0.00    -0.084 Cl
ENDBRANCH   4   7
BRANCH   1  21
ATOM     18  C   UNL     1       0.606  -0.607  -1.056  0.00  0.00    +0.124 A 
ATOM     19  C   UNL     1       1.172   0.166  -2.062  0.00  0.00    +0.046 A 
ATOM     20  C   UNL     1       1.786  -0.439  -3.138  0.00  0.00    +0.017 A 
ATOM     21  C   UNL     1       1.839  -1.832  -3.218  0.00  0.00    +0.039 A 
ATOM     22  C   UNL     1       1.268  -2.610  -2.202  0.00  0.00    +0.129 A 
ATOM     23  C   UNL     1       0.659  -1.992  -1.124  0.00  0.00    +0.091 A 
BRANCH  18  25
ATOM     24  C   UNL     1      -0.017   1.425   0.010  0.00  0.00    +0.277 C 
ATOM     25  O   UNL     1       0.002  -0.004   0.002  0.00  0.00    -0.495 OA
ENDBRANCH  18  25
BRANCH  22  26
ATOM     26  O   UNL     1       1.315  -3.965  -2.273  0.00  0.00    -0.506 OA
ATOM     27  H   UNL     1       2.097  -4.354  -1.858  0.00  0.00    +0.292 HD
ENDBRANCH  22  26
ENDBRANCH   1  21
TORSDOF 4
