REMARK  Name = ZINC39660426
REMARK  11 active torsions:
REMARK  status: ('A' for Active; 'I' for Inactive)
REMARK    1  A    between atoms: C_1  and  C_2
REMARK    2  A    between atoms: C_2  and  C_3
REMARK    3  A    between atoms: C_3  and  C_4
REMARK    4  A    between atoms: C_4  and  C_5
REMARK    5  A    between atoms: C_5  and  C_6
REMARK    6  A    between atoms: C_6  and  N_7
REMARK    7  A    between atoms: C_8  and  C_10
REMARK    8  A    between atoms: C_21  and  C_23
REMARK    9  A    between atoms: C_23  and  O_24
REMARK   10  A    between atoms: O_24  and  C_25
REMARK   11  A    between atoms: C_35  and  C_36
REMARK                            x       y       z     vdW  Elec       q    Type
REMARK                         _______ _______ _______ _____ _____    ______ ____
ROOT
ATOM      1  C   UNL     1       3.006  -6.331  -5.199  0.00  0.00    +0.100 C 
ATOM      2  C   UNL     1       4.443  -5.766  -5.257  0.00  0.00    +0.121 C 
ATOM      3  N   UNL     1       5.287  -6.829  -4.662  0.00  0.00    -0.297 N 
ATOM      4  C   UNL     1       4.707  -8.092  -5.177  0.00  0.00    +0.115 C 
ATOM      5  C   UNL     1       3.184  -7.858  -5.151  0.00  0.00    -0.004 C 
ATOM      6  C   UNL     1       2.529  -8.505  -6.367  0.00  0.00    -0.010 C 
ATOM      7  C   UNL     1       2.667 -10.027  -6.266  0.00  0.00    -0.082 C 
ATOM      8  N   UNL     1       2.027 -10.498  -5.032  0.00  0.00    +0.379 N 
ATOM      9  C   UNL     1       2.723  -9.944  -3.865  0.00  0.00    -0.082 C 
ATOM     10  C   UNL     1       2.587  -8.419  -3.863  0.00  0.00    -0.010 C 
ATOM     11  C   UNL     1       6.344  -6.680  -3.839  0.00  0.00    +0.253 C 
ATOM     12  O   UNL     1       6.938  -7.656  -3.433  0.00  0.00    -0.272 OA
ATOM     13  H   UNL     1       1.063 -10.201  -5.020  0.00  0.00    -0.086 HD
ATOM     14  H   UNL     1       2.066 -11.506  -4.998  0.00  0.00    -0.086 HD
ENDROOT
BRANCH   1  16
ATOM     15  N   UNL     1       0.959  -5.712  -3.955  0.00  0.00    -0.315 N 
ATOM     16  C   UNL     1       2.301  -5.845  -3.959  0.00  0.00    +0.218 C 
ATOM     17  O   UNL     1       2.940  -5.574  -2.965  0.00  0.00    -0.275 OA
ATOM     18  H   UNL     1       0.448  -5.929  -4.751  0.00  0.00    +0.149 HD
BRANCH  15  19
ATOM     19  C   UNL     1       0.274  -5.240  -2.750  0.00  0.00    +0.104 C 
BRANCH  19  20
ATOM     20  C   UNL     1      -1.233  -5.180  -3.011  0.00  0.00    +0.019 C 
BRANCH  20  21
ATOM     21  C   UNL     1      -1.949  -4.686  -1.752  0.00  0.00    +0.002 C 
BRANCH  21  22
ATOM     22  C   UNL     1      -3.455  -4.626  -2.013  0.00  0.00    -0.000 C 
BRANCH  22  24
ATOM     23  C   UNL     1      -5.678  -4.072  -1.015  0.00  0.00    +0.004 C 
ATOM     24  C   UNL     1      -4.171  -4.133  -0.754  0.00  0.00    -0.003 C 
ENDBRANCH  22  24
ENDBRANCH  21  22
ENDBRANCH  20  21
ENDBRANCH  19  20
ENDBRANCH  15  19
ENDBRANCH   1  16
BRANCH  11  25
ATOM     25  C   UNL     1       6.787  -5.301  -3.424  0.00  0.00    +0.324 C 
BRANCH  25  26
ATOM     26  O   UNL     1       7.919  -5.405  -2.557  0.00  0.00    -0.479 OA
BRANCH  26  27
ATOM     27  C   UNL     1       8.446  -4.243  -2.088  0.00  0.00    +0.164 A 
ATOM     28  C   UNL     1       7.885  -3.032  -2.449  0.00  0.00    +0.049 A 
ATOM     29  C   UNL     1       8.414  -1.840  -1.977  0.00  0.00    +0.004 A 
ATOM     30  C   UNL     1       9.508  -1.845  -1.141  0.00  0.00    +0.012 A 
ATOM     31  C   UNL     1      10.088  -3.062  -0.766  0.00  0.00    +0.024 A 
ATOM     32  C   UNL     1       9.550  -4.271  -1.238  0.00  0.00    +0.181 A 
ATOM     33  O   UNL     1      10.109  -5.444  -0.870  0.00  0.00    -0.418 OA
ATOM     34  C   UNL     1      11.172  -5.488  -0.053  0.00  0.00    +0.338 A 
ATOM     35  O   UNL     1      11.643  -6.569   0.251  0.00  0.00    -0.245 OA
ATOM     36  C   UNL     1      11.759  -4.312   0.463  0.00  0.00    +0.096 A 
ATOM     37  C   UNL     1      11.253  -3.100   0.123  0.00  0.00    -0.033 A 
ATOM     38  C   UNL     1      11.861  -1.830   0.659  0.00  0.00    +0.045 C 
ENDBRANCH  26  27
ENDBRANCH  25  26
ENDBRANCH  11  25
TORSDOF 9
