REMARK  Name = ZINC36634583
REMARK  5 active torsions:
REMARK  status: ('A' for Active; 'I' for Inactive)
REMARK    1  A    between atoms: C_1  and  C_2
REMARK    2  A    between atoms: C_5  and  C_8
REMARK    3  A    between atoms: C_8  and  S_9
REMARK    4  A    between atoms: S_9  and  C_10
REMARK    5  A    between atoms: N_24  and  C_25
REMARK                            x       y       z     vdW  Elec       q    Type
REMARK                         _______ _______ _______ _____ _____    ______ ____
ROOT
ATOM      1  C   UNL     1       1.632  -6.614  -0.043  0.00  0.00    +0.177 A 
ATOM      2  N   UNL     1       0.436  -7.158  -0.045  0.00  0.00    -0.221 NA
ATOM      3  C   UNL     1       0.282  -8.492  -0.052  0.00  0.00    +0.104 A 
ATOM      4  C   UNL     1      -0.891  -9.377  -0.055  0.00  0.00    +0.026 A 
ATOM      5  C   UNL     1      -2.268  -9.148  -0.053  0.00  0.00    +0.012 A 
ATOM      6  C   UNL     1      -3.134 -10.204  -0.058  0.00  0.00    +0.001 A 
ATOM      7  C   UNL     1      -2.655 -11.507  -0.065  0.00  0.00    +0.002 A 
ATOM      8  C   UNL     1      -1.301 -11.756  -0.067  0.00  0.00    +0.026 A 
ATOM      9  C   UNL     1      -0.399 -10.694  -0.063  0.00  0.00    +0.049 A 
ATOM     10  N   UNL     1       0.978 -10.640  -0.064  0.00  0.00    -0.349 N 
ATOM     11  H   UNL     1       1.565 -11.413  -0.069  0.00  0.00    +0.166 HD
ATOM     12  C   UNL     1       1.403  -9.321  -0.057  0.00  0.00    +0.132 A 
ATOM     13  C   UNL     1       2.681  -8.724  -0.055  0.00  0.00    +0.283 A 
ATOM     14  O   UNL     1       3.689  -9.411  -0.060  0.00  0.00    -0.265 OA
ATOM     15  N   UNL     1       2.765  -7.376  -0.053  0.00  0.00    -0.251 N 
ENDROOT
BRANCH  15  16
ATOM     16  C   UNL     1       4.022  -6.757  -0.057  0.00  0.00    +0.087 A 
ATOM     17  C   UNL     1       4.655  -6.461   1.143  0.00  0.00    +0.029 A 
ATOM     18  C   UNL     1       5.894  -5.851   1.137  0.00  0.00    +0.002 A 
ATOM     19  C   UNL     1       6.505  -5.533  -0.062  0.00  0.00    +0.003 A 
ATOM     20  C   UNL     1       5.879  -5.825  -1.260  0.00  0.00    +0.040 A 
ATOM     21  C   UNL     1       4.641  -6.442  -1.261  0.00  0.00    +0.147 A 
ATOM     22  F   UNL     1       4.032  -6.733  -2.431  0.00  0.00    -0.203 F 
ENDBRANCH  15  16
BRANCH   1  23
ATOM     23  S   UNL     1       1.777  -4.858  -0.034  0.00  0.00    -0.083 S 
BRANCH  23  24
ATOM     24  C   UNL     1       0.059  -4.275  -0.021  0.00  0.00    +0.112 C 
BRANCH  24  29
ATOM     25  C   UNL     1      -0.018   1.503   0.010  0.00  0.00    +0.044 C 
ATOM     26  C   UNL     1       0.002  -0.004   0.002  0.00  0.00    -0.050 A 
ATOM     27  C   UNL     1       0.006  -0.689  -1.199  0.00  0.00    +0.003 A 
ATOM     28  C   UNL     1       0.025  -2.071  -1.206  0.00  0.00    +0.005 A 
ATOM     29  C   UNL     1       0.040  -2.768  -0.013  0.00  0.00    -0.037 A 
ATOM     30  C   UNL     1       0.037  -2.084   1.188  0.00  0.00    +0.005 A 
ATOM     31  C   UNL     1       0.023  -0.702   1.195  0.00  0.00    +0.003 A 
ENDBRANCH  24  29
ENDBRANCH  23  24
ENDBRANCH   1  23
TORSDOF 4
