REMARK  Name = ZINC16157468
REMARK  10 active torsions:
REMARK  status: ('A' for Active; 'I' for Inactive)
REMARK    1  A    between atoms: C_1  and  C_2
REMARK    2  A    between atoms: C_3  and  C_32
REMARK    3  A    between atoms: C_10  and  C_13
REMARK    4  A    between atoms: C_16  and  O_19
REMARK    5  A    between atoms: O_19  and  C_20
REMARK    6  A    between atoms: C_20  and  C_22
REMARK    7  A    between atoms: C_25  and  C_28
REMARK    8  A    between atoms: C_28  and  C_29
REMARK    9  A    between atoms: C_28  and  C_30
REMARK   10  A    between atoms: C_28  and  C_31
REMARK                            x       y       z     vdW  Elec       q    Type
REMARK                         _______ _______ _______ _____ _____    ______ ____
ROOT
ATOM      1  C   UNL     1       4.419  -3.793  -8.785  0.00  0.00    -0.009 A 
ATOM      2  C   UNL     1       3.091  -4.175  -8.743  0.00  0.00    +0.010 A 
ATOM      3  C   UNL     1       2.293  -3.790  -7.683  0.00  0.00    +0.047 A 
ATOM      4  C   UNL     1       2.826  -3.020  -6.660  0.00  0.00    +0.132 A 
ATOM      5  C   UNL     1       4.157  -2.633  -6.707  0.00  0.00    +0.047 A 
ATOM      6  C   UNL     1       4.952  -3.025  -7.766  0.00  0.00    +0.010 A 
ENDROOT
BRANCH   1  16
ATOM      7  C   UNL     1       6.281  -9.169  -8.405  0.00  0.00    +0.045 C 
ATOM      8  C   UNL     1       6.899  -7.799  -8.298  0.00  0.00    -0.027 A 
ATOM      9  C   UNL     1       7.954  -7.570  -7.493  0.00  0.00    -0.008 A 
ATOM     10  S   UNL     1       8.286  -5.833  -7.730  0.00  0.00    -0.078 S 
ATOM     11  C   UNL     1       7.051  -5.465  -8.855  0.00  0.00    +0.080 A 
ATOM     12  C   UNL     1       6.381  -6.684  -9.056  0.00  0.00    +0.068 A 
ATOM     13  C   UNL     1       5.245  -6.689 -10.006  0.00  0.00    +0.248 C 
ATOM     14  O   UNL     1       4.723  -7.729 -10.365  0.00  0.00    -0.270 OA
ATOM     15  N   UNL     1       4.810  -5.493 -10.457  0.00  0.00    -0.289 N 
ATOM     16  C   UNL     1       5.287  -4.214  -9.943  0.00  0.00    +0.190 C 
ATOM     17  N   UNL     1       6.686  -4.306  -9.488  0.00  0.00    -0.316 N 
ATOM     18  C   UNL     1       8.679  -8.547  -6.604  0.00  0.00    +0.052 C 
ATOM     19  H   UNL     1       4.144  -5.484 -11.162  0.00  0.00    +0.151 HD
ATOM     20  H   UNL     1       7.317  -3.583  -9.630  0.00  0.00    +0.149 HD
ENDBRANCH   1  16
BRANCH   4  21
ATOM     21  O   UNL     1       2.043  -2.639  -5.616  0.00  0.00    -0.422 OA
BRANCH  21  22
ATOM     22  C   UNL     1       1.780  -3.570  -4.678  0.00  0.00    +0.344 C 
ATOM     23  O   UNL     1       2.161  -4.713  -4.832  0.00  0.00    -0.245 OA
BRANCH  22  24
ATOM     24  C   UNL     1       1.027  -3.200  -3.462  0.00  0.00    +0.059 A 
ATOM     25  C   UNL     1       0.753  -4.162  -2.487  0.00  0.00    +0.015 A 
ATOM     26  C   UNL     1       0.050  -3.810  -1.354  0.00  0.00    +0.005 A 
ATOM     27  C   UNL     1      -0.383  -2.507  -1.181  0.00  0.00    -0.042 A 
ATOM     28  C   UNL     1      -0.118  -1.550  -2.144  0.00  0.00    +0.005 A 
ATOM     29  C   UNL     1       0.588  -1.887  -3.280  0.00  0.00    +0.015 A 
BRANCH  27  30
ATOM     30  C   UNL     1      -1.150  -2.130   0.060  0.00  0.00    -0.013 C 
ATOM     31  C   UNL     1      -0.289  -2.403   1.295  0.00  0.00    +0.015 C 
ATOM     32  C   UNL     1      -2.432  -2.961   0.139  0.00  0.00    +0.015 C 
ATOM     33  C   UNL     1      -1.508  -0.644   0.006  0.00  0.00    +0.015 C 
ENDBRANCH  27  30
ENDBRANCH  22  24
ENDBRANCH  21  22
ENDBRANCH   4  21
TORSDOF 5
