REMARK  Name = ZINC45540945
REMARK  11 active torsions:
REMARK  status: ('A' for Active; 'I' for Inactive)
REMARK    1  A    between atoms: C_1  and  C_2
REMARK    2  A    between atoms: C_5  and  C_8
REMARK    3  A    between atoms: C_11  and  S_14
REMARK    4  A    between atoms: S_14  and  C_15
REMARK    5  A    between atoms: C_15  and  C_16
REMARK    6  A    between atoms: N_18  and  C_19
REMARK    7  A    between atoms: C_20  and  C_34
REMARK    8  A    between atoms: C_21  and  C_33
REMARK    9  A    between atoms: C_22  and  C_32
REMARK   10  A    between atoms: N_23  and  C_24
REMARK   11  A    between atoms: C_24  and  C_25
REMARK                            x       y       z     vdW  Elec       q    Type
REMARK                         _______ _______ _______ _____ _____    ______ ____
ROOT
ATOM      1  C   UNL     1       1.585  -7.019   5.304  0.00  0.00    +0.229 C 
ATOM      2  O   UNL     1       2.543  -7.192   6.026  0.00  0.00    -0.275 OA
ATOM      3  N   UNL     1       0.438  -7.689   5.532  0.00  0.00    -0.270 N 
ATOM      4  H   UNL     1      -0.349  -7.500   4.998  0.00  0.00    +0.156 HD
ENDROOT
BRANCH   3   5
ATOM      5  C   UNL     1       0.384  -8.651   6.530  0.00  0.00    +0.124 A 
ATOM      6  C   UNL     1       0.338  -8.409   7.896  0.00  0.00    +0.095 A 
ATOM      7  C   UNL     1       0.290  -9.728   8.539  0.00  0.00    -0.011 A 
ATOM      8  C   UNL     1       0.311 -10.639   7.552  0.00  0.00    +0.022 A 
ATOM      9  N   UNL     1       0.362  -9.996   6.344  0.00  0.00    -0.327 N 
ATOM     10  C   UNL     1       0.277 -12.133   7.744  0.00  0.00    +0.064 C 
ATOM     11  C   UNL     1       0.231 -10.006  10.019  0.00  0.00    +0.047 C 
BRANCH   6  12
ATOM     12  C   UNL     1       0.338  -7.133   8.546  0.00  0.00    +0.103 C 
ATOM     13  N   UNL     1       0.337  -6.120   9.061  0.00  0.00    -0.191 NA
ENDBRANCH   6  12
BRANCH   9  14
ATOM     14  C   UNL     1       0.391 -10.663   5.040  0.00  0.00    +0.158 C 
BRANCH  14  15
ATOM     15  C   UNL     1       1.821 -10.837   4.596  0.00  0.00    -0.028 A 
ATOM     16  C   UNL     1       2.439  -9.847   3.856  0.00  0.00    +0.008 A 
ATOM     17  C   UNL     1       3.751 -10.005   3.449  0.00  0.00    +0.038 A 
ATOM     18  C   UNL     1       4.445 -11.156   3.784  0.00  0.00    +0.123 A 
ATOM     19  C   UNL     1       3.824 -12.146   4.526  0.00  0.00    +0.038 A 
ATOM     20  C   UNL     1       2.514 -11.983   4.936  0.00  0.00    +0.008 A 
ATOM     21  F   UNL     1       5.726 -11.312   3.386  0.00  0.00    -0.205 F 
ENDBRANCH  14  15
ENDBRANCH   9  14
ENDBRANCH   3   5
BRANCH   1  22
ATOM     22  C   UNL     1       1.675  -6.052   4.151  0.00  0.00    +0.173 C 
BRANCH  22  23
ATOM     23  S   UNL     1       3.332  -5.314   4.109  0.00  0.00    -0.077 S 
BRANCH  23  27
ATOM     24  C   UNL     1       2.564  -3.131   0.992  0.00  0.00    +0.182 A 
ATOM     25  N   UNL     1       2.245  -4.027   1.937  0.00  0.00    -0.201 NA
ATOM     26  H   UNL     1       5.180  -3.376   2.677  0.00  0.00    +0.191 HD
ATOM     27  C   UNL     1       3.279  -4.224   2.726  0.00  0.00    +0.185 A 
ATOM     28  N   UNL     1       4.292  -3.443   2.291  0.00  0.00    -0.253 N 
ATOM     29  N   UNL     1       3.809  -2.752   1.169  0.00  0.00    -0.152 NA
BRANCH  24  34
ATOM     30  C   UNL     1      -0.946  -1.269  -3.177  0.00  0.00    +0.044 C 
ATOM     31  C   UNL     1      -0.028  -1.756  -2.086  0.00  0.00    -0.050 A 
ATOM     32  C   UNL     1       1.265  -1.270  -2.006  0.00  0.00    +0.004 A 
ATOM     33  C   UNL     1       2.111  -1.713  -1.008  0.00  0.00    +0.012 A 
ATOM     34  C   UNL     1       1.659  -2.651  -0.082  0.00  0.00    +0.021 A 
ATOM     35  C   UNL     1       0.356  -3.137  -0.168  0.00  0.00    +0.012 A 
ATOM     36  C   UNL     1      -0.482  -2.683  -1.165  0.00  0.00    +0.004 A 
ENDBRANCH  24  34
ENDBRANCH  23  27
ENDBRANCH  22  23
ENDBRANCH   1  22
TORSDOF 8
