REMARK  Name = ZINC02294505
REMARK  9 active torsions:
REMARK  status: ('A' for Active; 'I' for Inactive)
REMARK    1  A    between atoms: C_1  and  C_2
REMARK    2  A    between atoms: C_8  and  N_16
REMARK    3  A    between atoms: C_9  and  C_12
REMARK    4  A    between atoms: C_12  and  O_14
REMARK    5  A    between atoms: O_14  and  C_15
REMARK    6  A    between atoms: C_17  and  C_19
REMARK    7  A    between atoms: C_19  and  N_20
REMARK    8  A    between atoms: C_24  and  C_26
REMARK    9  A    between atoms: C_24  and  C_27
REMARK                            x       y       z     vdW  Elec       q    Type
REMARK                         _______ _______ _______ _____ _____    ______ ____
ROOT
ATOM      1  C   UNL     1       1.643  -7.906   1.567  0.00  0.00    +0.044 C 
ATOM      2  C   UNL     1       1.159  -6.562   1.087  0.00  0.00    -0.050 A 
ATOM      3  C   UNL     1       1.014  -6.328  -0.275  0.00  0.00    +0.005 A 
ATOM      4  C   UNL     1       0.574  -5.107  -0.735  0.00  0.00    +0.026 A 
ATOM      5  C   UNL     1       0.269  -4.094   0.171  0.00  0.00    +0.049 A 
ATOM      6  C   UNL     1       0.417  -4.337   1.550  0.00  0.00    +0.022 A 
ATOM      7  C   UNL     1       0.861  -5.586   1.994  0.00  0.00    +0.015 A 
ATOM      8  C   UNL     1       0.026  -3.103   2.236  0.00  0.00    +0.073 A 
ATOM      9  C   UNL     1      -0.329  -2.201   1.255  0.00  0.00    +0.147 A 
ATOM     10  N   UNL     1      -0.181  -2.804   0.014  0.00  0.00    -0.348 N 
ATOM     11  H   UNL     1      -0.366  -2.378  -0.838  0.00  0.00    +0.166 HD
ENDROOT
BRANCH   8  12
ATOM     12  N   UNL     1       0.016  -2.884   3.610  0.00  0.00    -0.285 N 
ATOM     13  C   UNL     1      -0.384  -3.862   4.445  0.00  0.00    +0.201 C 
ATOM     14  O   UNL     1      -0.639  -4.965   4.010  0.00  0.00    -0.278 OA
ATOM     15  H   UNL     1       0.296  -2.026   3.966  0.00  0.00    +0.155 HD
BRANCH  13  16
ATOM     16  C   UNL     1      -0.512  -3.587   5.921  0.00  0.00    +0.019 C 
BRANCH  16  17
ATOM     17  N   UNL     1      -0.960  -4.806   6.610  0.00  0.00    +0.386 N 
ATOM     18  C   UNL     1      -2.310  -5.156   6.152  0.00  0.00    -0.078 C 
ATOM     19  C   UNL     1      -2.748  -6.469   6.805  0.00  0.00    -0.018 C 
ATOM     20  C   UNL     1      -2.751  -6.300   8.327  0.00  0.00    +0.003 C 
ATOM     21  C   UNL     1      -1.357  -5.862   8.785  0.00  0.00    -0.050 C 
ATOM     22  C   UNL     1      -0.970  -4.572   8.059  0.00  0.00    -0.072 C 
ATOM     23  C   UNL     1      -1.369  -5.614  10.294  0.00  0.00    +0.009 C 
ATOM     24  C   UNL     1      -0.343  -6.958   8.454  0.00  0.00    +0.009 C 
ATOM     25  H   UNL     1      -0.327  -5.562   6.397  0.00  0.00    -0.081 HD
ENDBRANCH  16  17
ENDBRANCH  13  16
ENDBRANCH   8  12
BRANCH   9  26
ATOM     26  C   UNL     1      -0.775  -0.873   1.478  0.00  0.00    +0.357 C 
ATOM     27  O   UNL     1      -0.764  -0.409   2.602  0.00  0.00    -0.243 OA
BRANCH  26  28
ATOM     28  O   UNL     1      -1.211  -0.125   0.443  0.00  0.00    -0.463 OA
ATOM     29  C   UNL     1      -1.645   1.204   0.740  0.00  0.00    +0.280 C 
ENDBRANCH  26  28
ENDBRANCH   9  26
TORSDOF 5
