REMARK  Name = ZINC38899079
REMARK  9 active torsions:
REMARK  status: ('A' for Active; 'I' for Inactive)
REMARK    1  A    between atoms: C_1  and  C_2
REMARK    2  A    between atoms: C_7  and  C_8
REMARK    3  A    between atoms: C_8  and  N_10
REMARK    4  A    between atoms: C_14  and  C_17
REMARK    5  A    between atoms: C_17  and  C_18
REMARK    6  A    between atoms: N_20  and  N_21
REMARK    7  A    between atoms: C_22  and  C_23
REMARK    8  A    between atoms: N_26  and  C_33
REMARK    9  A    between atoms: C_33  and  C_34
REMARK                            x       y       z     vdW  Elec       q    Type
REMARK                         _______ _______ _______ _____ _____    ______ ____
ROOT
ATOM      1  C   UNL     1       2.401   0.371   9.084  0.00  0.00    +0.235 C 
ATOM      2  O   UNL     1       1.569  -0.468   9.357  0.00  0.00    -0.274 OA
ATOM      3  N   UNL     1       3.529   0.465   9.816  0.00  0.00    -0.207 N 
ATOM      4  H   UNL     1       4.194   1.136   9.597  0.00  0.00    +0.177 HD
ENDROOT
BRANCH   3   5
ATOM      5  N   UNL     1       3.740  -0.406  10.893  0.00  0.00    -0.192 NA
ATOM      6  C   UNL     1       4.811  -0.316  11.588  0.00  0.00    +0.113 C 
BRANCH   6   7
ATOM      7  C   UNL     1       5.037  -1.253  12.747  0.00  0.00    +0.081 C 
ATOM      8  C   UNL     1       6.338  -2.048  12.546  0.00  0.00    +0.119 C 
ATOM      9  N   UNL     1       7.191  -1.682  13.680  0.00  0.00    -0.324 N 
ATOM     10  C   UNL     1       6.528  -0.770  14.503  0.00  0.00    +0.034 A 
ATOM     11  C   UNL     1       5.260  -0.471  14.022  0.00  0.00    -0.017 A 
ATOM     12  C   UNL     1       4.441   0.413  14.697  0.00  0.00    +0.006 A 
ATOM     13  C   UNL     1       4.879   1.012  15.864  0.00  0.00    +0.000 A 
ATOM     14  C   UNL     1       6.139   0.723  16.355  0.00  0.00    +0.002 A 
ATOM     15  C   UNL     1       6.965  -0.162  15.682  0.00  0.00    +0.023 A 
BRANCH   9  16
ATOM     16  C   UNL     1       8.542  -2.197  13.915  0.00  0.00    +0.140 C 
BRANCH  16  17
ATOM     17  C   UNL     1       9.547  -1.299  13.240  0.00  0.00    -0.030 A 
ATOM     18  C   UNL     1       9.925  -1.544  11.934  0.00  0.00    +0.005 A 
ATOM     19  C   UNL     1      10.846  -0.720  11.315  0.00  0.00    +0.000 A 
ATOM     20  C   UNL     1      11.389   0.349  12.003  0.00  0.00    +0.000 A 
ATOM     21  C   UNL     1      11.011   0.595  13.309  0.00  0.00    +0.000 A 
ATOM     22  C   UNL     1      10.086  -0.227  13.927  0.00  0.00    +0.005 A 
ENDBRANCH  16  17
ENDBRANCH   9  16
ENDBRANCH   6   7
ENDBRANCH   3   5
BRANCH   1  23
ATOM     23  C   UNL     1       2.174   1.308   7.925  0.00  0.00    +0.137 C 
BRANCH  23  28
ATOM     24  N   UNL     1       0.464  -0.652   3.622  0.00  0.00    -0.149 NA
ATOM     25  C   UNL     1       0.565   0.000   4.767  0.00  0.00    +0.204 C 
ATOM     26  N   UNL     1       0.470   1.353   5.009  0.00  0.00    -0.129 NA
ATOM     27  N   UNL     1       0.577   1.866   6.100  0.00  0.00    -0.170 NA
ATOM     28  C   UNL     1       0.829   0.991   7.269  0.00  0.00    +0.201 C 
ATOM     29  S   UNL     1       0.856  -0.643   6.414  0.00  0.00    -0.058 S 
BRANCH  24  30
ATOM     30  C   UNL     1       0.242   0.023   2.482  0.00  0.00    +0.270 C 
ATOM     31  O   UNL     1       0.134   1.236   2.504  0.00  0.00    -0.268 OA
BRANCH  30  38
ATOM     32  C   UNL     1      -0.511   1.452   0.082  0.00  0.00    +0.044 C 
ATOM     33  C   UNL     1      -0.234  -0.028   0.036  0.00  0.00    -0.038 A 
ATOM     34  C   UNL     1      -0.334  -0.714  -1.157  0.00  0.00    +0.004 A 
ATOM     35  C   UNL     1      -0.080  -2.073  -1.200  0.00  0.00    +0.000 A 
ATOM     36  C   UNL     1       0.275  -2.754  -0.049  0.00  0.00    +0.001 A 
ATOM     37  C   UNL     1       0.377  -2.080   1.150  0.00  0.00    +0.013 A 
ATOM     38  C   UNL     1       0.128  -0.708   1.200  0.00  0.00    +0.042 A 
ENDBRANCH  30  38
ENDBRANCH  24  30
ENDBRANCH  23  28
ENDBRANCH   1  23
TORSDOF 8
