REMARK  Name = ZINC59167165
REMARK  12 active torsions:
REMARK  status: ('A' for Active; 'I' for Inactive)
REMARK    1  A    between atoms: C_1  and  C_2
REMARK    2  A    between atoms: C_5  and  S_8
REMARK    3  A    between atoms: S_8  and  O_11
REMARK    4  A    between atoms: O_11  and  C_12
REMARK    5  A    between atoms: C_17  and  C_18
REMARK    6  A    between atoms: N_19  and  N_20
REMARK    7  A    between atoms: C_21  and  C_23
REMARK    8  A    between atoms: C_23  and  N_24
REMARK    9  A    between atoms: N_24  and  C_25
REMARK   10  A    between atoms: N_24  and  C_32
REMARK   11  A    between atoms: C_25  and  C_26
REMARK   12  A    between atoms: C_32  and  C_33
REMARK                            x       y       z     vdW  Elec       q    Type
REMARK                         _______ _______ _______ _____ _____    ______ ____
ROOT
ATOM      1  N   UNL     1       1.055  -7.726  -0.281  0.00  0.00    -0.209 N 
ATOM      2  C   UNL     1       0.215  -8.080  -1.273  0.00  0.00    +0.216 C 
ATOM      3  O   UNL     1       0.139  -7.401  -2.276  0.00  0.00    -0.276 OA
ATOM      4  H   UNL     1       1.116  -8.269   0.521  0.00  0.00    +0.177 HD
ENDROOT
BRANCH   1   6
ATOM      5  C   UNL     1       2.650  -6.231   0.549  0.00  0.00    +0.142 C 
ATOM      6  N   UNL     1       1.841  -6.572  -0.407  0.00  0.00    -0.188 NA
BRANCH   5  12
ATOM      7  C   UNL     1       3.392  -4.230  -0.740  0.00  0.00    +0.165 A 
ATOM      8  C   UNL     1       4.169  -3.089  -0.852  0.00  0.00    +0.049 A 
ATOM      9  C   UNL     1       5.028  -2.732   0.171  0.00  0.00    +0.004 A 
ATOM     10  C   UNL     1       5.119  -3.510   1.312  0.00  0.00    +0.001 A 
ATOM     11  C   UNL     1       4.353  -4.650   1.440  0.00  0.00    +0.013 A 
ATOM     12  C   UNL     1       3.476  -5.018   0.416  0.00  0.00    +0.039 A 
BRANCH   7  13
ATOM     13  O   UNL     1       2.547  -4.582  -1.744  0.00  0.00    -0.342 OA
BRANCH  13  14
ATOM     14  S   UNL     1       1.152  -3.989  -1.615  0.00  0.00    +0.151 S 
ATOM     15  O   UNL     1       0.819  -4.030  -0.234  0.00  0.00    -0.131 OA
ATOM     16  O   UNL     1       0.352  -4.613  -2.610  0.00  0.00    -0.131 OA
BRANCH  14  21
ATOM     17  C   UNL     1       1.539   1.841  -3.121  0.00  0.00    +0.044 C 
ATOM     18  C   UNL     1       1.443   0.385  -2.745  0.00  0.00    -0.050 A 
ATOM     19  C   UNL     1       1.175  -0.563  -3.715  0.00  0.00    +0.005 A 
ATOM     20  C   UNL     1       1.086  -1.899  -3.370  0.00  0.00    +0.031 A 
ATOM     21  C   UNL     1       1.266  -2.287  -2.055  0.00  0.00    +0.128 A 
ATOM     22  C   UNL     1       1.534  -1.339  -1.085  0.00  0.00    +0.031 A 
ATOM     23  C   UNL     1       1.627  -0.003  -1.431  0.00  0.00    +0.005 A 
ENDBRANCH  14  21
ENDBRANCH  13  14
ENDBRANCH   7  13
ENDBRANCH   5  12
ENDBRANCH   1   6
BRANCH   2  24
ATOM     24  C   UNL     1      -0.630  -9.321  -1.138  0.00  0.00    +0.021 C 
BRANCH  24  25
ATOM     25  N   UNL     1      -1.453  -9.487  -2.343  0.00  0.00    +0.391 N 
ATOM     26  H   UNL     1      -1.992  -8.648  -2.501  0.00  0.00    -0.080 HD
BRANCH  25  27
ATOM     27  C   UNL     1      -0.582  -9.734  -3.500  0.00  0.00    -0.042 C 
BRANCH  27  28
ATOM     28  C   UNL     1      -1.413  -9.757  -4.758  0.00  0.00    -0.064 A 
ATOM     29  C   UNL     1      -1.855 -10.962  -5.272  0.00  0.00    +0.002 A 
ATOM     30  C   UNL     1      -2.616 -10.983  -6.426  0.00  0.00    +0.000 A 
ATOM     31  C   UNL     1      -2.936  -9.799  -7.064  0.00  0.00    +0.000 A 
ATOM     32  C   UNL     1      -2.494  -8.595  -6.550  0.00  0.00    +0.000 A 
ATOM     33  C   UNL     1      -1.737  -8.573  -5.394  0.00  0.00    +0.002 A 
ENDBRANCH  27  28
ENDBRANCH  25  27
BRANCH  25  34
ATOM     34  C   UNL     1      -2.362 -10.626  -2.162  0.00  0.00    -0.042 C 
BRANCH  34  35
ATOM     35  C   UNL     1      -3.340 -10.318  -1.058  0.00  0.00    -0.064 A 
ATOM     36  C   UNL     1      -3.078 -10.737   0.234  0.00  0.00    +0.002 A 
ATOM     37  C   UNL     1      -3.975 -10.455   1.247  0.00  0.00    +0.000 A 
ATOM     38  C   UNL     1      -5.133  -9.752   0.969  0.00  0.00    +0.000 A 
ATOM     39  C   UNL     1      -5.394  -9.332  -0.322  0.00  0.00    +0.000 A 
ATOM     40  C   UNL     1      -4.495  -9.611  -1.334  0.00  0.00    +0.002 A 
ENDBRANCH  34  35
ENDBRANCH  25  34
ENDBRANCH  24  25
ENDBRANCH   2  24
TORSDOF 11
