REMARK  Name = ZINC33297844
REMARK  11 active torsions:
REMARK  status: ('A' for Active; 'I' for Inactive)
REMARK    1  A    between atoms: C_1  and  C_2
REMARK    2  A    between atoms: N_8  and  C_9
REMARK    3  A    between atoms: C_9  and  C_10
REMARK    4  A    between atoms: C_10  and  N_11
REMARK    5  A    between atoms: N_11  and  S_12
REMARK    6  A    between atoms: S_12  and  C_15
REMARK    7  A    between atoms: C_17  and  C_20
REMARK    8  A    between atoms: C_22  and  C_25
REMARK    9  A    between atoms: C_25  and  C_26
REMARK   10  A    between atoms: C_25  and  C_27
REMARK   11  A    between atoms: C_25  and  C_28
REMARK                            x       y       z     vdW  Elec       q    Type
REMARK                         _______ _______ _______ _____ _____    ______ ____
ROOT
ATOM      1  S   UNL     1      -1.409   2.867   0.025  0.00  0.00    +0.065 S 
ATOM      2  O   UNL     1      -2.494   2.134   0.578  0.00  0.00    -0.153 OA
ATOM      3  O   UNL     1      -0.958   4.095   0.579  0.00  0.00    -0.153 OA
ENDROOT
BRANCH   1   4
ATOM      4  C   UNL     1      -0.022   1.780   0.012  0.00  0.00    +0.143 A 
ATOM      5  C   UNL     1       1.294   2.086   0.001  0.00  0.00    +0.047 A 
ATOM      6  C   UNL     1       2.228   1.053  -0.014  0.00  0.00    +0.016 A 
ATOM      7  C   UNL     1       1.772  -0.238  -0.016  0.00  0.00    +0.057 A 
ATOM      8  S   UNL     1       0.002  -0.004   0.002  0.00  0.00    -0.076 S 
BRANCH   6   9
ATOM      9  C   UNL     1       3.678   1.343  -0.025  0.00  0.00    +0.109 A 
ATOM     10  N   UNL     1       4.704   0.503  -0.033  0.00  0.00    -0.243 NA
ATOM     11  C   UNL     1       5.943   0.942  -0.048  0.00  0.00    +0.054 A 
ATOM     12  C   UNL     1       6.188   2.277  -0.043  0.00  0.00    +0.071 A 
ATOM     13  S   UNL     1       4.519   2.920  -0.025  0.00  0.00    -0.075 S 
BRANCH  11  14
ATOM     14  C   UNL     1       7.089  -0.035  -0.064  0.00  0.00    +0.005 C 
ATOM     15  C   UNL     1       7.732  -0.089   1.324  0.00  0.00    +0.017 C 
ATOM     16  C   UNL     1       6.570  -1.425  -0.440  0.00  0.00    +0.017 C 
ATOM     17  C   UNL     1       8.130   0.415  -1.090  0.00  0.00    +0.017 C 
ENDBRANCH  11  14
ENDBRANCH   6   9
ENDBRANCH   1   4
BRANCH   1  18
ATOM     18  N   UNL     1      -1.803   3.177  -1.554  0.00  0.00    -0.191 NA
ATOM     19  H   UNL     1      -1.547   4.154  -1.990  0.00  0.00    +0.148 HD
BRANCH  18  20
ATOM     20  C   UNL     1      -2.284   2.094  -2.415  0.00  0.00    +0.087 C 
BRANCH  20  21
ATOM     21  C   UNL     1      -2.921   2.687  -3.673  0.00  0.00    -0.061 C 
BRANCH  21  28
ATOM     22  C   UNL     1      -3.443   3.200  -6.390  0.00  0.00    -0.013 C 
ATOM     23  C   UNL     1      -4.227   2.127  -5.633  0.00  0.00    -0.072 C 
ATOM     24  C   UNL     1      -4.589   0.989  -6.591  0.00  0.00    -0.016 C 
ATOM     25  C   UNL     1      -5.356  -0.092  -5.824  0.00  0.00    -0.003 C 
ATOM     26  C   UNL     1      -4.496  -0.588  -4.659  0.00  0.00    -0.019 C 
ATOM     27  C   UNL     1      -4.136   0.595  -3.757  0.00  0.00    -0.078 C 
ATOM     28  N   UNL     1      -3.403   1.601  -4.537  0.00  0.00    +0.382 N 
ATOM     29  H   UNL     1      -2.527   1.107  -4.982  0.00  0.00    -0.081 HD
ENDBRANCH  21  28
ENDBRANCH  20  21
ENDBRANCH  18  20
ENDBRANCH   1  18
TORSDOF 7
