REMARK  Name = ZINC00076677
REMARK  2 active torsions:
REMARK  status: ('A' for Active; 'I' for Inactive)
REMARK    1  A    between atoms: C_1  and  S_2
REMARK    2  A    between atoms: S_2  and  C_3
REMARK                            x       y       z     vdW  Elec       q    Type
REMARK                         _______ _______ _______ _____ _____    ______ ____
ROOT
ATOM      1  C   UNL     1       2.287   1.356  -0.013  0.00  0.00    +0.194 A 
ATOM      2  N   UNL     1       1.126   2.006   0.002  0.00  0.00    -0.189 NA
ATOM      3  C   UNL     1      -0.016   1.325   0.009  0.00  0.00    +0.218 A 
ATOM      4  N   UNL     1       0.002  -0.004   0.002  0.00  0.00    -0.181 NA
ATOM      5  C   UNL     1       1.162  -0.653  -0.013  0.00  0.00    +0.223 A 
ATOM      6  N   UNL     1       2.304   0.026  -0.020  0.00  0.00    -0.189 NA
ATOM      7  N   UNL     1       1.180  -2.033  -0.020  0.00  0.00    -0.300 N 
ATOM      8  C   UNL     1       1.837  -2.563   1.202  0.00  0.00    +0.108 C 
ATOM      9  C   UNL     1       1.312  -4.019   1.284  0.00  0.00    +0.020 C 
ATOM     10  C   UNL     1      -0.153  -3.885   0.811  0.00  0.00    +0.020 C 
ATOM     11  C   UNL     1      -0.193  -2.582  -0.009  0.00  0.00    +0.108 C 
ATOM     12  N   UNL     1      -1.220   1.999   0.019  0.00  0.00    -0.327 N 
ATOM     13  H   UNL     1      -2.054   1.503   0.020  0.00  0.00    +0.145 HD
ATOM     14  H   UNL     1      -1.234   2.969   0.024  0.00  0.00    +0.145 HD
ENDROOT
BRANCH   1  16
ATOM     15  C   UNL     1       3.159   3.950  -0.007  0.00  0.00    +0.093 C 
ATOM     16  S   UNL     1       3.800   2.258  -0.022  0.00  0.00    -0.089 S 
ENDBRANCH   1  16
TORSDOF 1
