REMARK  Name = ZINC13596381
REMARK  4 active torsions:
REMARK  status: ('A' for Active; 'I' for Inactive)
REMARK    1  A    between atoms: C_9  and  C_12
REMARK    2  A    between atoms: N_14  and  N_15
REMARK    3  A    between atoms: C_16  and  C_17
REMARK    4  A    between atoms: C_22  and  O_23
REMARK                            x       y       z     vdW  Elec       q    Type
REMARK                         _______ _______ _______ _____ _____    ______ ____
ROOT
ATOM      1  C   UNL     1       0.327   1.745   1.611  0.00  0.00    +0.276 C 
ATOM      2  O   UNL     1      -0.794   2.176   1.439  0.00  0.00    -0.270 OA
ATOM      3  N   UNL     1       1.387   2.402   1.099  0.00  0.00    -0.204 N 
ATOM      4  H   UNL     1       2.275   2.017   1.167  0.00  0.00    +0.177 HD
ENDROOT
BRANCH   1  13
ATOM      5  C   UNL     1      -0.892  -3.811   4.427  0.00  0.00    +0.004 A 
ATOM      6  C   UNL     1      -1.844  -2.879   4.796  0.00  0.00    +0.004 A 
ATOM      7  C   UNL     1      -1.779  -1.589   4.303  0.00  0.00    +0.049 A 
ATOM      8  C   UNL     1      -0.758  -1.227   3.437  0.00  0.00    +0.163 A 
ATOM      9  C   UNL     1       0.199  -2.164   3.067  0.00  0.00    +0.162 A 
ATOM     10  C   UNL     1       0.128  -3.457   3.564  0.00  0.00    +0.049 A 
ATOM     11  O   UNL     1       1.213  -1.827   2.224  0.00  0.00    -0.484 OA
ATOM     12  C   UNL     1       1.040  -0.632   1.454  0.00  0.00    +0.283 C 
ATOM     13  C   UNL     1       0.534   0.473   2.391  0.00  0.00    +0.297 C 
ATOM     14  O   UNL     1      -0.709   0.046   2.957  0.00  0.00    -0.472 OA
ENDBRANCH   1  13
BRANCH   3  15
ATOM     15  N   UNL     1       1.206   3.640   0.468  0.00  0.00    -0.187 NA
ATOM     16  C   UNL     1       2.206   4.219  -0.124  0.00  0.00    +0.142 C 
BRANCH  16  17
ATOM     17  C   UNL     1       3.469   3.485  -0.325  0.00  0.00    +0.038 A 
ATOM     18  C   UNL     1       3.462   2.092  -0.432  0.00  0.00    +0.028 A 
ATOM     19  C   UNL     1       4.647   1.412  -0.626  0.00  0.00    +0.020 A 
ATOM     20  C   UNL     1       5.844   2.104  -0.704  0.00  0.00    +0.039 A 
ATOM     21  C   UNL     1       5.864   3.482  -0.593  0.00  0.00    +0.084 A 
ATOM     22  C   UNL     1       4.682   4.181  -0.404  0.00  0.00    +0.144 A 
ATOM     23 CL   UNL     1       7.371   4.338  -0.692  0.00  0.00    -0.080 Cl
ATOM     24 BR   UNL     1       4.636  -0.473  -0.778  0.00  0.00    -0.050 Br
BRANCH  22  25
ATOM     25  O   UNL     1       4.700   5.535  -0.295  0.00  0.00    -0.505 OA
ATOM     26  H   UNL     1       4.879   5.855   0.600  0.00  0.00    +0.292 HD
ENDBRANCH  22  25
ENDBRANCH  16  17
ENDBRANCH   3  15
TORSDOF 4
