REMARK  Name = ZINC40993291
REMARK  9 active torsions:
REMARK  status: ('A' for Active; 'I' for Inactive)
REMARK    1  A    between atoms: C_1  and  C_2
REMARK    2  A    between atoms: C_5  and  C_29
REMARK    3  A    between atoms: C_6  and  O_8
REMARK    4  A    between atoms: O_8  and  C_9
REMARK    5  A    between atoms: C_9  and  C_10
REMARK    6  A    between atoms: C_15  and  C_18
REMARK    7  A    between atoms: C_22  and  N_24
REMARK    8  A    between atoms: C_29  and  C_30
REMARK    9  A    between atoms: C_29  and  C_31
REMARK                            x       y       z     vdW  Elec       q    Type
REMARK                         _______ _______ _______ _____ _____    ______ ____
ROOT
ATOM      1  C   UNL     1       0.063  -2.932   4.751  0.00  0.00    +0.256 C 
ATOM      2  O   UNL     1       0.078  -4.133   4.584  0.00  0.00    -0.272 OA
ATOM      3  N   UNL     1       0.062  -2.425   6.000  0.00  0.00    -0.262 N 
ATOM      4  C   UNL     1       0.078  -3.279   7.096  0.00  0.00    +0.165 A 
ATOM      5  N   UNL     1       0.075  -2.986   8.383  0.00  0.00    -0.225 NA
ATOM      6  C   UNL     1       0.093  -3.937   9.305  0.00  0.00    +0.080 A 
ATOM      7  C   UNL     1       0.115  -5.248   8.916  0.00  0.00    +0.076 A 
ATOM      8  S   UNL     1       0.102  -5.066   7.137  0.00  0.00    -0.060 S 
ATOM      9  H   UNL     1       0.050  -1.465   6.134  0.00  0.00    +0.157 HD
ENDROOT
BRANCH   6  10
ATOM     10  C   UNL     1       0.089  -3.584  10.745  0.00  0.00    +0.003 A 
ATOM     11  C   UNL     1       0.114  -4.588  11.712  0.00  0.00    +0.010 A 
ATOM     12  C   UNL     1       0.111  -4.257  13.052  0.00  0.00    +0.003 A 
ATOM     13  C   UNL     1       0.083  -2.931  13.440  0.00  0.00    +0.028 A 
ATOM     14  C   UNL     1       0.057  -1.924  12.484  0.00  0.00    +0.069 A 
ATOM     15  C   UNL     1       0.066  -2.247  11.136  0.00  0.00    +0.038 A 
BRANCH  14  16
ATOM     16  N   UNL     1       0.028  -0.579  12.883  0.00  0.00    -0.200 N 
ATOM     17  C   UNL     1       0.120  -0.094  14.140  0.00  0.00    +0.250 A 
ATOM     18  N   UNL     1       0.049   1.209  14.059  0.00  0.00    -0.116 NA
ATOM     19  N   UNL     1      -0.081   1.581  12.837  0.00  0.00    -0.023 NA
ATOM     20  N   UNL     1      -0.097   0.553  12.058  0.00  0.00    -0.039 NA
ENDBRANCH  14  16
ENDBRANCH   6  10
BRANCH   1  21
ATOM     21  C   UNL     1       0.045  -2.006   3.562  0.00  0.00    +0.325 C 
BRANCH  21  22
ATOM     22  O   UNL     1       0.050  -2.776   2.358  0.00  0.00    -0.482 OA
BRANCH  22  28
ATOM     23  C   UNL     1      -0.018   1.503   0.010  0.00  0.00    +0.044 C 
ATOM     24  C   UNL     1       0.002  -0.004   0.002  0.00  0.00    -0.047 A 
ATOM     25  C   UNL     1       0.006  -0.688  -1.200  0.00  0.00    +0.004 A 
ATOM     26  C   UNL     1       0.024  -2.071  -1.211  0.00  0.00    +0.008 A 
ATOM     27  C   UNL     1       0.039  -2.772  -0.020  0.00  0.00    -0.003 A 
ATOM     28  C   UNL     1       0.035  -2.088   1.186  0.00  0.00    +0.125 A 
ATOM     29  C   UNL     1       0.023  -0.700   1.195  0.00  0.00    +0.049 A 
BRANCH  27  30
ATOM     30  C   UNL     1       0.059  -4.279  -0.033  0.00  0.00    +0.016 C 
ATOM     31  C   UNL     1      -1.188  -4.799  -0.753  0.00  0.00    +0.012 C 
ATOM     32  C   UNL     1       1.311  -4.766  -0.764  0.00  0.00    +0.012 C 
ENDBRANCH  27  30
ENDBRANCH  22  28
ENDBRANCH  21  22
ENDBRANCH   1  21
TORSDOF 6
