REMARK  Name = ZINC36374957
REMARK  8 active torsions:
REMARK  status: ('A' for Active; 'I' for Inactive)
REMARK    1  A    between atoms: C_1  and  C_2
REMARK    2  A    between atoms: C_2  and  C_3
REMARK    3  A    between atoms: C_2  and  C_4
REMARK    4  A    between atoms: C_2  and  O_29
REMARK    5  A    between atoms: C_6  and  O_28
REMARK    6  A    between atoms: C_13  and  O_14
REMARK    7  A    between atoms: C_17  and  C_20
REMARK    8  A    between atoms: C_23  and  O_26
REMARK                            x       y       z     vdW  Elec       q    Type
REMARK                         _______ _______ _______ _____ _____    ______ ____
ROOT
ATOM      1  C   UNL     1      -1.433  -0.534   0.013  0.00  0.00    +0.237 C 
ATOM      2  C   UNL     1      -1.448  -2.079  -0.058  0.00  0.00    +0.195 C 
ATOM      3  C   UNL     1      -2.668  -2.341  -0.919  0.00  0.00    +0.068 A 
ATOM      4  C   UNL     1      -3.001  -1.135  -1.534  0.00  0.00    +0.134 A 
ATOM      5  C   UNL     1      -4.104  -1.078  -2.382  0.00  0.00    +0.093 A 
ATOM      6  C   UNL     1      -4.866  -2.210  -2.623  0.00  0.00    +0.145 A 
ATOM      7  C   UNL     1      -4.510  -3.424  -2.009  0.00  0.00    +0.106 A 
ATOM      8  C   UNL     1      -3.407  -3.482  -1.148  0.00  0.00    +0.140 A 
ATOM      9  C   UNL     1      -5.322  -4.617  -2.302  0.00  0.00    +0.204 A 
ATOM     10  O   UNL     1      -5.221  -5.644  -1.653  0.00  0.00    -0.286 OA
ATOM     11  C   UNL     1      -6.266  -4.494  -3.431  0.00  0.00    +0.064 A 
ATOM     12  C   UNL     1      -6.507  -3.254  -3.931  0.00  0.00    +0.208 A 
ATOM     13  O   UNL     1      -5.940  -2.152  -3.437  0.00  0.00    -0.462 OA
ATOM     14  O   UNL     1      -2.127  -0.148  -1.186  0.00  0.00    -0.482 OA
ENDROOT
BRANCH  11  15
ATOM     15  C   UNL     1      -6.933  -5.690  -4.001  0.00  0.00    -0.011 A 
ATOM     16  C   UNL     1      -7.834  -6.421  -3.230  0.00  0.00    +0.012 A 
ATOM     17  C   UNL     1      -8.453  -7.533  -3.763  0.00  0.00    +0.046 A 
ATOM     18  C   UNL     1      -8.178  -7.923  -5.066  0.00  0.00    +0.117 A 
ATOM     19  C   UNL     1      -7.280  -7.197  -5.837  0.00  0.00    +0.046 A 
ATOM     20  C   UNL     1      -6.663  -6.081  -5.311  0.00  0.00    +0.012 A 
BRANCH  18  21
ATOM     21  O   UNL     1      -8.789  -9.019  -5.589  0.00  0.00    -0.507 OA
ATOM     22  H   UNL     1      -9.628  -8.828  -6.032  0.00  0.00    +0.292 HD
ENDBRANCH  18  21
ENDBRANCH  11  15
BRANCH   1  24
ATOM     23  C   UNL     1      -0.019   1.526   0.010  0.00  0.00    +0.045 C 
ATOM     24  C   UNL     1       0.002  -0.004   0.002  0.00  0.00    +0.100 C 
ATOM     25  C   UNL     1       0.742  -0.511   1.242  0.00  0.00    +0.045 C 
BRANCH  24  26
ATOM     26  O   UNL     1       0.671  -0.465  -1.174  0.00  0.00    -0.385 OA
ATOM     27  H   UNL     1       1.588  -0.167  -1.247  0.00  0.00    +0.210 HD
ENDBRANCH  24  26
ENDBRANCH   1  24
BRANCH   8  28
ATOM     28  O   UNL     1      -3.069  -4.649  -0.544  0.00  0.00    -0.505 OA
ATOM     29  H   UNL     1      -3.494  -4.785   0.314  0.00  0.00    +0.292 HD
ENDBRANCH   8  28
BRANCH   2  30
ATOM     30  O   UNL     1      -0.263  -2.572  -0.686  0.00  0.00    -0.383 OA
ATOM     31  H   UNL     1      -0.226  -3.536  -0.754  0.00  0.00    +0.210 HD
ENDBRANCH   2  30
TORSDOF 6
