REMARK  Name = ZINC32791533
REMARK  8 active torsions:
REMARK  status: ('A' for Active; 'I' for Inactive)
REMARK    1  A    between atoms: C_1  and  C_2
REMARK    2  A    between atoms: C_2  and  C_4
REMARK    3  A    between atoms: C_2  and  N_12
REMARK    4  A    between atoms: N_12  and  C_13
REMARK    5  A    between atoms: C_13  and  C_15
REMARK    6  A    between atoms: C_13  and  C_16
REMARK    7  A    between atoms: N_18  and  C_19
REMARK    8  A    between atoms: C_24  and  C_25
REMARK                            x       y       z     vdW  Elec       q    Type
REMARK                         _______ _______ _______ _____ _____    ______ ____
ROOT
ATOM      1  C   UNL     1       5.624  -0.952  -1.518  0.00  0.00    +0.014 C 
ATOM      2  C   UNL     1       6.745  -1.280  -0.530  0.00  0.00    -0.004 C 
ENDROOT
BRANCH   1   3
ATOM      3  C   UNL     1       6.214  -0.341  -2.763  0.00  0.00    +0.203 C 
ATOM      4  O   UNL     1       5.889   0.777  -3.102  0.00  0.00    -0.277 OA
ATOM      5  N   UNL     1       7.102  -1.038  -3.499  0.00  0.00    -0.286 N 
ATOM      6  H   UNL     1       7.326  -2.084  -3.245  0.00  0.00    +0.155 HD
BRANCH   5   7
ATOM      7  C   UNL     1       7.736  -0.432  -4.583  0.00  0.00    +0.051 A 
ATOM      8  C   UNL     1       8.055   0.918  -4.539  0.00  0.00    +0.024 A 
ATOM      9  C   UNL     1       8.687   1.515  -5.612  0.00  0.00    +0.002 A 
ATOM     10  C   UNL     1       8.999   0.776  -6.741  0.00  0.00    +0.001 A 
ATOM     11  C   UNL     1       8.686  -0.565  -6.805  0.00  0.00    +0.021 A 
ATOM     12  C   UNL     1       8.050  -1.184  -5.725  0.00  0.00    +0.073 A 
BRANCH  12  13
ATOM     13  C   UNL     1       7.722  -2.576  -5.785  0.00  0.00    +0.101 C 
ATOM     14  N   UNL     1       7.461  -3.681  -5.832  0.00  0.00    -0.191 NA
ENDBRANCH  12  13
ENDBRANCH   5   7
ENDBRANCH   1   3
BRANCH   1  15
ATOM     15  N   UNL     1       4.691   0.001  -0.900  0.00  0.00    +0.391 N 
ATOM     16  H   UNL     1       4.128   0.509  -1.696  0.00  0.00    -0.084 HD
ATOM     17  H   UNL     1       5.271   0.742  -0.330  0.00  0.00    -0.084 HD
BRANCH  15  19
ATOM     18  C   UNL     1       3.158   0.322   0.982  0.00  0.00    -0.009 C 
ATOM     19  C   UNL     1       3.756  -0.687  -0.000  0.00  0.00    -0.043 C 
BRANCH  19  20
ATOM     20  C   UNL     1       2.650  -1.315  -0.810  0.00  0.00    -0.060 A 
ATOM     21  C   UNL     1       2.112  -0.636  -1.887  0.00  0.00    +0.003 A 
ATOM     22  C   UNL     1       1.098  -1.211  -2.630  0.00  0.00    +0.021 A 
ATOM     23  C   UNL     1       0.622  -2.466  -2.296  0.00  0.00    +0.059 A 
ATOM     24  C   UNL     1       1.161  -3.145  -1.217  0.00  0.00    +0.059 A 
ATOM     25  C   UNL     1       2.175  -2.568  -0.474  0.00  0.00    +0.023 A 
ATOM     26 CL   UNL     1       0.564  -4.721  -0.797  0.00  0.00    -0.082 Cl
ATOM     27 CL   UNL     1      -0.647  -3.191  -3.233  0.00  0.00    -0.082 Cl
ENDBRANCH  19  20
ENDBRANCH  15  19
ENDBRANCH   1  15
TORSDOF 6
