REMARK  Name = ZINC03145957
REMARK  10 active torsions:
REMARK  status: ('A' for Active; 'I' for Inactive)
REMARK    1  A    between atoms: C_1  and  C_2
REMARK    2  A    between atoms: C_5  and  N_9
REMARK    3  A    between atoms: C_6  and  C_8
REMARK    4  A    between atoms: N_9  and  C_10
REMARK    5  A    between atoms: N_9  and  S_25
REMARK    6  A    between atoms: C_10  and  C_11
REMARK    7  A    between atoms: N_13  and  N_14
REMARK    8  A    between atoms: C_15  and  C_16
REMARK    9  A    between atoms: C_21  and  O_22
REMARK   10  A    between atoms: S_25  and  C_28
REMARK                            x       y       z     vdW  Elec       q    Type
REMARK                         _______ _______ _______ _____ _____    ______ ____
ROOT
ATOM      1  N   UNL     1       0.095  -4.234  -0.378  0.00  0.00    -0.194 N 
ENDROOT
BRANCH   1   6
ATOM      2  C   UNL     1       1.058   1.323   0.211  0.00  0.00    +0.044 C 
ATOM      3  C   UNL     1       0.802  -0.153   0.055  0.00  0.00    -0.050 A 
ATOM      4  C   UNL     1       0.916  -0.993   1.148  0.00  0.00    +0.005 A 
ATOM      5  C   UNL     1       0.682  -2.347   1.008  0.00  0.00    +0.025 A 
ATOM      6  C   UNL     1       0.332  -2.865  -0.233  0.00  0.00    +0.055 A 
ATOM      7  C   UNL     1       0.217  -2.019  -1.328  0.00  0.00    -0.028 A 
ATOM      8  C   UNL     1       0.448  -0.665  -1.180  0.00  0.00    +0.008 A 
ATOM      9  C   UNL     1      -0.162  -2.577  -2.675  0.00  0.00    +0.046 C 
ENDBRANCH   1   6
BRANCH   1  10
ATOM     10  S   UNL     1      -1.444  -4.828  -0.230  0.00  0.00    +0.075 S 
ATOM     11  O   UNL     1      -1.319  -6.221   0.019  0.00  0.00    -0.150 OA
ATOM     12  O   UNL     1      -2.134  -3.955   0.653  0.00  0.00    -0.150 OA
BRANCH  10  13
ATOM     13  C   UNL     1      -2.218  -4.666  -1.805  0.00  0.00    +0.109 A 
ATOM     14  C   UNL     1      -3.028  -3.577  -2.068  0.00  0.00    +0.029 A 
ATOM     15  C   UNL     1      -3.635  -3.449  -3.303  0.00  0.00    +0.002 A 
ATOM     16  C   UNL     1      -3.433  -4.411  -4.276  0.00  0.00    +0.000 A 
ATOM     17  C   UNL     1      -2.622  -5.500  -4.013  0.00  0.00    +0.002 A 
ATOM     18  C   UNL     1      -2.011  -5.625  -2.779  0.00  0.00    +0.029 A 
ENDBRANCH  10  13
ENDBRANCH   1  10
BRANCH   1  19
ATOM     19  C   UNL     1       1.207  -5.144  -0.660  0.00  0.00    +0.228 C 
BRANCH  19  20
ATOM     20  C   UNL     1       1.877  -5.535   0.632  0.00  0.00    +0.251 C 
ATOM     21  O   UNL     1       1.403  -5.182   1.692  0.00  0.00    -0.272 OA
ATOM     22  N   UNL     1       3.002  -6.277   0.610  0.00  0.00    -0.206 N 
ATOM     23  H   UNL     1       3.381  -6.559  -0.237  0.00  0.00    +0.177 HD
BRANCH  22  24
ATOM     24  N   UNL     1       3.625  -6.640   1.811  0.00  0.00    -0.188 NA
ATOM     25  C   UNL     1       4.708  -7.354   1.790  0.00  0.00    +0.142 C 
BRANCH  25  26
ATOM     26  C   UNL     1       5.364  -7.737   3.054  0.00  0.00    +0.039 A 
ATOM     27  C   UNL     1       6.533  -8.500   3.036  0.00  0.00    +0.033 A 
ATOM     28  C   UNL     1       7.142  -8.855   4.222  0.00  0.00    +0.043 A 
ATOM     29  C   UNL     1       6.597  -8.457   5.433  0.00  0.00    +0.043 A 
ATOM     30  C   UNL     1       5.440  -7.702   5.463  0.00  0.00    +0.084 A 
ATOM     31  C   UNL     1       4.820  -7.331   4.280  0.00  0.00    +0.144 A 
ATOM     32 CL   UNL     1       4.766  -7.209   6.986  0.00  0.00    -0.080 Cl
ATOM     33 CL   UNL     1       8.595  -9.804   4.198  0.00  0.00    -0.083 Cl
BRANCH  31  34
ATOM     34  O   UNL     1       3.686  -6.583   4.309  0.00  0.00    -0.505 OA
ATOM     35  H   UNL     1       2.872  -7.104   4.346  0.00  0.00    +0.292 HD
ENDBRANCH  31  34
ENDBRANCH  25  26
ENDBRANCH  22  24
ENDBRANCH  19  20
ENDBRANCH   1  19
TORSDOF 8
