REMARK  Name = ZINC39534204
REMARK  12 active torsions:
REMARK  status: ('A' for Active; 'I' for Inactive)
REMARK    1  A    between atoms: C_1  and  C_2
REMARK    2  A    between atoms: C_2  and  C_3
REMARK    3  A    between atoms: C_2  and  S_4
REMARK    4  A    between atoms: S_4  and  C_7
REMARK    5  A    between atoms: N_10  and  C_14
REMARK    6  A    between atoms: C_14  and  C_16
REMARK    7  A    between atoms: C_14  and  C_25
REMARK    8  A    between atoms: C_16  and  N_17
REMARK    9  A    between atoms: N_17  and  C_18
REMARK   10  A    between atoms: C_23  and  O_24
REMARK   11  A    between atoms: C_28  and  C_31
REMARK   12  A    between atoms: C_36  and  O_37
REMARK                            x       y       z     vdW  Elec       q    Type
REMARK                         _______ _______ _______ _____ _____    ______ ____
ROOT
ATOM      1  C   UNL     1       0.242  -0.209   6.574  0.00  0.00    +0.104 C 
ENDROOT
BRANCH   1   4
ATOM      2  C   UNL     1      -0.423  -0.300   2.868  0.00  0.00    +0.212 C 
ATOM      3  C   UNL     1       0.302  -0.592   4.184  0.00  0.00    +0.127 C 
ATOM      4  N   UNL     1      -0.380   0.107   5.281  0.00  0.00    -0.290 NA
ATOM      5  C   UNL     1      -0.399   1.558   5.047  0.00  0.00    +0.100 C 
ATOM      6  C   UNL     1      -1.124   1.850   3.731  0.00  0.00    +0.098 C 
ATOM      7  N   UNL     1      -0.442   1.151   2.633  0.00  0.00    -0.293 NA
ATOM      8  H   UNL     1       0.492   1.508   2.502  0.00  0.00    +0.124 HD
BRANCH   2   9
ATOM      9  S   UNL     1       0.445  -1.122   1.503  0.00  0.00    -0.012 S 
ATOM     10  O   UNL     1       0.344  -2.528   1.689  0.00  0.00    -0.173 OA
ATOM     11  O   UNL     1       1.731  -0.534   1.369  0.00  0.00    -0.173 OA
BRANCH   9  13
ATOM     12  C   UNL     1      -0.567   0.862  -0.084  0.00  0.00    +0.031 C 
ATOM     13  C   UNL     1      -0.551  -0.661   0.059  0.00  0.00    +0.126 C 
ATOM     14  C   UNL     1       0.056  -1.285  -1.199  0.00  0.00    +0.031 C 
ENDBRANCH   9  13
ENDBRANCH   2   9
ENDBRANCH   1   4
BRANCH   1  15
ATOM     15  C   UNL     1       0.178  -1.696   6.812  0.00  0.00    -0.029 A 
ATOM     16  C   UNL     1      -0.958  -2.402   6.458  0.00  0.00    +0.006 A 
ATOM     17  C   UNL     1      -1.022  -3.763   6.674  0.00  0.00    +0.009 A 
ATOM     18  C   UNL     1       0.060  -4.427   7.249  0.00  0.00    -0.014 A 
ATOM     19  C   UNL     1       1.202  -3.710   7.603  0.00  0.00    +0.009 A 
ATOM     20  C   UNL     1       1.257  -2.350   7.378  0.00  0.00    +0.006 A 
BRANCH  18  21
ATOM     21  C   UNL     1      -0.003  -5.890   7.484  0.00  0.00    +0.024 A 
ATOM     22  C   UNL     1      -1.104  -6.448   8.131  0.00  0.00    +0.012 A 
ATOM     23  C   UNL     1      -1.158  -7.810   8.347  0.00  0.00    +0.001 A 
ATOM     24  C   UNL     1      -0.123  -8.624   7.924  0.00  0.00    +0.004 A 
ATOM     25  C   UNL     1       0.974  -8.081   7.283  0.00  0.00    +0.046 A 
ATOM     26  C   UNL     1       1.039  -6.716   7.053  0.00  0.00    +0.125 A 
BRANCH  26  27
ATOM     27  O   UNL     1       2.114  -6.182   6.417  0.00  0.00    -0.506 OA
ATOM     28  H   UNL     1       2.831  -5.920   7.010  0.00  0.00    +0.292 HD
ENDBRANCH  26  27
ENDBRANCH  18  21
ENDBRANCH   1  15
BRANCH   1  29
ATOM     29  C   UNL     1      -0.507   0.519   7.692  0.00  0.00    +0.125 C 
BRANCH  29  30
ATOM     30  N   UNL     1       0.158   0.265   8.972  0.00  0.00    -0.339 N 
ATOM     31  H   UNL     1       0.991  -0.232   8.995  0.00  0.00    +0.146 HD
BRANCH  30  32
ATOM     32  C   UNL     1      -0.408   0.737  10.161  0.00  0.00    +0.069 A 
ATOM     33  C   UNL     1      -1.603   1.442  10.131  0.00  0.00    +0.026 A 
ATOM     34  C   UNL     1      -2.161   1.907  11.307  0.00  0.00    +0.002 A 
ATOM     35  C   UNL     1      -1.531   1.672  12.515  0.00  0.00    +0.004 A 
ATOM     36  C   UNL     1      -0.340   0.970  12.553  0.00  0.00    +0.047 A 
ATOM     37  C   UNL     1       0.223   0.496  11.380  0.00  0.00    +0.138 A 
BRANCH  37  38
ATOM     38  O   UNL     1       1.391  -0.199  11.416  0.00  0.00    -0.505 OA
ATOM     39  H   UNL     1       2.181   0.355  11.342  0.00  0.00    +0.292 HD
ENDBRANCH  37  38
ENDBRANCH  30  32
ENDBRANCH  29  30
ENDBRANCH   1  29
TORSDOF 10
