REMARK  Name = ZINC59514209
REMARK  6 active torsions:
REMARK  status: ('A' for Active; 'I' for Inactive)
REMARK    1  A    between atoms: C_6  and  N_7
REMARK    2  A    between atoms: N_7  and  C_8
REMARK    3  A    between atoms: C_8  and  C_9
REMARK    4  A    between atoms: N_11  and  N_12
REMARK    5  A    between atoms: C_13  and  C_14
REMARK    6  A    between atoms: C_19  and  O_20
REMARK                            x       y       z     vdW  Elec       q    Type
REMARK                         _______ _______ _______ _____ _____    ______ ____
ROOT
ATOM      1  C   UNL     1      -2.589  -2.708   0.013  0.00  0.00    +0.249 C 
ATOM      2  O   UNL     1      -3.523  -1.934   0.027  0.00  0.00    -0.272 OA
ATOM      3  N   UNL     1      -2.816  -4.037   0.008  0.00  0.00    -0.206 N 
ATOM      4  H   UNL     1      -2.070  -4.656  -0.002  0.00  0.00    +0.177 HD
ENDROOT
BRANCH   3   5
ATOM      5  N   UNL     1      -4.130  -4.523   0.019  0.00  0.00    -0.188 NA
ATOM      6  C   UNL     1      -4.348  -5.803   0.014  0.00  0.00    +0.142 C 
BRANCH   6   7
ATOM      7  C   UNL     1      -5.730  -6.314   0.025  0.00  0.00    +0.038 A 
ATOM      8  C   UNL     1      -5.970  -7.691   0.026  0.00  0.00    +0.028 A 
ATOM      9  C   UNL     1      -7.266  -8.164   0.037  0.00  0.00    +0.020 A 
ATOM     10  C   UNL     1      -8.332  -7.279   0.047  0.00  0.00    +0.034 A 
ATOM     11  C   UNL     1      -8.107  -5.915   0.046  0.00  0.00    +0.061 A 
ATOM     12  C   UNL     1      -6.811  -5.423   0.041  0.00  0.00    +0.139 A 
ATOM     13 BR   UNL     1      -9.571  -4.717   0.060  0.00  0.00    -0.046 Br
ATOM     14 BR   UNL     1      -7.588 -10.027   0.037  0.00  0.00    -0.050 Br
BRANCH  12  15
ATOM     15  O   UNL     1      -6.590  -4.083   0.045  0.00  0.00    -0.505 OA
ATOM     16  H   UNL     1      -6.535  -3.690  -0.836  0.00  0.00    +0.292 HD
ENDBRANCH  12  15
ENDBRANCH   6   7
ENDBRANCH   3   5
BRANCH   1  17
ATOM     17  C   UNL     1      -1.176  -2.185   0.002  0.00  0.00    +0.199 C 
BRANCH  17  18
ATOM     18  N   UNL     1      -1.198  -0.720   0.010  0.00  0.00    -0.335 N 
ATOM     19  H   UNL     1      -2.045  -0.248   0.021  0.00  0.00    +0.147 HD
BRANCH  18  25
ATOM     20  C   UNL     1      -0.017   1.385   0.010  0.00  0.00    +0.024 A 
ATOM     21  C   UNL     1       1.171   2.090   0.002  0.00  0.00    +0.017 A 
ATOM     22  C   UNL     1       2.378   1.415  -0.013  0.00  0.00    +0.018 A 
ATOM     23  C   UNL     1       2.400   0.031  -0.021  0.00  0.00    +0.017 A 
ATOM     24  C   UNL     1       1.216  -0.679  -0.014  0.00  0.00    +0.024 A 
ATOM     25  C   UNL     1       0.002  -0.004   0.002  0.00  0.00    +0.028 A 
ATOM     26 BR   UNL     1       4.002   2.384  -0.025  0.00  0.00    -0.050 Br
ENDBRANCH  18  25
ENDBRANCH  17  18
ENDBRANCH   1  17
TORSDOF 6
