REMARK  Name = ZINC36575480
REMARK  8 active torsions:
REMARK  status: ('A' for Active; 'I' for Inactive)
REMARK    1  A    between atoms: C_1  and  C_2
REMARK    2  A    between atoms: C_2  and  C_3
REMARK    3  A    between atoms: C_2  and  C_4
REMARK    4  A    between atoms: C_4  and  C_6
REMARK    5  A    between atoms: C_4  and  N_10
REMARK    6  A    between atoms: C_6  and  O_8
REMARK    7  A    between atoms: O_8  and  C_9
REMARK    8  A    between atoms: C_22  and  C_24
REMARK                            x       y       z     vdW  Elec       q    Type
REMARK                         _______ _______ _______ _____ _____    ______ ____
ROOT
ATOM      1  N   UNL     1      -1.117  -1.879   2.786  0.00  0.00    -0.286 N 
ATOM      2  C   UNL     1      -1.870  -0.820   2.428  0.00  0.00    +0.304 C 
ATOM      3  O   UNL     1      -1.793  -0.373   1.299  0.00  0.00    -0.253 OA
ATOM      4  N   UNL     1      -2.708  -0.256   3.320  0.00  0.00    -0.273 N 
ATOM      5  C   UNL     1      -3.624   0.821   2.917  0.00  0.00    +0.116 C 
ATOM      6  C   UNL     1      -3.246   2.107   3.663  0.00  0.00    +0.074 C 
ATOM      7  C   UNL     1      -3.004   1.774   5.112  0.00  0.00    +0.040 A 
ATOM      8  C   UNL     1      -2.769   0.533   5.589  0.00  0.00    +0.062 A 
ATOM      9  N   UNL     1      -2.598   0.622   6.910  0.00  0.00    -0.348 N 
ATOM     10  C   UNL     1      -2.719   1.873   7.274  0.00  0.00    +0.171 A 
ATOM     11  N   UNL     1      -2.975   2.622   6.177  0.00  0.00    -0.349 N 
ATOM     12  H   UNL     1      -3.112   3.582   6.154  0.00  0.00    +0.166 HD
ATOM     13  C   UNL     1      -2.732  -0.708   4.723  0.00  0.00    +0.156 C 
ATOM     14  H   UNL     1      -1.121  -2.188   3.705  0.00  0.00    +0.151 HD
ATOM     15  H   UNL     1      -2.412  -0.121   7.505  0.00  0.00    +0.167 HD
ENDROOT
BRANCH  13  16
ATOM     16  C   UNL     1      -3.958  -1.548   4.970  0.00  0.00    -0.021 A 
ATOM     17  C   UNL     1      -5.216  -0.988   4.847  0.00  0.00    +0.007 A 
ATOM     18  C   UNL     1      -6.341  -1.758   5.073  0.00  0.00    +0.015 A 
ATOM     19  C   UNL     1      -6.208  -3.090   5.422  0.00  0.00    +0.018 A 
ATOM     20  C   UNL     1      -4.950  -3.650   5.545  0.00  0.00    +0.015 A 
ATOM     21  C   UNL     1      -3.825  -2.880   5.314  0.00  0.00    +0.007 A 
ATOM     22 BR   UNL     1      -7.747  -4.144   5.732  0.00  0.00    -0.050 Br
ENDBRANCH  13  16
BRANCH   1  23
ATOM     23  C   UNL     1      -0.293  -2.563   1.787  0.00  0.00    +0.186 C 
BRANCH  23  25
ATOM     24  C   UNL     1      -1.782  -4.550   2.065  0.00  0.00    +0.009 C 
ATOM     25  C   UNL     1      -1.141  -3.602   1.050  0.00  0.00    +0.014 C 
ATOM     26  C   UNL     1      -2.237  -2.892   0.253  0.00  0.00    +0.009 C 
ENDBRANCH  23  25
BRANCH  23  27
ATOM     27  C   UNL     1       0.860  -3.251   2.472  0.00  0.00    +0.328 C 
ATOM     28  O   UNL     1       0.980  -3.178   3.672  0.00  0.00    -0.249 OA
BRANCH  27  29
ATOM     29  O   UNL     1       1.752  -3.946   1.750  0.00  0.00    -0.467 OA
ATOM     30  C   UNL     1       2.819  -4.573   2.465  0.00  0.00    +0.280 C 
ENDBRANCH  27  29
ENDBRANCH  23  27
ENDBRANCH   1  23
TORSDOF 5
