REMARK  Name = ZINC22473195
REMARK  10 active torsions:
REMARK  status: ('A' for Active; 'I' for Inactive)
REMARK    1  A    between atoms: C_4  and  C_7
REMARK    2  A    between atoms: C_7  and  N_8
REMARK    3  A    between atoms: N_8  and  C_9
REMARK    4  A    between atoms: C_9  and  C_10
REMARK    5  A    between atoms: C_10  and  C_11
REMARK    6  A    between atoms: C_11  and  N_12
REMARK    7  A    between atoms: C_15  and  O_16
REMARK    8  A    between atoms: C_24  and  C_26
REMARK    9  A    between atoms: C_26  and  O_27
REMARK   10  A    between atoms: O_27  and  C_28
REMARK                            x       y       z     vdW  Elec       q    Type
REMARK                         _______ _______ _______ _____ _____    ______ ____
ROOT
ATOM      1  N   UNL     1      -0.128  -0.056  -0.018  0.00  0.00    -0.294 N 
ATOM      2  C   UNL     1      -0.107  -0.555  -1.269  0.00  0.00    +0.253 C 
ATOM      3  O   UNL     1      -0.201   0.191  -2.221  0.00  0.00    -0.272 OA
ENDROOT
BRANCH   1   4
ATOM      4  C   UNL     1       0.096  -0.942   1.128  0.00  0.00    +0.143 C 
BRANCH   4   8
ATOM      5  C   UNL     1      -3.667  -2.192   2.718  0.00  0.00    +0.000 A 
ATOM      6  C   UNL     1      -2.991  -3.001   1.824  0.00  0.00    +0.000 A 
ATOM      7  C   UNL     1      -1.774  -2.596   1.309  0.00  0.00    +0.005 A 
ATOM      8  C   UNL     1      -1.232  -1.383   1.689  0.00  0.00    -0.030 A 
ATOM      9  C   UNL     1      -1.904  -0.576   2.587  0.00  0.00    +0.005 A 
ATOM     10  C   UNL     1      -3.124  -0.978   3.098  0.00  0.00    +0.000 A 
ENDBRANCH   4   8
ENDBRANCH   1   4
BRANCH   1  11
ATOM     11  C   UNL     1      -0.374   1.372   0.198  0.00  0.00    +0.110 C 
BRANCH  11  12
ATOM     12  C   UNL     1       0.958   2.125   0.194  0.00  0.00    +0.040 C 
BRANCH  12  13
ATOM     13  C   UNL     1       0.701   3.616   0.419  0.00  0.00    +0.114 C 
BRANCH  13  14
ATOM     14  N   UNL     1       1.976   4.338   0.416  0.00  0.00    -0.384 N 
ATOM     15  C   UNL     1       1.996   5.702   0.601  0.00  0.00    +0.053 A 
ATOM     16  C   UNL     1       0.836   6.407   0.791  0.00  0.00    +0.113 A 
ATOM     17  C   UNL     1       0.888   7.794   0.977  0.00  0.00    +0.286 A 
ATOM     18  O   UNL     1       2.050   8.466   0.976  0.00  0.00    -0.425 OA
ATOM     19  C   UNL     1       3.233   7.840   0.795  0.00  0.00    +0.141 A 
ATOM     20  C   UNL     1       3.266   6.449   0.608  0.00  0.00    +0.041 A 
ATOM     21  C   UNL     1       4.486   5.796   0.427  0.00  0.00    +0.013 A 
ATOM     22  C   UNL     1       5.656   6.524   0.439  0.00  0.00    +0.001 A 
ATOM     23  C   UNL     1       5.624   7.897   0.630  0.00  0.00    +0.004 A 
ATOM     24  C   UNL     1       4.423   8.556   0.797  0.00  0.00    +0.047 A 
ATOM     25  H   UNL     1       2.918   3.789   0.265  0.00  0.00    +0.160 HD
BRANCH  17  26
ATOM     26  O   UNL     1      -0.151   8.408   1.145  0.00  0.00    -0.480 OA
ATOM     27  H   UNL     1      -0.128   9.498   1.293  0.00  0.00    +0.295 HD
ENDBRANCH  17  26
ENDBRANCH  13  14
ENDBRANCH  12  13
ENDBRANCH  11  12
ENDBRANCH   1  11
BRANCH   2  28
ATOM     28  C   UNL     1       0.032  -2.040  -1.487  0.00  0.00    +0.324 C 
BRANCH  28  29
ATOM     29  O   UNL     1      -0.070  -2.328  -2.883  0.00  0.00    -0.481 OA
BRANCH  29  30
ATOM     30  C   UNL     1       0.034  -3.632  -3.252  0.00  0.00    +0.140 A 
ATOM     31  C   UNL     1       0.231  -4.613  -2.292  0.00  0.00    +0.048 A 
ATOM     32  C   UNL     1       0.338  -5.938  -2.669  0.00  0.00    +0.023 A 
ATOM     33  C   UNL     1       0.248  -6.287  -4.005  0.00  0.00    +0.043 A 
ATOM     34  C   UNL     1       0.052  -5.311  -4.966  0.00  0.00    +0.043 A 
ATOM     35  C   UNL     1      -0.061  -3.985  -4.592  0.00  0.00    +0.084 A 
ATOM     36 CL   UNL     1      -0.315  -2.761  -5.796  0.00  0.00    -0.080 Cl
ATOM     37 CL   UNL     1       0.382  -7.952  -4.477  0.00  0.00    -0.083 Cl
ENDBRANCH  29  30
ENDBRANCH  28  29
ENDBRANCH   2  28
TORSDOF 10
