REMARK  Name = ZINC36158740
REMARK  11 active torsions:
REMARK  status: ('A' for Active; 'I' for Inactive)
REMARK    1  A    between atoms: C_2  and  C_3
REMARK    2  A    between atoms: C_3  and  N_4
REMARK    3  A    between atoms: N_4  and  C_5
REMARK    4  A    between atoms: N_4  and  C_21
REMARK    5  A    between atoms: C_5  and  C_6
REMARK    6  A    between atoms: C_21  and  C_22
REMARK    7  A    between atoms: C_22  and  C_24
REMARK    8  A    between atoms: C_22  and  O_33
REMARK    9  A    between atoms: C_24  and  O_25
REMARK   10  A    between atoms: O_25  and  C_26
REMARK   11  A    between atoms: C_26  and  C_27
REMARK                            x       y       z     vdW  Elec       q    Type
REMARK                         _______ _______ _______ _____ _____    ______ ____
ROOT
ATOM      1  N   UNL     1       1.592  -1.759   1.096  0.00  0.00    +0.388 N 
ATOM      2  H   UNL     1       1.509  -1.162   1.905  0.00  0.00    -0.081 HD
ENDROOT
BRANCH   1   3
ATOM      3  C   UNL     1       1.572  -0.939  -0.123  0.00  0.00    -0.051 C 
BRANCH   3   5
ATOM      4  C   UNL     1       0.458   1.229  -0.257  0.00  0.00    +0.002 C 
ATOM      5  C   UNL     1       0.342  -0.069  -0.122  0.00  0.00    -0.053 C 
ENDBRANCH   3   5
ENDBRANCH   1   3
BRANCH   1   6
ATOM      6  C   UNL     1       0.468  -2.705   1.068  0.00  0.00    -0.003 C 
BRANCH   6   7
ATOM      7  C   UNL     1       0.392  -3.433   2.386  0.00  0.00    +0.094 A 
ATOM      8  N   UNL     1      -0.501  -4.444   2.538  0.00  0.00    -0.312 N 
ATOM      9  H   UNL     1      -1.079  -4.684   1.796  0.00  0.00    +0.170 HD
ATOM     10  C   UNL     1      -0.602  -5.121   3.697  0.00  0.00    +0.260 A 
ATOM     11  O   UNL     1      -1.409  -6.027   3.818  0.00  0.00    -0.267 OA
ATOM     12  C   UNL     1       0.255  -4.759   4.787  0.00  0.00    +0.075 A 
ATOM     13  C   UNL     1       0.322  -5.346   6.125  0.00  0.00    -0.023 A 
ATOM     14  C   UNL     1       1.225  -4.822   6.980  0.00  0.00    -0.004 A 
ATOM     15  S   UNL     1       2.028  -3.533   6.066  0.00  0.00    -0.073 S 
ATOM     16  C   UNL     1       1.145  -3.703   4.535  0.00  0.00    +0.116 A 
ATOM     17  N   UNL     1       1.190  -3.084   3.359  0.00  0.00    -0.229 NA
ATOM     18  C   UNL     1       1.486  -5.241   8.394  0.00  0.00    +0.043 C 
ATOM     19  C   UNL     1       0.317  -6.119   8.863  0.00  0.00    +0.005 C 
ATOM     20  C   UNL     1       0.030  -7.170   7.787  0.00  0.00    +0.005 C 
ATOM     21  C   UNL     1      -0.580  -6.500   6.555  0.00  0.00    +0.037 C 
ENDBRANCH   6   7
ENDBRANCH   1   6
BRANCH   1  22
ATOM     22  C   UNL     1       2.857  -2.504   1.164  0.00  0.00    -0.044 C 
BRANCH  22  23
ATOM     23  C   UNL     1       4.019  -1.521   1.318  0.00  0.00    +0.124 C 
BRANCH  23  24
ATOM     24  O   UNL     1       3.909  -0.846   2.573  0.00  0.00    -0.391 OA
ATOM     25  H   UNL     1       3.930  -1.435   3.340  0.00  0.00    +0.210 HD
ENDBRANCH  23  24
BRANCH  23  26
ATOM     26  C   UNL     1       5.343  -2.285   1.264  0.00  0.00    +0.189 C 
BRANCH  26  27
ATOM     27  O   UNL     1       6.430  -1.358   1.291  0.00  0.00    -0.373 OA
BRANCH  27  28
ATOM     28  C   UNL     1       7.720  -1.972   1.245  0.00  0.00    +0.195 C 
BRANCH  28  29
ATOM     29  C   UNL     1       8.785  -0.907   1.278  0.00  0.00    -0.022 A 
ATOM     30  C   UNL     1       9.252  -0.359   0.098  0.00  0.00    +0.006 A 
ATOM     31  C   UNL     1      10.230   0.618   0.129  0.00  0.00    +0.000 A 
ATOM     32  C   UNL     1      10.739   1.048   1.339  0.00  0.00    +0.000 A 
ATOM     33  C   UNL     1      10.271   0.502   2.520  0.00  0.00    +0.000 A 
ATOM     34  C   UNL     1       9.291  -0.473   2.489  0.00  0.00    +0.006 A 
ENDBRANCH  28  29
ENDBRANCH  27  28
ENDBRANCH  26  27
ENDBRANCH  23  26
ENDBRANCH  22  23
ENDBRANCH   1  22
TORSDOF 11
