REMARK  Name = ZINC15675845
REMARK  6 active torsions:
REMARK  status: ('A' for Active; 'I' for Inactive)
REMARK    1  A    between atoms: C_3  and  C_37
REMARK    2  A    between atoms: C_5  and  N_7
REMARK    3  A    between atoms: C_19  and  C_21
REMARK    4  A    between atoms: C_23  and  C_26
REMARK    5  A    between atoms: C_29  and  O_32
REMARK    6  A    between atoms: O_32  and  C_33
REMARK                            x       y       z     vdW  Elec       q    Type
REMARK                         _______ _______ _______ _____ _____    ______ ____
ROOT
ATOM      1  N   UNL     1       1.225  -2.087  -0.022  0.00  0.00    -0.269 N 
ATOM      2  C   UNL     1       0.070  -2.772   0.088  0.00  0.00    +0.307 C 
ATOM      3  O   UNL     1      -0.991  -2.178   0.103  0.00  0.00    -0.252 OA
ATOM      4  N   UNL     1       0.090  -4.117   0.182  0.00  0.00    -0.267 N 
ATOM      5  C   UNL     1       1.366  -4.847   0.284  0.00  0.00    +0.165 C 
ATOM      6  C   UNL     1       1.280  -6.033  -0.647  0.00  0.00    +0.054 A 
ATOM      7  C   UNL     1       0.136  -6.441  -1.237  0.00  0.00    +0.040 A 
ATOM      8  N   UNL     1       0.446  -7.531  -1.993  0.00  0.00    -0.349 N 
ATOM      9  H   UNL     1      -0.169  -8.050  -2.535  0.00  0.00    +0.166 HD
ATOM     10  C   UNL     1       1.772  -7.753  -1.845  0.00  0.00    +0.171 A 
ATOM     11  N   UNL     1       2.262  -6.849  -1.037  0.00  0.00    -0.348 N 
ATOM     12  C   UNL     1      -1.206  -5.778  -1.064  0.00  0.00    +0.087 C 
ATOM     13  C   UNL     1      -1.161  -4.890   0.192  0.00  0.00    +0.172 C 
ATOM     14  H   UNL     1       2.058  -2.562  -0.173  0.00  0.00    +0.156 HD
ATOM     15  H   UNL     1       3.190  -6.782  -0.764  0.00  0.00    +0.166 HD
ENDROOT
BRANCH   1  20
ATOM     16  C   UNL     1       0.106   1.413  -0.235  0.00  0.00    +0.003 A 
ATOM     17  C   UNL     1       1.202   2.079   0.276  0.00  0.00    +0.019 A 
ATOM     18  C   UNL     1       2.322   1.359   0.696  0.00  0.00    +0.054 A 
ATOM     19  C   UNL     1       2.329  -0.033   0.596  0.00  0.00    +0.042 A 
ATOM     20  C   UNL     1       1.224  -0.691   0.080  0.00  0.00    +0.036 A 
ATOM     21  C   UNL     1       0.114   0.035  -0.335  0.00  0.00    +0.023 A 
BRANCH  18  22
ATOM     22  C   UNL     1       3.461   2.046   1.227  0.00  0.00    +0.099 C 
ATOM     23  N   UNL     1       4.364   2.591   1.649  0.00  0.00    -0.191 NA
ENDBRANCH  18  22
ENDBRANCH   1  20
BRANCH  13  24
ATOM     24  C   UNL     1      -1.210  -5.754   1.426  0.00  0.00    +0.249 A 
ATOM     25  N   UNL     1      -2.240  -5.907   2.208  0.00  0.00    -0.190 NA
ATOM     26  C   UNL     1      -1.935  -6.747   3.213  0.00  0.00    +0.202 A 
ATOM     27  N   UNL     1      -0.692  -7.136   3.071  0.00  0.00    -0.056 NA
ATOM     28  O   UNL     1      -0.202  -6.498   1.901  0.00  0.00    -0.336 OA
BRANCH  26  29
ATOM     29  C   UNL     1      -2.854  -7.163   4.301  0.00  0.00    +0.023 A 
ATOM     30  C   UNL     1      -4.160  -6.679   4.336  0.00  0.00    +0.015 A 
ATOM     31  C   UNL     1      -5.011  -7.068   5.349  0.00  0.00    +0.046 A 
ATOM     32  C   UNL     1      -4.568  -7.941   6.333  0.00  0.00    +0.130 A 
ATOM     33  C   UNL     1      -3.267  -8.425   6.302  0.00  0.00    +0.046 A 
ATOM     34  C   UNL     1      -2.413  -8.044   5.288  0.00  0.00    +0.015 A 
BRANCH  32  35
ATOM     35  O   UNL     1      -5.409  -8.323   7.330  0.00  0.00    -0.406 OA
BRANCH  35  36
ATOM     36  C   UNL     1      -4.887  -9.223   8.310  0.00  0.00    +0.575 C 
ATOM     37  F   UNL     1      -3.791  -8.633   8.948  0.00  0.00    -0.133 F 
ATOM     38  F   UNL     1      -5.878  -9.509   9.255  0.00  0.00    -0.133 F 
ATOM     39  F   UNL     1      -4.481 -10.407   7.686  0.00  0.00    -0.133 F 
ENDBRANCH  35  36
ENDBRANCH  32  35
ENDBRANCH  26  29
ENDBRANCH  13  24
TORSDOF 6
