REMARK  Name = ZINC64580475
REMARK  8 active torsions:
REMARK  status: ('A' for Active; 'I' for Inactive)
REMARK    1  A    between atoms: C_1  and  C_2
REMARK    2  A    between atoms: C_2  and  C_3
REMARK    3  A    between atoms: C_6  and  C_21
REMARK    4  A    between atoms: C_8  and  S_9
REMARK    5  A    between atoms: S_9  and  N_12
REMARK    6  A    between atoms: N_12  and  C_13
REMARK    7  A    between atoms: C_16  and  O_19
REMARK    8  A    between atoms: O_19  and  C_20
REMARK                            x       y       z     vdW  Elec       q    Type
REMARK                         _______ _______ _______ _____ _____    ______ ____
ROOT
ATOM      1  C   UNL     1       0.921  -0.799   1.556  0.00  0.00    -0.021 A 
ATOM      2  C   UNL     1       2.248  -0.823   1.944  0.00  0.00    +0.006 A 
ATOM      3  C   UNL     1       2.624  -1.504   3.084  0.00  0.00    +0.010 A 
ATOM      4  C   UNL     1       1.663  -2.170   3.843  0.00  0.00    +0.004 A 
ATOM      5  C   UNL     1       0.328  -2.142   3.447  0.00  0.00    +0.039 A 
ATOM      6  C   UNL     1      -0.038  -1.452   2.309  0.00  0.00    +0.112 A 
ENDROOT
BRANCH   4   7
ATOM      7  C   UNL     1       2.061  -2.905   5.069  0.00  0.00    +0.095 A 
ATOM      8  C   UNL     1       2.994  -2.326   5.968  0.00  0.00    -0.011 A 
ATOM      9  C   UNL     1       3.574  -0.978   5.643  0.00  0.00    +0.038 C 
ATOM     10  C   UNL     1       4.194  -0.347   6.889  0.00  0.00    +0.005 C 
ATOM     11  C   UNL     1       5.136  -1.372   7.534  0.00  0.00    +0.005 C 
ATOM     12  C   UNL     1       4.293  -2.508   8.111  0.00  0.00    +0.041 C 
ATOM     13  C   UNL     1       3.328  -3.022   7.080  0.00  0.00    +0.024 A 
ATOM     14  H   UNL     1       1.456  -5.633   6.500  0.00  0.00    +0.192 HD
ATOM     15  C   UNL     1       2.732  -4.293   7.273  0.00  0.00    +0.268 A 
ATOM     16  O   UNL     1       3.008  -4.957   8.258  0.00  0.00    -0.266 OA
ATOM     17  N   UNL     1       1.860  -4.762   6.362  0.00  0.00    -0.242 N 
ATOM     18  N   UNL     1       1.545  -4.084   5.319  0.00  0.00    -0.171 NA
ENDBRANCH   4   7
BRANCH   6  19
ATOM     19  S   UNL     1      -1.727  -1.411   1.810  0.00  0.00    +0.073 S 
ATOM     20  O   UNL     1      -2.442  -2.228   2.727  0.00  0.00    -0.150 OA
ATOM     21  O   UNL     1      -2.053  -0.045   1.592  0.00  0.00    -0.150 OA
BRANCH  19  22
ATOM     22  N   UNL     1      -1.821  -2.160   0.336  0.00  0.00    -0.216 N 
ATOM     23  H   UNL     1      -2.100  -1.659  -0.446  0.00  0.00    +0.174 HD
BRANCH  22  24
ATOM     24  C   UNL     1      -1.497  -3.517   0.219  0.00  0.00    +0.048 A 
ATOM     25  C   UNL     1      -0.350  -4.012   0.824  0.00  0.00    +0.028 A 
ATOM     26  C   UNL     1      -0.032  -5.351   0.708  0.00  0.00    +0.047 A 
ATOM     27  C   UNL     1      -0.858  -6.201  -0.013  0.00  0.00    +0.120 A 
ATOM     28  C   UNL     1      -2.004  -5.707  -0.618  0.00  0.00    +0.047 A 
ATOM     29  C   UNL     1      -2.327  -4.369  -0.498  0.00  0.00    +0.028 A 
BRANCH  27  30
ATOM     30  O   UNL     1      -0.544  -7.519  -0.126  0.00  0.00    -0.495 OA
ATOM     31  C   UNL     1      -1.440  -8.337  -0.882  0.00  0.00    +0.277 C 
ENDBRANCH  27  30
ENDBRANCH  22  24
ENDBRANCH  19  22
ENDBRANCH   6  19
BRANCH   1  33
ATOM     32  C   UNL     1       0.305   1.425   0.648  0.00  0.00    +0.009 C 
ATOM     33  C   UNL     1       0.516  -0.052   0.311  0.00  0.00    +0.034 C 
ENDBRANCH   1  33
TORSDOF 6
