REMARK  Name = ZINC12617025
REMARK  10 active torsions:
REMARK  status: ('A' for Active; 'I' for Inactive)
REMARK    1  A    between atoms: C_1  and  C_2
REMARK    2  A    between atoms: C_2  and  C_3
REMARK    3  A    between atoms: C_3  and  C_4
REMARK    4  A    between atoms: C_3  and  C_5
REMARK    5  A    between atoms: C_3  and  C_6
REMARK    6  A    between atoms: C_13  and  N_17
REMARK    7  A    between atoms: C_14  and  C_15
REMARK    8  A    between atoms: C_18  and  C_20
REMARK    9  A    between atoms: C_20  and  N_21
REMARK   10  A    between atoms: C_27  and  C_30
REMARK                            x       y       z     vdW  Elec       q    Type
REMARK                         _______ _______ _______ _____ _____    ______ ____
ROOT
ATOM      1  N   UNL     1      -2.756   3.149   1.700  0.00  0.00    -0.278 N 
ATOM      2  C   UNL     1      -1.651   2.421   1.444  0.00  0.00    +0.236 C 
ATOM      3  O   UNL     1      -0.989   1.982   2.360  0.00  0.00    -0.274 OA
ATOM      4  H   UNL     1      -3.286   3.500   0.967  0.00  0.00    +0.155 HD
ENDROOT
BRANCH   1  11
ATOM      5  C   UNL     1      -4.322   4.624   7.721  0.00  0.00    -0.000 C 
ATOM      6  C   UNL     1      -5.679   4.518   7.018  0.00  0.00    +0.009 C 
ATOM      7  C   UNL     1      -5.551   4.984   5.567  0.00  0.00    +0.037 C 
ATOM      8  C   UNL     1      -4.403   4.229   4.909  0.00  0.00    -0.018 A 
ATOM      9  C   UNL     1      -3.462   3.607   5.653  0.00  0.00    -0.004 A 
ATOM     10  S   UNL     1      -2.364   2.875   4.473  0.00  0.00    -0.077 S 
ATOM     11  C   UNL     1      -3.136   3.397   3.012  0.00  0.00    +0.090 A 
ATOM     12  C   UNL     1      -4.229   4.117   3.471  0.00  0.00    +0.084 A 
ATOM     13  C   UNL     1      -3.383   3.552   7.147  0.00  0.00    +0.047 C 
BRANCH   5  14
ATOM     14  C   UNL     1      -4.503   4.396   9.223  0.00  0.00    -0.032 C 
ATOM     15  C   UNL     1      -5.452   5.454   9.788  0.00  0.00    +0.011 C 
ATOM     16  C   UNL     1      -5.091   3.004   9.460  0.00  0.00    +0.011 C 
BRANCH  14  18
ATOM     17  C   UNL     1      -3.327   4.275  11.424  0.00  0.00    +0.004 C 
ATOM     18  C   UNL     1      -3.146   4.503   9.922  0.00  0.00    +0.003 C 
ENDBRANCH  14  18
ENDBRANCH   5  14
BRANCH  12  19
ATOM     19  C   UNL     1      -5.151   4.727   2.561  0.00  0.00    +0.102 C 
ATOM     20  N   UNL     1      -5.883   5.211   1.840  0.00  0.00    -0.191 NA
ENDBRANCH  12  19
ENDBRANCH   1  11
BRANCH   2  21
ATOM     21  C   UNL     1      -1.239   2.152   0.020  0.00  0.00    +0.214 C 
BRANCH  21  22
ATOM     22  N   UNL     1      -0.016   1.345   0.009  0.00  0.00    -0.215 N 
ATOM     23  C   UNL     1       0.002  -0.004   0.002  0.00  0.00    +0.247 C 
ATOM     24  O   UNL     1      -0.953  -0.751   0.008  0.00  0.00    -0.273 OA
ATOM     25  C   UNL     1       1.464  -0.388  -0.014  0.00  0.00    +0.113 C 
ATOM     26  C   UNL     1       1.792  -1.178  -1.276  0.00  0.00    +0.035 C 
ATOM     27  C   UNL     1       3.281  -1.532  -1.287  0.00  0.00    +0.006 C 
ATOM     28  C   UNL     1       3.616  -2.361  -0.045  0.00  0.00    -0.014 C 
ATOM     29  C   UNL     1       3.305  -1.546   1.212  0.00  0.00    +0.006 C 
ATOM     30  C   UNL     1       1.816  -1.192   1.233  0.00  0.00    +0.035 C 
ATOM     31  C   UNL     1       5.102  -2.726  -0.061  0.00  0.00    +0.007 C 
ATOM     32  N   UNL     1       2.171   0.899  -0.014  0.00  0.00    -0.285 N 
ATOM     33  C   UNL     1       1.222   1.855   0.000  0.00  0.00    +0.310 C 
ATOM     34  O   UNL     1       1.462   3.046   0.004  0.00  0.00    -0.252 OA
ATOM     35  H   UNL     1       3.131   1.035  -0.023  0.00  0.00    +0.151 HD
ENDBRANCH  21  22
ENDBRANCH   2  21
TORSDOF 6
