REMARK  Name = ZINC24957924
REMARK  10 active torsions:
REMARK  status: ('A' for Active; 'I' for Inactive)
REMARK    1  A    between atoms: C_1  and  C_2
REMARK    2  A    between atoms: C_2  and  C_3
REMARK    3  A    between atoms: C_3  and  C_4
REMARK    4  A    between atoms: C_4  and  C_5
REMARK    5  A    between atoms: C_5  and  C_7
REMARK    6  A    between atoms: C_5  and  N_24
REMARK    7  A    between atoms: N_9  and  C_10
REMARK    8  A    between atoms: C_10  and  C_11
REMARK    9  A    between atoms: C_16  and  C_17
REMARK   10  A    between atoms: C_17  and  N_18
REMARK                            x       y       z     vdW  Elec       q    Type
REMARK                         _______ _______ _______ _____ _____    ______ ____
ROOT
ATOM      1  C   UNL     1      -2.248   0.049  -1.203  0.00  0.00    +0.234 C 
ATOM      2  O   UNL     1      -2.067  -0.889  -1.951  0.00  0.00    -0.274 OA
ATOM      3  N   UNL     1      -3.481   0.578  -1.073  0.00  0.00    -0.310 N 
ATOM      4  H   UNL     1      -3.646   1.429  -0.395  0.00  0.00    +0.149 HD
ENDROOT
BRANCH   1   5
ATOM      5  C   UNL     1      -1.096   0.622  -0.420  0.00  0.00    +0.158 C 
BRANCH   5   6
ATOM      6  N   UNL     1       0.127  -0.122  -0.734  0.00  0.00    -0.316 N 
ATOM      7  C   UNL     1       1.357   0.481  -0.587  0.00  0.00    +0.150 C 
ATOM      8  N   UNL     1       1.442   1.702  -0.165  0.00  0.00    -0.113 NA
ATOM      9  S   UNL     1       3.076   2.059  -0.123  0.00  0.00    +0.101 S 
ATOM     10  O   UNL     1       3.331   3.037  -1.122  0.00  0.00    -0.146 OA
ATOM     11  O   UNL     1       3.451   2.215   1.239  0.00  0.00    -0.146 OA
ATOM     12  C   UNL     1       3.738   0.518  -0.694  0.00  0.00    +0.123 A 
ATOM     13  C   UNL     1       2.589  -0.258  -0.900  0.00  0.00    +0.043 A 
ATOM     14  C   UNL     1       2.771  -1.567  -1.373  0.00  0.00    +0.013 A 
ATOM     15  C   UNL     1       4.039  -2.052  -1.606  0.00  0.00    +0.001 A 
ATOM     16  C   UNL     1       5.154  -1.264  -1.388  0.00  0.00    +0.002 A 
ATOM     17  C   UNL     1       4.993   0.036  -0.926  0.00  0.00    +0.030 A 
ATOM     18  H   UNL     1       0.062  -1.161  -1.088  0.00  0.00    +0.148 HD
ENDBRANCH   5   6
BRANCH   5  19
ATOM     19  C   UNL     1      -1.391   0.509   1.077  0.00  0.00    +0.032 C 
BRANCH  19  20
ATOM     20  C   UNL     1      -0.280   1.202   1.869  0.00  0.00    +0.002 C 
BRANCH  20  22
ATOM     21  C   UNL     1       0.536   1.782   4.159  0.00  0.00    +0.004 C 
ATOM     22  C   UNL     1      -0.575   1.089   3.367  0.00  0.00    -0.003 C 
ENDBRANCH  20  22
ENDBRANCH  19  20
ENDBRANCH   5  19
ENDBRANCH   1   5
BRANCH   3  23
ATOM     23  C   UNL     1      -4.601   0.021  -1.835  0.00  0.00    +0.139 C 
BRANCH  23  24
ATOM     24  C   UNL     1      -5.859   0.786  -1.512  0.00  0.00    -0.029 A 
ATOM     25  C   UNL     1      -6.753   0.287  -0.583  0.00  0.00    +0.005 A 
ATOM     26  C   UNL     1      -7.903   0.991  -0.282  0.00  0.00    +0.000 A 
ATOM     27  C   UNL     1      -8.166   2.190  -0.919  0.00  0.00    +0.000 A 
ATOM     28  C   UNL     1      -7.275   2.687  -1.851  0.00  0.00    +0.002 A 
ATOM     29  C   UNL     1      -6.121   1.985  -2.148  0.00  0.00    -0.059 A 
BRANCH  29  30
ATOM     30  C   UNL     1      -5.150   2.527  -3.165  0.00  0.00    -0.043 C 
BRANCH  30  31
ATOM     31  N   UNL     1      -4.030   3.179  -2.474  0.00  0.00    +0.382 N 
ATOM     32  C   UNL     1      -4.470   4.408  -1.802  0.00  0.00    -0.078 C 
ATOM     33  C   UNL     1      -3.316   4.981  -0.976  0.00  0.00    -0.019 C 
ATOM     34  C   UNL     1      -2.131   5.277  -1.899  0.00  0.00    -0.004 C 
ATOM     35  C   UNL     1      -1.724   3.990  -2.622  0.00  0.00    -0.019 C 
ATOM     36  C   UNL     1      -2.924   3.447  -3.401  0.00  0.00    -0.078 C 
ATOM     37  H   UNL     1      -3.659   2.489  -1.701  0.00  0.00    -0.081 HD
ENDBRANCH  30  31
ENDBRANCH  29  30
ENDBRANCH  23  24
ENDBRANCH   3  23
TORSDOF 9
