REMARK  Name = ZINC63514155
REMARK  7 active torsions:
REMARK  status: ('A' for Active; 'I' for Inactive)
REMARK    1  A    between atoms: C_1  and  C_2
REMARK    2  A    between atoms: C_4  and  C_13
REMARK    3  A    between atoms: C_13  and  C_14
REMARK    4  A    between atoms: C_14  and  N_15
REMARK    5  A    between atoms: N_15  and  S_16
REMARK    6  A    between atoms: S_16  and  C_19
REMARK    7  A    between atoms: C_21  and  N_26
REMARK                            x       y       z     vdW  Elec       q    Type
REMARK                         _______ _______ _______ _____ _____    ______ ____
ROOT
ATOM      1  N   UNL     1       0.968  -0.228  -5.230  0.00  0.00    -0.190 NA
ATOM      2  H   UNL     1       1.135   0.558  -5.773  0.00  0.00    +0.148 HD
ENDROOT
BRANCH   1   3
ATOM      3  S   UNL     1       0.190  -1.536  -5.883  0.00  0.00    +0.060 S 
ATOM      4  O   UNL     1      -0.077  -1.214  -7.241  0.00  0.00    -0.153 OA
ATOM      5  O   UNL     1       0.937  -2.684  -5.505  0.00  0.00    -0.153 OA
BRANCH   3   6
ATOM      6  C   UNL     1      -1.373  -1.666  -5.080  0.00  0.00    +0.126 A 
ATOM      7  C   UNL     1      -2.525  -1.284  -5.742  0.00  0.00    +0.062 A 
ATOM      8  C   UNL     1      -3.751  -1.385  -5.113  0.00  0.00    +0.128 A 
ATOM      9  C   UNL     1      -3.827  -1.869  -3.820  0.00  0.00    +0.034 A 
ATOM     10  C   UNL     1      -2.676  -2.252  -3.156  0.00  0.00    +0.024 A 
ATOM     11  C   UNL     1      -1.449  -2.156  -3.788  0.00  0.00    +0.067 A 
ATOM     12 CL   UNL     1      -0.004  -2.643  -2.959  0.00  0.00    -0.082 Cl
BRANCH   8  13
ATOM     13  N   UNL     1      -4.983  -0.975  -5.823  0.00  0.00    +0.056 N 
ATOM     14  O   UNL     1      -4.917  -0.551  -6.953  0.00  0.00    -0.126 OA
ATOM     15  O   UNL     1      -6.056  -1.064  -5.272  0.00  0.00    -0.126 OA
ENDBRANCH   8  13
ENDBRANCH   3   6
ENDBRANCH   1   3
BRANCH   1  16
ATOM     16  C   UNL     1       1.406  -0.259  -3.832  0.00  0.00    +0.110 C 
BRANCH  16  17
ATOM     17  C   UNL     1       0.346   0.405  -2.951  0.00  0.00    +0.050 C 
BRANCH  17  20
ATOM     18  C   UNL     1       0.001   2.666  -0.654  0.00  0.00    +0.035 C 
ATOM     19  C   UNL     1       0.174   1.173  -0.366  0.00  0.00    +0.103 C 
ATOM     20  C   UNL     1       0.853   0.493  -1.535  0.00  0.00    -0.037 C 
ATOM     21  C   UNL     1       2.007  -0.021  -1.051  0.00  0.00    +0.000 A 
ATOM     22  C   UNL     1       3.093  -0.785  -1.674  0.00  0.00    +0.025 A 
ATOM     23  C   UNL     1       4.144  -1.171  -0.915  0.00  0.00    +0.019 A 
ATOM     24  C   UNL     1       4.222  -0.858   0.450  0.00  0.00    +0.017 A 
ATOM     25  C   UNL     1       3.263  -0.159   1.093  0.00  0.00    +0.027 A 
ATOM     26  C   UNL     1       2.112   0.296   0.392  0.00  0.00    +0.043 A 
ATOM     27  N   UNL     1       1.063   0.979   0.785  0.00  0.00    -0.378 N 
ATOM     28 BR   UNL     1       5.546  -2.157  -1.714  0.00  0.00    -0.050 Br
ATOM     29  H   UNL     1       0.901   1.303   1.685  0.00  0.00    +0.160 HD
ENDBRANCH  17  20
ENDBRANCH  16  17
ENDBRANCH   1  16
TORSDOF 6
