REMARK  Name = ZINC14988766
REMARK  10 active torsions:
REMARK  status: ('A' for Active; 'I' for Inactive)
REMARK    1  A    between atoms: C_1  and  C_2
REMARK    2  A    between atoms: C_2  and  C_3
REMARK    3  A    between atoms: C_2  and  C_4
REMARK    4  A    between atoms: C_4  and  C_5
REMARK    5  A    between atoms: C_5  and  C_19
REMARK    6  A    between atoms: N_8  and  C_12
REMARK    7  A    between atoms: C_12  and  C_13
REMARK    8  A    between atoms: C_13  and  C_14
REMARK    9  A    between atoms: C_24  and  C_25
REMARK   10  A    between atoms: C_24  and  N_64
REMARK                            x       y       z     vdW  Elec       q    Type
REMARK                         _______ _______ _______ _____ _____    ______ ____
ROOT
ATOM      1  C   UNL     1      -6.272  -1.121   1.448  0.00  0.00    +0.115 C 
ATOM      2  C   UNL     1      -4.761  -1.042   1.361  0.00  0.00    +0.247 C 
ATOM      3  O   UNL     1      -3.989  -1.960   1.185  0.00  0.00    -0.273 OA
ATOM      4  N   UNL     1      -4.454   0.260   1.521  0.00  0.00    -0.224 N 
ATOM      5  C   UNL     1      -5.550   1.007   1.700  0.00  0.00    +0.309 C 
ATOM      6  O   UNL     1      -5.527   2.210   1.870  0.00  0.00    -0.252 OA
ATOM      7  N   UNL     1      -6.680   0.277   1.668  0.00  0.00    -0.285 N 
ATOM      8  H   UNL     1      -7.586   0.607   1.772  0.00  0.00    +0.151 HD
ENDROOT
BRANCH   1   9
ATOM      9  C   UNL     1      -6.698  -1.998   2.628  0.00  0.00    +0.018 C 
ATOM     10  C   UNL     1      -8.227  -2.040   2.708  0.00  0.00    -0.013 C 
ATOM     11  C   UNL     1      -8.646  -2.867   3.925  0.00  0.00    -0.078 C 
ATOM     12  C   UNL     1      -6.623  -2.257   5.110  0.00  0.00    -0.078 C 
ATOM     13  C   UNL     1      -6.143  -1.411   3.929  0.00  0.00    -0.013 C 
ATOM     14  N   UNL     1      -8.101  -2.236   5.146  0.00  0.00    +0.382 N 
ATOM     15  H   UNL     1      -8.419  -1.261   5.188  0.00  0.00    -0.081 HD
BRANCH  14  16
ATOM     16  C   UNL     1      -8.586  -2.952   6.344  0.00  0.00    -0.043 C 
BRANCH  16  17
ATOM     17  C   UNL     1     -10.071  -2.730   6.473  0.00  0.00    -0.064 A 
ATOM     18  C   UNL     1     -10.549  -1.646   7.185  0.00  0.00    +0.002 A 
ATOM     19  C   UNL     1     -11.911  -1.440   7.299  0.00  0.00    +0.000 A 
ATOM     20  C   UNL     1     -12.796  -2.324   6.710  0.00  0.00    +0.000 A 
ATOM     21  C   UNL     1     -12.318  -3.411   6.002  0.00  0.00    +0.000 A 
ATOM     22  C   UNL     1     -10.956  -3.614   5.883  0.00  0.00    +0.002 A 
ENDBRANCH  16  17
ENDBRANCH  14  16
ENDBRANCH   1   9
BRANCH   1  23
ATOM     23  C   UNL     1      -6.859  -1.658   0.141  0.00  0.00    +0.038 C 
BRANCH  23  25
ATOM     24  C   UNL     1      -6.803  -1.434  -2.346  0.00  0.00    +0.007 C 
ATOM     25  C   UNL     1      -6.394  -0.782  -1.024  0.00  0.00    -0.015 C 
ATOM     26  C   UNL     1      -7.043   0.599  -0.914  0.00  0.00    +0.007 C 
ENDBRANCH  23  25
ENDBRANCH   1  23
BRANCH   4  27
ATOM     27  C   UNL     1      -3.089   0.792   1.507  0.00  0.00    +0.123 C 
BRANCH  27  28
ATOM     28  C   UNL     1      -2.706   1.174   0.076  0.00  0.00    +0.062 C 
BRANCH  28  29
ATOM     29  C   UNL     1      -1.302   1.721   0.061  0.00  0.00    -0.009 A 
ATOM     30  C   UNL     1      -0.130   1.061  -0.105  0.00  0.00    +0.011 A 
ATOM     31  C   UNL     1       1.052   1.778  -0.089  0.00  0.00    +0.008 A 
ATOM     32  C   UNL     1       1.004   3.119   0.099  0.00  0.00    +0.045 A 
ATOM     33  S   UNL     1      -0.750   3.407   0.260  0.00  0.00    -0.102 S 
ENDBRANCH  28  29
ENDBRANCH  27  28
ENDBRANCH   4  27
TORSDOF 8
