REMARK  Name = ZINC34660024
REMARK  7 active torsions:
REMARK  status: ('A' for Active; 'I' for Inactive)
REMARK    1  A    between atoms: C_1  and  C_2
REMARK    2  A    between atoms: C_2  and  C_4
REMARK    3  A    between atoms: C_2  and  O_10
REMARK    4  A    between atoms: O_10  and  C_11
REMARK    5  A    between atoms: C_16  and  C_17
REMARK    6  A    between atoms: C_17  and  N_18
REMARK    7  A    between atoms: N_18  and  C_19
REMARK                            x       y       z     vdW  Elec       q    Type
REMARK                         _______ _______ _______ _____ _____    ______ ____
ROOT
ATOM      1  C   UNL     1       2.014  -0.764   1.015  0.00  0.00    +0.123 A 
ATOM      2  C   UNL     1       2.657  -0.490  -0.183  0.00  0.00    +0.047 A 
ATOM      3  C   UNL     1       3.999  -0.782  -0.328  0.00  0.00    +0.019 A 
ATOM      4  C   UNL     1       4.703  -1.347   0.721  0.00  0.00    +0.018 A 
ATOM      5  C   UNL     1       4.063  -1.621   1.917  0.00  0.00    +0.020 A 
ATOM      6  C   UNL     1       2.722  -1.325   2.068  0.00  0.00    -0.022 A 
ATOM      7 BR   UNL     1       6.540  -1.745   0.520  0.00  0.00    -0.050 Br
ENDROOT
BRANCH   1   8
ATOM      8  O   UNL     1       0.693  -0.477   1.160  0.00  0.00    -0.480 OA
BRANCH   8  10
ATOM      9  C   UNL     1       0.195   1.505  -0.130  0.00  0.00    +0.062 C 
ATOM     10  C   UNL     1       0.001  -0.007   0.002  0.00  0.00    +0.256 C 
BRANCH  10  11
ATOM     11  C   UNL     1      -1.468  -0.315   0.135  0.00  0.00    +0.261 C 
ATOM     12  O   UNL     1      -1.895  -0.799   1.161  0.00  0.00    -0.271 OA
ATOM     13  N   UNL     1      -2.307  -0.052  -0.887  0.00  0.00    -0.237 N 
ATOM     14  C   UNL     1      -3.621  -0.328  -0.768  0.00  0.00    +0.303 C 
ATOM     15  O   UNL     1      -4.049  -0.813   0.261  0.00  0.00    -0.253 OA
ATOM     16  N   UNL     1      -4.460  -0.065  -1.789  0.00  0.00    -0.313 N 
ATOM     17  H   UNL     1      -1.965   0.335  -1.708  0.00  0.00    +0.159 HD
ATOM     18  H   UNL     1      -4.118   0.322  -2.610  0.00  0.00    +0.146 HD
ATOM     19  H   UNL     1      -5.406  -0.264  -1.703  0.00  0.00    +0.146 HD
ENDBRANCH  10  11
ENDBRANCH   8  10
ENDBRANCH   1   8
BRANCH   6  20
ATOM     20  C   UNL     1       2.028  -1.617   3.373  0.00  0.00    -0.043 C 
BRANCH  20  21
ATOM     21  N   UNL     1       1.276  -2.874   3.257  0.00  0.00    +0.384 N 
ATOM     22  H   UNL     1       0.590  -2.789   2.522  0.00  0.00    -0.085 HD
ATOM     23  H   UNL     1       1.911  -3.627   3.038  0.00  0.00    -0.085 HD
BRANCH  21  24
ATOM     24  C   UNL     1       0.599  -3.159   4.529  0.00  0.00    -0.072 C 
ATOM     25  C   UNL     1       1.020  -4.420   5.287  0.00  0.00    -0.017 C 
ATOM     26  C   UNL     1      -0.335  -4.370   4.577  0.00  0.00    -0.017 C 
ENDBRANCH  21  24
ENDBRANCH  20  21
ENDBRANCH   6  20
TORSDOF 6
