REMARK  Name = ZINC34411739
REMARK  1 active torsions:
REMARK  status: ('A' for Active; 'I' for Inactive)
REMARK    1  A    between atoms: C_3  and  C_8
REMARK                            x       y       z     vdW  Elec       q    Type
REMARK                         _______ _______ _______ _____ _____    ______ ____
ROOT
ATOM      1  C   UNL     1      -0.017   1.378   0.010  0.00  0.00    +0.002 A 
ATOM      2  C   UNL     1       1.165   2.090   0.002  0.00  0.00    +0.011 A 
ATOM      3  C   UNL     1       2.389   1.412  -0.013  0.00  0.00    +0.015 A 
ATOM      4  C   UNL     1       2.408   0.015  -0.021  0.00  0.00    +0.026 A 
ATOM      5  C   UNL     1       1.213  -0.689  -0.013  0.00  0.00    +0.020 A 
ATOM      6  C   UNL     1       0.002  -0.004   0.002  0.00  0.00    +0.015 A 
ATOM      7  S   UNL     1       1.228  -2.451  -0.023  0.00  0.00    -0.052 SA
ENDROOT
BRANCH   3   8
ATOM      8  C   UNL     1       3.652   2.168  -0.022  0.00  0.00    +0.258 C 
ATOM      9  O   UNL     1       4.711   1.578  -0.035  0.00  0.00    -0.296 OA
ENDBRANCH   3   8
TORSDOF 1
