REMARK  Name = ZINC05125850
REMARK  5 active torsions:
REMARK  status: ('A' for Active; 'I' for Inactive)
REMARK    1  A    between atoms: C_4  and  O_25
REMARK    2  A    between atoms: C_5  and  C_7
REMARK    3  A    between atoms: N_8  and  N_9
REMARK    4  A    between atoms: C_10  and  C_12
REMARK    5  A    between atoms: C_14  and  C_18
REMARK                            x       y       z     vdW  Elec       q    Type
REMARK                         _______ _______ _______ _____ _____    ______ ____
ROOT
ATOM      1  N   UNL     1       2.412  -4.186  -0.047  0.00  0.00    -0.202 N 
ATOM      2  C   UNL     1       3.592  -4.838  -0.063  0.00  0.00    +0.281 C 
ATOM      3  O   UNL     1       4.634  -4.210  -0.070  0.00  0.00    -0.267 OA
ATOM      4  H   UNL     1       1.581  -4.686  -0.042  0.00  0.00    +0.178 HD
ENDROOT
BRANCH   2   5
ATOM      5  C   UNL     1       3.619  -6.309  -0.072  0.00  0.00    +0.122 A 
ATOM      6  C   UNL     1       4.742  -7.115  -0.083  0.00  0.00    +0.062 A 
ATOM      7  C   UNL     1       4.251  -8.434  -0.089  0.00  0.00    +0.093 A 
ATOM      8  N   UNL     1       2.936  -8.369  -0.082  0.00  0.00    -0.173 NA
ATOM      9  N   UNL     1       2.540  -7.147  -0.066  0.00  0.00    -0.272 N 
ATOM     10  H   UNL     1       1.613  -6.862  -0.054  0.00  0.00    +0.189 HD
BRANCH   7  11
ATOM     11  C   UNL     1       5.068  -9.673  -0.101  0.00  0.00    +0.002 A 
ATOM     12  C   UNL     1       6.458  -9.594  -0.103  0.00  0.00    +0.011 A 
ATOM     13  C   UNL     1       7.213 -10.749  -0.114  0.00  0.00    +0.016 A 
ATOM     14  C   UNL     1       6.591 -11.985  -0.124  0.00  0.00    +0.018 A 
ATOM     15  C   UNL     1       5.209 -12.069  -0.123  0.00  0.00    +0.016 A 
ATOM     16  C   UNL     1       4.446 -10.920  -0.105  0.00  0.00    +0.011 A 
ATOM     17 BR   UNL     1       7.631 -13.564  -0.140  0.00  0.00    -0.050 Br
ENDBRANCH   7  11
ENDBRANCH   2   5
BRANCH   1  19
ATOM     18  C   UNL     1       1.250  -2.157  -0.023  0.00  0.00    +0.142 C 
ATOM     19  N   UNL     1       2.386  -2.785  -0.038  0.00  0.00    -0.187 NA
BRANCH  18  24
ATOM     20  C   UNL     1      -0.017   1.375   0.010  0.00  0.00    +0.001 A 
ATOM     21  C   UNL     1       1.169   2.089   0.002  0.00  0.00    +0.004 A 
ATOM     22  C   UNL     1       2.383   1.428  -0.013  0.00  0.00    +0.046 A 
ATOM     23  C   UNL     1       2.420   0.044  -0.022  0.00  0.00    +0.125 A 
ATOM     24  C   UNL     1       1.222  -0.684  -0.014  0.00  0.00    +0.036 A 
ATOM     25  C   UNL     1       0.002  -0.004   0.002  0.00  0.00    +0.013 A 
BRANCH  23  26
ATOM     26  O   UNL     1       3.613  -0.606  -0.038  0.00  0.00    -0.506 OA
ATOM     27  H   UNL     1       3.967  -0.800   0.841  0.00  0.00    +0.292 HD
ENDBRANCH  23  26
ENDBRANCH  18  24
ENDBRANCH   1  19
TORSDOF 5
