REMARK  Name = ZINC39637480
REMARK  7 active torsions:
REMARK  status: ('A' for Active; 'I' for Inactive)
REMARK    1  A    between atoms: C_1  and  C_2
REMARK    2  A    between atoms: C_7  and  N_12
REMARK    3  A    between atoms: C_9  and  C_11
REMARK    4  A    between atoms: C_13  and  C_15
REMARK    5  A    between atoms: C_26  and  C_28
REMARK    6  A    between atoms: C_31  and  O_35
REMARK    7  A    between atoms: O_35  and  C_36
REMARK                            x       y       z     vdW  Elec       q    Type
REMARK                         _______ _______ _______ _____ _____    ______ ____
ROOT
ATOM      1  C   UNL     1       2.091  -4.481   3.547  0.00  0.00    +0.100 C 
ATOM      2  C   UNL     1       3.633  -4.572   3.542  0.00  0.00    +0.121 C 
ATOM      3  N   UNL     1       3.940  -5.776   4.349  0.00  0.00    -0.296 N 
ATOM      4  C   UNL     1       2.897  -6.755   3.962  0.00  0.00    +0.115 C 
ATOM      5  C   UNL     1       1.612  -5.916   3.823  0.00  0.00    -0.004 C 
ATOM      6  C   UNL     1       0.807  -5.965   5.119  0.00  0.00    -0.010 C 
ATOM      7  C   UNL     1       0.294  -7.390   5.342  0.00  0.00    -0.082 C 
ATOM      8  N   UNL     1      -0.544  -7.793   4.206  0.00  0.00    +0.379 N 
ATOM      9  C   UNL     1       0.260  -7.833   2.979  0.00  0.00    -0.082 C 
ATOM     10  C   UNL     1       0.772  -6.427   2.656  0.00  0.00    -0.010 C 
ATOM     11  C   UNL     1       4.942  -5.942   5.236  0.00  0.00    +0.247 C 
ATOM     12  O   UNL     1       5.657  -5.003   5.529  0.00  0.00    -0.270 OA
ATOM     13  H   UNL     1      -0.930  -8.709   4.383  0.00  0.00    -0.086 HD
ATOM     14  H   UNL     1      -1.296  -7.130   4.092  0.00  0.00    -0.086 HD
ENDROOT
BRANCH  11  15
ATOM     15  C   UNL     1       5.171  -7.265   5.850  0.00  0.00    +0.040 A 
ATOM     16  C   UNL     1       4.695  -8.420   5.225  0.00  0.00    +0.036 A 
ATOM     17  C   UNL     1       4.911  -9.653   5.801  0.00  0.00    +0.085 A 
ATOM     18  C   UNL     1       5.601  -9.748   7.005  0.00  0.00    +0.157 A 
ATOM     19  C   UNL     1       6.077  -8.601   7.630  0.00  0.00    +0.085 A 
ATOM     20  C   UNL     1       5.870  -7.365   7.056  0.00  0.00    +0.036 A 
ATOM     21 CL   UNL     1       6.938  -8.726   9.132  0.00  0.00    -0.080 Cl
ATOM     22 CL   UNL     1       4.319 -11.088   5.025  0.00  0.00    -0.080 Cl
BRANCH  18  23
ATOM     23  O   UNL     1       5.811 -10.964   7.570  0.00  0.00    -0.492 OA
ATOM     24  C   UNL     1       7.008 -11.653   7.202  0.00  0.00    +0.277 C 
ENDBRANCH  18  23
ENDBRANCH  11  15
BRANCH   1  26
ATOM     25  N   UNL     1       0.436  -3.314   2.127  0.00  0.00    -0.312 N 
ATOM     26  C   UNL     1       1.588  -4.008   2.208  0.00  0.00    +0.218 C 
ATOM     27  O   UNL     1       2.220  -4.252   1.202  0.00  0.00    -0.275 OA
ATOM     28  H   UNL     1      -0.070  -3.118   2.931  0.00  0.00    +0.149 HD
BRANCH  25  34
ATOM     29  C   UNL     1      -3.600  -2.014  -0.416  0.00  0.00    +0.008 C 
ATOM     30  C   UNL     1      -2.082  -2.194  -0.476  0.00  0.00    -0.009 C 
ATOM     31  C   UNL     1      -1.423  -0.858  -0.825  0.00  0.00    +0.003 C 
ATOM     32  C   UNL     1       0.095  -1.038  -0.885  0.00  0.00    +0.002 C 
ATOM     33  C   UNL     1       0.606  -1.518   0.475  0.00  0.00    +0.022 C 
ATOM     34  C   UNL     1      -0.053  -2.854   0.825  0.00  0.00    +0.076 C 
ATOM     35  C   UNL     1      -1.571  -2.674   0.884  0.00  0.00    +0.009 C 
ATOM     36  C   UNL     1      -2.230  -4.010   1.234  0.00  0.00    +0.009 C 
ENDBRANCH  25  34
ENDBRANCH   1  26
TORSDOF 4
