REMARK  Name = ZINC11966114
REMARK  9 active torsions:
REMARK  status: ('A' for Active; 'I' for Inactive)
REMARK    1  A    between atoms: C_1  and  O_2
REMARK    2  A    between atoms: O_2  and  C_3
REMARK    3  A    between atoms: C_3  and  C_5
REMARK    4  A    between atoms: N_7  and  C_10
REMARK    5  A    between atoms: C_13  and  C_26
REMARK    6  A    between atoms: C_16  and  N_68
REMARK    7  A    between atoms: N_28  and  C_29
REMARK    8  A    between atoms: C_33  and  S_35
REMARK    9  A    between atoms: S_35  and  C_36
REMARK                            x       y       z     vdW  Elec       q    Type
REMARK                         _______ _______ _______ _____ _____    ______ ____
ROOT
ATOM      1  C   UNL     1       0.013  -6.420  -1.187  0.00  0.00    +0.091 C 
ATOM      2  C   UNL     1       0.790  -5.090  -1.039  0.00  0.00    +0.019 C 
ATOM      3  C   UNL     1       0.165  -4.465   0.233  0.00  0.00    +0.022 C 
ATOM      4  C   UNL     1      -1.296  -6.212  -0.403  0.00  0.00    -0.050 C 
ATOM      5  N   UNL     1      -1.249  -4.838   0.109  0.00  0.00    +0.391 N 
ATOM      6  H   UNL     1      -1.717  -4.205  -0.551  0.00  0.00    -0.080 HD
ENDROOT
BRANCH   5   7
ATOM      7  C   UNL     1      -1.933  -4.755   1.435  0.00  0.00    -0.061 C 
ATOM      8  C   UNL     1      -3.295  -5.447   1.358  0.00  0.00    -0.024 C 
ATOM      9  C   UNL     1      -3.985  -5.368   2.721  0.00  0.00    +0.005 C 
ATOM     10  C   UNL     1      -4.178  -3.902   3.111  0.00  0.00    -0.010 C 
ATOM     11  C   UNL     1      -5.045  -3.205   2.060  0.00  0.00    +0.007 C 
ATOM     12  C   UNL     1      -4.356  -3.283   0.697  0.00  0.00    -0.010 C 
ATOM     13  C   UNL     1      -4.162  -4.750   0.307  0.00  0.00    +0.005 C 
ATOM     14  C   UNL     1      -2.993  -2.592   0.774  0.00  0.00    +0.005 C 
ATOM     15  C   UNL     1      -2.126  -3.289   1.824  0.00  0.00    -0.024 C 
ATOM     16  C   UNL     1      -2.816  -3.210   3.188  0.00  0.00    +0.005 C 
ENDBRANCH   5   7
BRANCH   1  19
ATOM     17  C   UNL     1       2.130  -8.707   0.632  0.00  0.00    +0.189 A 
ATOM     18  C   UNL     1       1.640  -7.448   0.430  0.00  0.00    +0.145 A 
ATOM     19  N   UNL     1       0.783  -7.524  -0.607  0.00  0.00    -0.250 N 
ATOM     20  N   UNL     1       0.765  -8.863  -1.021  0.00  0.00    -0.065 NA
ATOM     21  N   UNL     1       1.574  -9.530  -0.274  0.00  0.00    -0.123 NA
BRANCH  17  22
ATOM     22  C   UNL     1       3.104  -9.098   1.667  0.00  0.00    +0.361 C 
ATOM     23  O   UNL     1       3.541  -8.264   2.435  0.00  0.00    -0.243 OA
BRANCH  22  25
ATOM     24  C   UNL     1       4.470 -10.691   2.805  0.00  0.00    +0.280 C 
ATOM     25  O   UNL     1       3.510 -10.379   1.762  0.00  0.00    -0.463 OA
ENDBRANCH  22  25
ENDBRANCH  17  22
ENDBRANCH   1  19
BRANCH   3  26
ATOM     26  C   UNL     1       0.334  -2.967   0.228  0.00  0.00    +0.204 C 
ATOM     27  O   UNL     1      -0.458  -2.270  -0.371  0.00  0.00    -0.277 OA
ATOM     28  N   UNL     1       1.364  -2.403   0.888  0.00  0.00    -0.287 N 
ATOM     29  H   UNL     1       2.035  -2.963   1.310  0.00  0.00    +0.155 HD
BRANCH  28  30
ATOM     30  C   UNL     1       1.467  -1.010   0.965  0.00  0.00    +0.034 A 
ATOM     31  C   UNL     1       1.964  -0.411   2.117  0.00  0.00    +0.023 A 
ATOM     32  C   UNL     1       2.065   0.964   2.195  0.00  0.00    +0.003 A 
ATOM     33  C   UNL     1       1.673   1.750   1.128  0.00  0.00    +0.015 A 
ATOM     34  C   UNL     1       1.175   1.159  -0.027  0.00  0.00    +0.009 A 
ATOM     35  C   UNL     1       1.072  -0.224  -0.108  0.00  0.00    +0.038 A 
BRANCH  34  36
ATOM     36  S   UNL     1       0.675   2.161  -1.387  0.00  0.00    -0.129 S 
ATOM     37  C   UNL     1       0.990   3.856  -0.821  0.00  0.00    +0.090 C 
ENDBRANCH  34  36
ENDBRANCH  28  30
ENDBRANCH   3  26
TORSDOF 7
