REMARK  Name = ZINC14660424
REMARK  12 active torsions:
REMARK  status: ('A' for Active; 'I' for Inactive)
REMARK    1  A    between atoms: C_1  and  C_2
REMARK    2  A    between atoms: C_2  and  C_3
REMARK    3  A    between atoms: C_2  and  O_4
REMARK    4  A    between atoms: O_4  and  C_5
REMARK    5  A    between atoms: C_8  and  C_12
REMARK    6  A    between atoms: N_14  and  C_15
REMARK    7  A    between atoms: C_15  and  N_17
REMARK    8  A    between atoms: N_17  and  N_18
REMARK    9  A    between atoms: C_19  and  C_21
REMARK   10  A    between atoms: C_21  and  O_22
REMARK   11  A    between atoms: O_22  and  C_23
REMARK   12  A    between atoms: C_26  and  N_29
REMARK                            x       y       z     vdW  Elec       q    Type
REMARK                         _______ _______ _______ _____ _____    ______ ____
ROOT
ATOM      1  C   UNL     1       2.231   1.356  -1.320  0.00  0.00    +0.153 C 
ATOM      2  S   UNL     1       2.279  -0.355  -1.336  0.00  0.00    -0.017 S 
ENDROOT
BRANCH   1   5
ATOM      3  C   UNL     1      -0.060   1.288  -0.877  0.00  0.00    +0.250 C 
ATOM      4  O   UNL     1      -0.026   0.073  -0.889  0.00  0.00    -0.270 OA
ATOM      5  N   UNL     1       1.067   1.995  -1.092  0.00  0.00    -0.263 N 
ATOM      6  H   UNL     1       1.040   2.965  -1.082  0.00  0.00    +0.157 HD
BRANCH   3  10
ATOM      7  C   UNL     1      -3.731   3.304  -0.176  0.00  0.00    +0.135 A 
ATOM      8  C   UNL     1      -2.569   4.035  -0.391  0.00  0.00    +0.047 A 
ATOM      9  C   UNL     1      -1.376   3.385  -0.614  0.00  0.00    +0.017 A 
ATOM     10  C   UNL     1      -1.336   1.988  -0.634  0.00  0.00    +0.038 A 
ATOM     11  C   UNL     1      -2.506   1.256  -0.417  0.00  0.00    +0.032 A 
ATOM     12  C   UNL     1      -3.695   1.914  -0.190  0.00  0.00    +0.060 A 
ATOM     13 BR   UNL     1      -5.280   0.925   0.104  0.00  0.00    -0.046 Br
BRANCH   7  14
ATOM     14  O   UNL     1      -4.904   3.949   0.050  0.00  0.00    -0.488 OA
BRANCH  14  16
ATOM     15  C   UNL     1      -4.902   6.003  -1.223  0.00  0.00    +0.051 C 
ATOM     16  C   UNL     1      -4.850   5.371   0.169  0.00  0.00    +0.167 C 
ATOM     17  C   UNL     1      -6.041   5.859   0.996  0.00  0.00    +0.051 C 
ENDBRANCH  14  16
ENDBRANCH   7  14
ENDBRANCH   3  10
ENDBRANCH   1   5
BRANCH   1  18
ATOM     18  N   UNL     1       3.358   2.063  -1.534  0.00  0.00    -0.245 N 
ATOM     19  H   UNL     1       4.196   1.603  -1.698  0.00  0.00    +0.172 HD
BRANCH  18  20
ATOM     20  N   UNL     1       3.319   3.464  -1.520  0.00  0.00    -0.232 N 
ATOM     21  C   UNL     1       4.446   4.171  -1.735  0.00  0.00    +0.267 C 
ATOM     22  O   UNL     1       5.493   3.596  -1.940  0.00  0.00    -0.271 OA
ATOM     23  H   UNL     1       2.481   3.924  -1.357  0.00  0.00    +0.173 HD
BRANCH  21  24
ATOM     24  C   UNL     1       4.404   5.678  -1.720  0.00  0.00    +0.326 C 
BRANCH  24  25
ATOM     25  O   UNL     1       5.713   6.193  -1.971  0.00  0.00    -0.483 OA
BRANCH  25  26
ATOM     26  C   UNL     1       5.850   7.545  -1.992  0.00  0.00    +0.121 A 
ATOM     27  C   UNL     1       4.746   8.359  -1.781  0.00  0.00    +0.048 A 
ATOM     28  C   UNL     1       4.889   9.733  -1.797  0.00  0.00    +0.036 A 
ATOM     29  C   UNL     1       6.129  10.297  -2.034  0.00  0.00    +0.126 A 
ATOM     30  C   UNL     1       7.230   9.488  -2.250  0.00  0.00    +0.036 A 
ATOM     31  C   UNL     1       7.093   8.114  -2.229  0.00  0.00    +0.048 A 
BRANCH  29  32
ATOM     32  N   UNL     1       6.279  11.769  -2.057  0.00  0.00    +0.056 N 
ATOM     33  O   UNL     1       7.371  12.268  -2.265  0.00  0.00    -0.126 OA
ATOM     34  O   UNL     1       5.310  12.483  -1.867  0.00  0.00    -0.126 OA
ENDBRANCH  29  32
ENDBRANCH  25  26
ENDBRANCH  24  25
ENDBRANCH  21  24
ENDBRANCH  18  20
ENDBRANCH   1  18
TORSDOF 10
