REMARK  Name = ZINC39543278
REMARK  12 active torsions:
REMARK  status: ('A' for Active; 'I' for Inactive)
REMARK    1  A    between atoms: C_1  and  C_2
REMARK    2  A    between atoms: C_2  and  O_3
REMARK    3  A    between atoms: O_3  and  C_4
REMARK    4  A    between atoms: C_4  and  C_6
REMARK    5  A    between atoms: C_7  and  C_32
REMARK    6  A    between atoms: C_8  and  C_31
REMARK    7  A    between atoms: C_10  and  N_11
REMARK    8  A    between atoms: C_12  and  C_14
REMARK    9  A    between atoms: C_14  and  N_15
REMARK   10  A    between atoms: C_20  and  C_27
REMARK   11  A    between atoms: C_23  and  C_25
REMARK   12  A    between atoms: C_23  and  C_26
REMARK                            x       y       z     vdW  Elec       q    Type
REMARK                         _______ _______ _______ _____ _____    ______ ____
ROOT
ATOM      1  C   UNL     1      -3.332  -2.677   4.951  0.00  0.00    +0.214 C 
ENDROOT
BRANCH   1   2
ATOM      2  N   UNL     1      -4.357  -3.126   5.895  0.00  0.00    -0.215 N 
ATOM      3  C   UNL     1      -5.345  -2.342   6.377  0.00  0.00    +0.247 C 
ATOM      4  O   UNL     1      -5.639  -1.234   5.984  0.00  0.00    -0.273 OA
ATOM      5  C   UNL     1      -5.988  -3.141   7.485  0.00  0.00    +0.113 C 
ATOM      6  C   UNL     1      -7.499  -3.184   7.318  0.00  0.00    +0.038 C 
ATOM      7  C   UNL     1      -8.103  -1.824   7.669  0.00  0.00    -0.011 C 
ATOM      8  C   UNL     1      -7.801  -1.520   9.135  0.00  0.00    +0.009 C 
ATOM      9  C   UNL     1      -6.299  -1.440   9.379  0.00  0.00    -0.032 C 
ATOM     10  C   UNL     1      -5.557  -2.658   8.855  0.00  0.00    +0.041 C 
ATOM     11  C   UNL     1      -6.074  -1.363  10.905  0.00  0.00    +0.011 C 
ATOM     12  C   UNL     1      -5.734  -0.156   8.767  0.00  0.00    +0.011 C 
ATOM     13  C   UNL     1      -9.621  -1.876   7.464  0.00  0.00    +0.007 C 
ATOM     14  N   UNL     1      -5.444  -4.501   7.270  0.00  0.00    -0.285 N 
ATOM     15  C   UNL     1      -4.451  -4.373   6.372  0.00  0.00    +0.310 C 
ATOM     16  O   UNL     1      -3.723  -5.284   6.032  0.00  0.00    -0.252 OA
ATOM     17  H   UNL     1      -5.753  -5.312   7.698  0.00  0.00    +0.151 HD
ENDBRANCH   1   2
BRANCH   1  19
ATOM     18  N   UNL     1      -3.047  -2.529   2.498  0.00  0.00    -0.278 N 
ATOM     19  C   UNL     1      -3.827  -2.875   3.541  0.00  0.00    +0.236 C 
ATOM     20  O   UNL     1      -4.928  -3.345   3.345  0.00  0.00    -0.274 OA
ATOM     21  H   UNL     1      -2.166  -2.153   2.655  0.00  0.00    +0.155 HD
BRANCH  18  26
ATOM     22  C   UNL     1      -2.842  -2.416   0.016  0.00  0.00    +0.091 A 
ATOM     23  C   UNL     1      -3.551  -2.715  -1.208  0.00  0.00    -0.025 A 
ATOM     24  C   UNL     1      -4.779  -3.243  -1.061  0.00  0.00    -0.008 A 
ATOM     25  S   UNL     1      -4.978  -3.337   0.705  0.00  0.00    -0.078 S 
ATOM     26  C   UNL     1      -3.502  -2.711   1.202  0.00  0.00    +0.086 A 
ATOM     27  C   UNL     1      -5.753  -3.656  -2.134  0.00  0.00    +0.052 C 
ATOM     28  C   UNL     1      -2.950  -2.450  -2.565  0.00  0.00    +0.045 C 
BRANCH  22  29
ATOM     29  C   UNL     1      -1.497  -1.838   0.006  0.00  0.00    +0.342 C 
ATOM     30  O   UNL     1      -0.523  -2.566  -0.007  0.00  0.00    -0.245 OA
BRANCH  29  31
ATOM     31  O   UNL     1      -1.339  -0.499   0.012  0.00  0.00    -0.461 OA
BRANCH  31  33
ATOM     32  C   UNL     1      -0.019   1.526   0.010  0.00  0.00    +0.048 C 
ATOM     33  C   UNL     1       0.002  -0.004   0.002  0.00  0.00    +0.229 C 
ENDBRANCH  31  33
ENDBRANCH  29  31
ENDBRANCH  22  29
ENDBRANCH  18  26
ENDBRANCH   1  19
TORSDOF 6
