REMARK  Name = ZINC39665882
REMARK  9 active torsions:
REMARK  status: ('A' for Active; 'I' for Inactive)
REMARK    1  A    between atoms: C_1  and  C_2
REMARK    2  A    between atoms: C_2  and  C_4
REMARK    3  A    between atoms: C_2  and  O_30
REMARK    4  A    between atoms: C_4  and  N_5
REMARK    5  A    between atoms: C_6  and  C_8
REMARK    6  A    between atoms: C_19  and  C_21
REMARK    7  A    between atoms: O_30  and  C_31
REMARK    8  A    between atoms: C_34  and  O_37
REMARK    9  A    between atoms: O_37  and  C_38
REMARK                            x       y       z     vdW  Elec       q    Type
REMARK                         _______ _______ _______ _____ _____    ______ ____
ROOT
ATOM      1  C   UNL     1       1.552  -4.327   2.682  0.00  0.00    +0.100 C 
ATOM      2  C   UNL     1       2.534  -4.928   1.652  0.00  0.00    +0.121 C 
ATOM      3  N   UNL     1       3.818  -5.044   2.382  0.00  0.00    -0.296 N 
ATOM      4  C   UNL     1       3.429  -5.487   3.743  0.00  0.00    +0.115 C 
ATOM      5  C   UNL     1       2.141  -4.699   4.053  0.00  0.00    -0.004 C 
ATOM      6  C   UNL     1       2.472  -3.438   4.845  0.00  0.00    -0.010 C 
ATOM      7  C   UNL     1       3.003  -3.833   6.226  0.00  0.00    -0.082 C 
ATOM      8  N   UNL     1       1.991  -4.627   6.933  0.00  0.00    +0.379 N 
ATOM      9  C   UNL     1       1.746  -5.882   6.212  0.00  0.00    -0.082 C 
ATOM     10  C   UNL     1       1.162  -5.574   4.830  0.00  0.00    -0.010 C 
ATOM     11  C   UNL     1       5.059  -4.802   1.915  0.00  0.00    +0.252 C 
ATOM     12  O   UNL     1       6.021  -4.944   2.645  0.00  0.00    -0.270 OA
ATOM     13  H   UNL     1       2.319  -4.835   7.864  0.00  0.00    -0.086 HD
ATOM     14  H   UNL     1       1.133  -4.101   6.990  0.00  0.00    -0.086 HD
ENDROOT
BRANCH  11  15
ATOM     15  C   UNL     1       5.250  -4.364   0.519  0.00  0.00    +0.108 A 
ATOM     16  C   UNL     1       5.252  -3.001   0.204  0.00  0.00    +0.138 A 
ATOM     17  C   UNL     1       5.432  -2.599  -1.106  0.00  0.00    +0.041 A 
ATOM     18  C   UNL     1       5.608  -3.540  -2.105  0.00  0.00    +0.026 A 
ATOM     19  C   UNL     1       5.607  -4.890  -1.802  0.00  0.00    +0.077 A 
ATOM     20  C   UNL     1       5.434  -5.309  -0.495  0.00  0.00    +0.156 A 
ATOM     21  F   UNL     1       5.439  -6.628  -0.200  0.00  0.00    -0.203 F 
ATOM     22 CL   UNL     1       5.829  -6.061  -3.064  0.00  0.00    -0.081 Cl
ATOM     23  F   UNL     1       5.080  -2.080   1.177  0.00  0.00    -0.205 F 
ENDBRANCH  11  15
BRANCH   1  25
ATOM     24  N   UNL     1       0.356  -2.170   2.867  0.00  0.00    -0.312 N 
ATOM     25  C   UNL     1       1.482  -2.830   2.529  0.00  0.00    +0.218 C 
ATOM     26  O   UNL     1       2.438  -2.219   2.102  0.00  0.00    -0.275 OA
ATOM     27  H   UNL     1      -0.409  -2.659   3.209  0.00  0.00    +0.149 HD
BRANCH  24  28
ATOM     28  C   UNL     1       0.289  -0.714   2.719  0.00  0.00    +0.148 C 
BRANCH  28  30
ATOM     29  C   UNL     1      -1.203   1.283   2.898  0.00  0.00    +0.053 C 
ATOM     30  C   UNL     1      -1.087  -0.219   3.169  0.00  0.00    +0.187 C 
BRANCH  30  31
ATOM     31  O   UNL     1      -1.247  -0.464   4.568  0.00  0.00    -0.488 OA
BRANCH  31  32
ATOM     32  C   UNL     1      -2.520  -0.571   5.035  0.00  0.00    +0.121 A 
ATOM     33  C   UNL     1      -2.747  -0.912   6.360  0.00  0.00    +0.049 A 
ATOM     34  C   UNL     1      -4.040  -1.020   6.833  0.00  0.00    +0.049 A 
ATOM     35  C   UNL     1      -5.111  -0.788   5.984  0.00  0.00    +0.120 A 
ATOM     36  C   UNL     1      -4.885  -0.446   4.659  0.00  0.00    +0.049 A 
ATOM     37  C   UNL     1      -3.592  -0.333   4.186  0.00  0.00    +0.049 A 
BRANCH  35  38
ATOM     38  O   UNL     1      -6.384  -0.896   6.450  0.00  0.00    -0.495 OA
ATOM     39  C   UNL     1      -7.439  -0.642   5.520  0.00  0.00    +0.277 C 
ENDBRANCH  35  38
ENDBRANCH  31  32
ENDBRANCH  30  31
ENDBRANCH  28  30
ENDBRANCH  24  28
ENDBRANCH   1  25
TORSDOF 7
