REMARK  Name = ZINC64674323
REMARK  7 active torsions:
REMARK  status: ('A' for Active; 'I' for Inactive)
REMARK    1  A    between atoms: C_7  and  C_10
REMARK    2  A    between atoms: C_10  and  C_11
REMARK    3  A    between atoms: C_11  and  C_12
REMARK    4  A    between atoms: N_14  and  N_15
REMARK    5  A    between atoms: C_16  and  C_18
REMARK    6  A    between atoms: C_21  and  S_24
REMARK    7  A    between atoms: S_24  and  N_27
REMARK                            x       y       z     vdW  Elec       q    Type
REMARK                         _______ _______ _______ _____ _____    ______ ____
ROOT
ATOM      1  N   UNL     1      -1.712  -6.507  -2.622  0.00  0.00    -0.230 N 
ATOM      2  C   UNL     1      -2.064  -7.090  -3.785  0.00  0.00    +0.260 C 
ATOM      3  O   UNL     1      -1.623  -6.666  -4.835  0.00  0.00    -0.269 OA
ATOM      4  H   UNL     1      -2.064  -6.846  -1.784  0.00  0.00    +0.173 HD
ENDROOT
BRANCH   2   5
ATOM      5  C   UNL     1      -2.987  -8.245  -3.783  0.00  0.00    +0.038 A 
ATOM      6  C   UNL     1      -3.500  -8.730  -2.579  0.00  0.00    +0.015 A 
ATOM      7  C   UNL     1      -4.362  -9.808  -2.585  0.00  0.00    +0.029 A 
ATOM      8  C   UNL     1      -4.717 -10.407  -3.780  0.00  0.00    +0.106 A 
ATOM      9  C   UNL     1      -4.212  -9.931  -4.977  0.00  0.00    +0.029 A 
ATOM     10  C   UNL     1      -3.354  -8.850  -4.986  0.00  0.00    +0.015 A 
BRANCH   8  11
ATOM     11  S   UNL     1      -5.817 -11.784  -3.778  0.00  0.00    +0.061 S 
ATOM     12  O   UNL     1      -5.564 -12.508  -4.975  0.00  0.00    -0.153 OA
ATOM     13  O   UNL     1      -5.719 -12.380  -2.492  0.00  0.00    -0.153 OA
BRANCH  11  14
ATOM     14  N   UNL     1      -7.355 -11.182  -3.905  0.00  0.00    -0.177 NA
ATOM     15  C   UNL     1      -8.222 -10.803  -2.780  0.00  0.00    +0.109 C 
ATOM     16  C   UNL     1      -9.562 -10.322  -3.377  0.00  0.00    +0.018 C 
ATOM     17  C   UNL     1      -9.578 -10.990  -4.777  0.00  0.00    +0.018 C 
ATOM     18  C   UNL     1      -8.078 -10.931  -5.165  0.00  0.00    +0.109 C 
ENDBRANCH  11  14
ENDBRANCH   8  11
ENDBRANCH   2   5
BRANCH   1  21
ATOM     19  C   UNL     1      -0.484  -4.830  -1.460  0.00  0.00    +0.229 C 
ATOM     20  O   UNL     1      -0.925  -5.254  -0.412  0.00  0.00    -0.274 OA
ATOM     21  N   UNL     1      -0.837  -5.413  -2.623  0.00  0.00    -0.234 N 
ATOM     22  H   UNL     1      -0.485  -5.075  -3.461  0.00  0.00    +0.173 HD
BRANCH  19  23
ATOM     23  C   UNL     1       0.457  -3.653  -1.462  0.00  0.00    +0.102 C 
BRANCH  23  24
ATOM     24  C   UNL     1       0.691  -3.186  -0.024  0.00  0.00    +0.042 C 
BRANCH  24  31
ATOM     25  C   UNL     1      -0.016   1.348   0.009  0.00  0.00    +0.001 A 
ATOM     26  C   UNL     1       1.166   2.101   0.002  0.00  0.00    +0.002 A 
ATOM     27  C   UNL     1       2.391   1.535  -0.013  0.00  0.00    +0.026 A 
ATOM     28  C   UNL     1       2.529   0.120  -0.022  0.00  0.00    +0.043 A 
ATOM     29  N   UNL     1       3.587  -0.654  -0.037  0.00  0.00    -0.380 N 
ATOM     30  C   UNL     1       3.143  -2.053  -0.041  0.00  0.00    +0.144 C 
ATOM     31  C   UNL     1       1.631  -2.008  -0.025  0.00  0.00    -0.041 C 
ATOM     32  C   UNL     1       1.295  -0.698  -0.014  0.00  0.00    -0.001 A 
ATOM     33  C   UNL     1       0.002  -0.004   0.002  0.00  0.00    +0.010 A 
ATOM     34  H   UNL     1       4.509  -0.353  -0.045  0.00  0.00    +0.160 HD
ENDBRANCH  24  31
ENDBRANCH  23  24
ENDBRANCH  19  23
ENDBRANCH   1  21
TORSDOF 7
