REMARK  Name = ZINC21994446
REMARK  4 active torsions:
REMARK  status: ('A' for Active; 'I' for Inactive)
REMARK    1  A    between atoms: C_3  and  C_19
REMARK    2  A    between atoms: C_6  and  C_7
REMARK    3  A    between atoms: C_7  and  N_8
REMARK    4  A    between atoms: C_16  and  N_17
REMARK                            x       y       z     vdW  Elec       q    Type
REMARK                         _______ _______ _______ _____ _____    ______ ____
ROOT
ATOM      1  N   UNL     1       1.222  -2.666  -1.406  0.00  0.00    -0.310 N 
ATOM      2  C   UNL     1       0.125  -3.036  -2.127  0.00  0.00    +0.202 A 
ATOM      3  N   UNL     1       0.482  -3.410  -3.321  0.00  0.00    -0.231 NA
ATOM      4  C   UNL     1       1.828  -3.304  -3.442  0.00  0.00    +0.147 A 
ATOM      5  C   UNL     1       2.318  -2.821  -2.217  0.00  0.00    +0.167 A 
ATOM      6  N   UNL     1       3.626  -2.633  -2.074  0.00  0.00    -0.198 NA
ATOM      7  C   UNL     1       4.453  -2.886  -3.067  0.00  0.00    +0.226 A 
ATOM      8  N   UNL     1       4.038  -3.336  -4.238  0.00  0.00    -0.201 NA
ATOM      9  C   UNL     1       2.749  -3.559  -4.472  0.00  0.00    +0.149 A 
ATOM     10 CL   UNL     1       6.152  -2.616  -2.829  0.00  0.00    -0.041 Cl
ENDROOT
BRANCH   9  11
ATOM     11  N   UNL     1       2.324  -4.031  -5.701  0.00  0.00    -0.341 N 
ATOM     12  H   UNL     1       3.057  -4.226  -6.499  0.00  0.00    +0.144 HD
ATOM     13  H   UNL     1       1.254  -4.212  -5.881  0.00  0.00    +0.144 HD
ENDBRANCH   9  11
BRANCH   1  14
ATOM     14  C   UNL     1       1.229  -2.186  -0.022  0.00  0.00    +0.159 C 
BRANCH  14  20
ATOM     15  C   UNL     1       0.002  -0.004   0.002  0.00  0.00    +0.006 A 
ATOM     16  C   UNL     1      -0.017   1.378   0.010  0.00  0.00    +0.013 A 
ATOM     17  C   UNL     1       1.171   2.086   0.002  0.00  0.00    +0.055 A 
ATOM     18  C   UNL     1       2.377   1.411  -0.014  0.00  0.00    +0.013 A 
ATOM     19  C   UNL     1       2.396   0.029  -0.022  0.00  0.00    +0.006 A 
ATOM     20  C   UNL     1       1.208  -0.679  -0.014  0.00  0.00    -0.028 A 
BRANCH  17  21
ATOM     21  C   UNL     1       1.151   3.592   0.010  0.00  0.00    +0.417 C 
ATOM     22  F   UNL     1       1.157   4.052   1.331  0.00  0.00    -0.166 F 
ATOM     23  F   UNL     1       2.280   4.077  -0.658  0.00  0.00    -0.166 F 
ATOM     24  F   UNL     1      -0.004   4.046  -0.636  0.00  0.00    -0.166 F 
ENDBRANCH  17  21
ENDBRANCH  14  20
ENDBRANCH   1  14
TORSDOF 4
