REMARK  Name = ZINC39874521
REMARK  11 active torsions:
REMARK  status: ('A' for Active; 'I' for Inactive)
REMARK    1  A    between atoms: C_1  and  C_2
REMARK    2  A    between atoms: C_2  and  C_3
REMARK    3  A    between atoms: C_3  and  C_4
REMARK    4  A    between atoms: C_4  and  O_5
REMARK    5  A    between atoms: O_5  and  C_6
REMARK    6  A    between atoms: C_9  and  C_15
REMARK    7  A    between atoms: C_11  and  O_12
REMARK    8  A    between atoms: O_12  and  C_13
REMARK    9  A    between atoms: C_13  and  C_14
REMARK   10  A    between atoms: N_30  and  C_31
REMARK   11  A    between atoms: C_35  and  C_37
REMARK                            x       y       z     vdW  Elec       q    Type
REMARK                         _______ _______ _______ _____ _____    ______ ____
ROOT
ATOM      1  C   UNL     1      -3.411  -8.156  -0.009  0.00  0.00    +0.150 C 
ATOM      2  C   UNL     1      -3.176  -8.696  -1.381  0.00  0.00    +0.072 A 
ATOM      3  C   UNL     1      -3.869  -8.447  -2.649  0.00  0.00    +0.199 A 
ATOM      4  O   UNL     1      -4.700  -7.568  -2.794  0.00  0.00    -0.287 OA
ATOM      5  C   UNL     1      -3.462  -9.368  -3.740  0.00  0.00    +0.066 A 
ATOM      6  C   UNL     1      -4.167  -9.392  -4.943  0.00  0.00    +0.035 A 
ATOM      7  C   UNL     1      -3.778 -10.257  -5.943  0.00  0.00    +0.042 A 
ATOM      8  C   UNL     1      -2.690 -11.100  -5.750  0.00  0.00    +0.023 A 
ATOM      9  C   UNL     1      -1.987 -11.083  -4.567  0.00  0.00    +0.048 A 
ATOM     10  C   UNL     1      -2.359 -10.215  -3.541  0.00  0.00    +0.140 A 
ATOM     11  O   UNL     1      -1.644 -10.212  -2.393  0.00  0.00    -0.450 OA
ATOM     12  C   UNL     1      -2.117  -9.557  -1.314  0.00  0.00    +0.199 A 
ATOM     13  C   UNL     1      -1.647  -9.604   0.081  0.00  0.00    +0.287 C 
ATOM     14  O   UNL     1      -0.719 -10.279   0.480  0.00  0.00    -0.266 OA
ATOM     15  N   UNL     1      -2.398  -8.788   0.852  0.00  0.00    -0.253 N 
ATOM     16 CL   UNL     1      -4.648 -10.295  -7.445  0.00  0.00    -0.084 Cl
ENDROOT
BRANCH  15  17
ATOM     17  C   UNL     1      -2.240  -8.579   2.225  0.00  0.00    +0.038 A 
ATOM     18  C   UNL     1      -3.089  -7.710   2.899  0.00  0.00    +0.023 A 
ATOM     19  C   UNL     1      -2.931  -7.506   4.255  0.00  0.00    +0.002 A 
ATOM     20  C   UNL     1      -1.928  -8.165   4.943  0.00  0.00    +0.003 A 
ATOM     21  C   UNL     1      -1.081  -9.030   4.275  0.00  0.00    -0.049 A 
ATOM     22  C   UNL     1      -1.237  -9.243   2.920  0.00  0.00    +0.027 A 
ATOM     23  C   UNL     1       0.011  -9.745   5.028  0.00  0.00    +0.044 C 
ENDBRANCH  15  17
BRANCH   1  27
ATOM     24  C   UNL     1      -2.913  -3.909   0.009  0.00  0.00    +0.162 A 
ATOM     25  C   UNL     1      -1.804  -4.739  -0.000  0.00  0.00    +0.050 A 
ATOM     26  C   UNL     1      -1.968  -6.112  -0.006  0.00  0.00    +0.009 A 
ATOM     27  C   UNL     1      -3.238  -6.659  -0.002  0.00  0.00    -0.018 A 
ATOM     28  C   UNL     1      -4.348  -5.836   0.006  0.00  0.00    +0.055 A 
ATOM     29  C   UNL     1      -4.191  -4.460   0.018  0.00  0.00    +0.162 A 
BRANCH  24  30
ATOM     30  O   UNL     1      -2.753  -2.558   0.015  0.00  0.00    -0.488 OA
BRANCH  30  31
ATOM     31  C   UNL     1      -1.413  -2.063   0.004  0.00  0.00    +0.229 C 
BRANCH  31  32
ATOM     32  C   UNL     1      -1.433  -0.534   0.013  0.00  0.00    +0.041 C 
BRANCH  32  34
ATOM     33  C   UNL     1      -0.019   1.526   0.010  0.00  0.00    +0.004 C 
ATOM     34  C   UNL     1       0.002  -0.004   0.002  0.00  0.00    -0.000 C 
ENDBRANCH  32  34
ENDBRANCH  31  32
ENDBRANCH  30  31
ENDBRANCH  24  30
BRANCH  29  35
ATOM     35  O   UNL     1      -5.282  -3.649   0.033  0.00  0.00    -0.489 OA
BRANCH  35  36
ATOM     36  C   UNL     1      -6.562  -4.284   0.042  0.00  0.00    +0.226 C 
ATOM     37  C   UNL     1      -7.660  -3.219   0.058  0.00  0.00    +0.048 C 
ENDBRANCH  35  36
ENDBRANCH  29  35
ENDBRANCH   1  27
TORSDOF 8
