REMARK  Name = ZINC58151862
REMARK  13 active torsions:
REMARK  status: ('A' for Active; 'I' for Inactive)
REMARK    1  A    between atoms: C_1  and  C_2
REMARK    2  A    between atoms: C_5  and  C_33
REMARK    3  A    between atoms: N_8  and  S_10
REMARK    4  A    between atoms: S_10  and  C_13
REMARK    5  A    between atoms: C_16  and  N_22
REMARK    6  A    between atoms: C_17  and  N_19
REMARK    7  A    between atoms: N_22  and  C_23
REMARK    8  A    between atoms: C_23  and  C_25
REMARK    9  A    between atoms: C_23  and  C_26
REMARK   10  A    between atoms: N_28  and  C_29
REMARK   11  A    between atoms: C_29  and  C_30
REMARK   12  A    between atoms: C_29  and  C_31
REMARK   13  A    between atoms: C_29  and  C_32
REMARK                            x       y       z     vdW  Elec       q    Type
REMARK                         _______ _______ _______ _____ _____    ______ ____
ROOT
ATOM      1  C   UNL     1       2.802   2.528   2.237  0.00  0.00    +0.108 A 
ATOM      2  C   UNL     1       3.556   3.179   1.278  0.00  0.00    +0.030 A 
ATOM      3  C   UNL     1       3.196   4.443   0.855  0.00  0.00    +0.027 A 
ATOM      4  C   UNL     1       2.075   5.061   1.394  0.00  0.00    +0.058 A 
ATOM      5  C   UNL     1       1.320   4.405   2.357  0.00  0.00    +0.149 A 
ATOM      6  C   UNL     1       1.682   3.138   2.772  0.00  0.00    +0.063 A 
ENDROOT
BRANCH   1   7
ATOM      7  S   UNL     1       3.264   0.914   2.774  0.00  0.00    +0.061 S 
ATOM      8  O   UNL     1       2.706   0.742   4.069  0.00  0.00    -0.153 OA
ATOM      9  O   UNL     1       4.656   0.786   2.521  0.00  0.00    -0.153 OA
BRANCH   7  15
ATOM     10  C   UNL     1       0.047   1.055   0.710  0.00  0.00    +0.009 C 
ATOM     11  C   UNL     1       0.232  -0.448   0.926  0.00  0.00    +0.002 C 
ATOM     12  C   UNL     1       0.846  -1.073  -0.328  0.00  0.00    +0.009 C 
ATOM     13  C   UNL     1       2.189  -0.403  -0.628  0.00  0.00    +0.002 C 
ATOM     14  C   UNL     1       3.145  -0.636   0.546  0.00  0.00    +0.112 C 
ATOM     15  N   UNL     1       2.500  -0.169   1.781  0.00  0.00    -0.176 NA
ATOM     16  C   UNL     1       1.165  -0.681   2.119  0.00  0.00    +0.112 C 
ATOM     17  C   UNL     1       2.787  -1.006  -1.901  0.00  0.00    +0.009 C 
ENDBRANCH   7  15
ENDBRANCH   1   7
BRANCH   5  18
ATOM     18  N   UNL     1       0.125   5.060   2.935  0.00  0.00    +0.058 N 
ATOM     19  O   UNL     1       0.134   6.249   3.153  0.00  0.00    -0.126 OA
ATOM     20  O   UNL     1      -0.860   4.406   3.188  0.00  0.00    -0.126 OA
ENDBRANCH   5  18
BRANCH   4  21
ATOM     21  N   UNL     1       1.709   6.340   0.969  0.00  0.00    -0.331 N 
ATOM     22  H   UNL     1       0.880   6.737   1.281  0.00  0.00    +0.147 HD
BRANCH  21  23
ATOM     23  C   UNL     1       2.576   7.083   0.051  0.00  0.00    +0.154 C 
ATOM     24  C   UNL     1       2.263   6.674  -1.390  0.00  0.00    +0.038 C 
BRANCH  23  25
ATOM     25  C   UNL     1       2.334   8.562   0.217  0.00  0.00    +0.233 C 
ATOM     26  O   UNL     1       1.518   8.955   1.023  0.00  0.00    -0.274 OA
ATOM     27  N   UNL     1       3.025   9.446  -0.530  0.00  0.00    -0.309 N 
ATOM     28  H   UNL     1       3.678   9.131  -1.174  0.00  0.00    +0.149 HD
BRANCH  27  29
ATOM     29  C   UNL     1       2.789  10.883  -0.368  0.00  0.00    +0.026 C 
ATOM     30  C   UNL     1       3.102  11.292   1.073  0.00  0.00    +0.031 C 
ATOM     31  C   UNL     1       3.695  11.659  -1.327  0.00  0.00    +0.031 C 
ATOM     32  C   UNL     1       1.325  11.198  -0.681  0.00  0.00    +0.031 C 
ENDBRANCH  27  29
ENDBRANCH  23  25
ENDBRANCH  21  23
ENDBRANCH   4  21
TORSDOF 7
