REMARK  Name = ZINC44270210
REMARK  11 active torsions:
REMARK  status: ('A' for Active; 'I' for Inactive)
REMARK    1  A    between atoms: C_1  and  C_2
REMARK    2  A    between atoms: C_2  and  C_3
REMARK    3  A    between atoms: C_6  and  C_9
REMARK    4  A    between atoms: C_9  and  C_11
REMARK    5  A    between atoms: C_9  and  N_28
REMARK    6  A    between atoms: C_11  and  N_12
REMARK    7  A    between atoms: N_15  and  C_16
REMARK    8  A    between atoms: C_21  and  C_22
REMARK    9  A    between atoms: C_22  and  N_23
REMARK   10  A    between atoms: N_28  and  C_29
REMARK   11  A    between atoms: N_28  and  C_30
REMARK                            x       y       z     vdW  Elec       q    Type
REMARK                         _______ _______ _______ _____ _____    ______ ____
ROOT
ATOM      1  N   UNL     1       3.296  -1.307   7.000  0.00  0.00    -0.300 N 
ATOM      2  C   UNL     1       3.402  -0.508   8.081  0.00  0.00    +0.304 C 
ATOM      3  O   UNL     1       3.172   0.681   7.982  0.00  0.00    -0.253 OA
ATOM      4  N   UNL     1       3.764  -1.029   9.270  0.00  0.00    -0.269 N 
ATOM      5  H   UNL     1       3.480  -2.256   7.078  0.00  0.00    +0.150 HD
ATOM      6  H   UNL     1       3.871  -1.988   9.367  0.00  0.00    +0.156 HD
ENDROOT
BRANCH   4   7
ATOM      7  C   UNL     1       3.983  -0.186  10.365  0.00  0.00    +0.040 A 
ATOM      8  C   UNL     1       4.328   1.144  10.161  0.00  0.00    +0.024 A 
ATOM      9  C   UNL     1       4.544   1.973  11.244  0.00  0.00    +0.002 A 
ATOM     10  C   UNL     1       4.418   1.481  12.530  0.00  0.00    +0.000 A 
ATOM     11  C   UNL     1       4.075   0.157  12.736  0.00  0.00    +0.007 A 
ATOM     12  C   UNL     1       3.852  -0.676  11.658  0.00  0.00    -0.005 A 
BRANCH  12  13
ATOM     13  C   UNL     1       3.473  -2.117  11.883  0.00  0.00    +0.180 C 
BRANCH  13  14
ATOM     14  N   UNL     1       4.676  -2.951  11.840  0.00  0.00    -0.267 N 
ATOM     15  C   UNL     1       5.084  -3.806  12.801  0.00  0.00    +0.108 A 
ATOM     16  C   UNL     1       6.235  -4.381  12.380  0.00  0.00    +0.041 A 
ATOM     17  C   UNL     1       6.540  -3.859  11.119  0.00  0.00    +0.134 A 
ATOM     18  N   UNL     1       5.603  -3.006  10.792  0.00  0.00    -0.179 NA
ENDBRANCH  13  14
ENDBRANCH  12  13
ENDBRANCH   4   7
BRANCH   1  19
ATOM     19  C   UNL     1       2.904  -0.741   5.707  0.00  0.00    +0.095 C 
BRANCH  19  20
ATOM     20  C   UNL     1       2.740  -1.868   4.686  0.00  0.00    -0.021 C 
BRANCH  20  24
ATOM     21  C   UNL     1       6.524  -3.722   3.987  0.00  0.00    -0.048 A 
ATOM     22  C   UNL     1       5.611  -4.314   4.840  0.00  0.00    +0.004 A 
ATOM     23  C   UNL     1       4.387  -3.714   5.066  0.00  0.00    +0.002 A 
ATOM     24  C   UNL     1       4.075  -2.522   4.440  0.00  0.00    -0.059 A 
ATOM     25  C   UNL     1       4.988  -1.930   3.587  0.00  0.00    +0.002 A 
ATOM     26  C   UNL     1       6.214  -2.528   3.364  0.00  0.00    +0.004 A 
BRANCH  21  28
ATOM     27  C   UNL     1       8.872  -3.872   4.770  0.00  0.00    +0.009 C 
ATOM     28  C   UNL     1       7.859  -4.377   3.740  0.00  0.00    +0.032 C 
ENDBRANCH  21  28
ENDBRANCH  20  24
BRANCH  20  29
ATOM     29  N   UNL     1       2.225  -1.316   3.425  0.00  0.00    +0.382 N 
ATOM     30  C   UNL     1       1.973  -2.410   2.478  0.00  0.00    -0.096 C 
ATOM     31  C   UNL     1       0.973  -0.592   3.682  0.00  0.00    -0.096 C 
ATOM     32  H   UNL     1       2.906  -0.682   3.033  0.00  0.00    -0.082 HD
ENDBRANCH  20  29
ENDBRANCH  19  20
ENDBRANCH   1  19
TORSDOF 8
