REMARK  Name = ZINC39631344
REMARK  11 active torsions:
REMARK  status: ('A' for Active; 'I' for Inactive)
REMARK    1  A    between atoms: C_1  and  C_2
REMARK    2  A    between atoms: C_2  and  C_4
REMARK    3  A    between atoms: C_2  and  N_11
REMARK    4  A    between atoms: C_4  and  C_5
REMARK    5  A    between atoms: C_5  and  C_6
REMARK    6  A    between atoms: C_6  and  C_7
REMARK    7  A    between atoms: C_7  and  C_8
REMARK    8  A    between atoms: C_7  and  C_9
REMARK    9  A    between atoms: C_7  and  O_10
REMARK   10  A    between atoms: C_12  and  C_14
REMARK   11  A    between atoms: C_25  and  C_27
REMARK                            x       y       z     vdW  Elec       q    Type
REMARK                         _______ _______ _______ _____ _____    ______ ____
ROOT
ATOM      1  C   UNL     1      -3.458  -1.169  -1.130  0.00  0.00    +0.100 C 
ATOM      2  C   UNL     1      -3.481  -2.658  -0.720  0.00  0.00    +0.121 C 
ATOM      3  N   UNL     1      -4.545  -3.261  -1.556  0.00  0.00    -0.296 N 
ATOM      4  C   UNL     1      -4.389  -2.608  -2.878  0.00  0.00    +0.115 C 
ATOM      5  C   UNL     1      -4.054  -1.140  -2.547  0.00  0.00    -0.004 C 
ATOM      6  C   UNL     1      -3.031  -0.596  -3.540  0.00  0.00    -0.010 C 
ATOM      7  C   UNL     1      -3.665  -0.523  -4.931  0.00  0.00    -0.082 C 
ATOM      8  N   UNL     1      -4.846   0.349  -4.888  0.00  0.00    +0.379 N 
ATOM      9  C   UNL     1      -5.863  -0.230  -4.002  0.00  0.00    -0.082 C 
ATOM     10  C   UNL     1      -5.321  -0.291  -2.571  0.00  0.00    -0.010 C 
ATOM     11  C   UNL     1      -5.451  -4.192  -1.196  0.00  0.00    +0.249 C 
ATOM     12  O   UNL     1      -5.516  -4.562  -0.040  0.00  0.00    -0.270 OA
ATOM     13  H   UNL     1      -4.578   1.258  -4.541  0.00  0.00    -0.086 HD
ATOM     14  H   UNL     1      -5.226   0.444  -5.817  0.00  0.00    -0.086 HD
ENDROOT
BRANCH  11  15
ATOM     15  C   UNL     1      -6.364  -4.761  -2.206  0.00  0.00    +0.072 A 
ATOM     16  C   UNL     1      -5.923  -4.963  -3.516  0.00  0.00    +0.019 A 
ATOM     17  C   UNL     1      -6.780  -5.495  -4.455  0.00  0.00    +0.039 A 
ATOM     18  C   UNL     1      -8.079  -5.831  -4.103  0.00  0.00    +0.126 A 
ATOM     19  C   UNL     1      -8.525  -5.634  -2.806  0.00  0.00    +0.077 A 
ATOM     20  C   UNL     1      -7.673  -5.107  -1.854  0.00  0.00    +0.138 A 
ATOM     21  F   UNL     1      -8.106  -4.920  -0.587  0.00  0.00    -0.205 F 
ATOM     22  F   UNL     1      -8.914  -6.352  -5.028  0.00  0.00    -0.205 F 
ENDBRANCH  11  15
BRANCH   1  24
ATOM     23  N   UNL     1      -1.810   0.675  -1.062  0.00  0.00    -0.312 N 
ATOM     24  C   UNL     1      -2.043  -0.650  -1.145  0.00  0.00    +0.218 C 
ATOM     25  O   UNL     1      -1.114  -1.425  -1.231  0.00  0.00    -0.275 OA
ATOM     26  H   UNL     1      -2.554   1.295  -0.993  0.00  0.00    +0.149 HD
BRANCH  23  28
ATOM     27  C   UNL     1       0.035   1.336  -2.524  0.00  0.00    +0.028 C 
ATOM     28  C   UNL     1      -0.435   1.179  -1.076  0.00  0.00    +0.070 C 
BRANCH  28  29
ATOM     29  C   UNL     1      -0.382   2.537  -0.373  0.00  0.00    +0.022 C 
BRANCH  29  30
ATOM     30  C   UNL     1      -0.733   2.360   1.105  0.00  0.00    +0.005 C 
BRANCH  30  31
ATOM     31  C   UNL     1      -0.680   3.718   1.808  0.00  0.00    +0.034 C 
BRANCH  31  32
ATOM     32  C   UNL     1      -1.030   3.540   3.287  0.00  0.00    +0.061 C 
ATOM     33  C   UNL     1      -1.100   4.911   3.963  0.00  0.00    +0.041 C 
ATOM     34  C   UNL     1      -2.386   2.842   3.410  0.00  0.00    +0.041 C 
BRANCH  32  35
ATOM     35  O   UNL     1      -0.027   2.746   3.923  0.00  0.00    -0.389 OA
ATOM     36  H   UNL     1       0.861   3.129   3.884  0.00  0.00    +0.210 HD
ENDBRANCH  32  35
ENDBRANCH  31  32
ENDBRANCH  30  31
ENDBRANCH  29  30
ENDBRANCH  28  29
ENDBRANCH  23  28
ENDBRANCH   1  24
TORSDOF 8
