REMARK  Name = ZINC66952389
REMARK  6 active torsions:
REMARK  status: ('A' for Active; 'I' for Inactive)
REMARK    1  A    between atoms: C_10  and  C_11
REMARK    2  A    between atoms: C_10  and  O_27
REMARK    3  A    between atoms: C_11  and  N_12
REMARK    4  A    between atoms: N_15  and  C_16
REMARK    5  A    between atoms: C_19  and  O_23
REMARK    6  A    between atoms: O_23  and  C_24
REMARK                            x       y       z     vdW  Elec       q    Type
REMARK                         _______ _______ _______ _____ _____    ______ ____
ROOT
ATOM      1  N   UNL     1       4.732   1.487   0.593  0.00  0.00    -0.296 N 
ATOM      2  C   UNL     1       5.599   2.306   1.220  0.00  0.00    +0.304 C 
ATOM      3  O   UNL     1       6.159   1.938   2.235  0.00  0.00    -0.253 OA
ATOM      4  N   UNL     1       5.846   3.534   0.723  0.00  0.00    -0.269 N 
ATOM      5  H   UNL     1       4.286   1.781  -0.216  0.00  0.00    +0.150 HD
ATOM      6  H   UNL     1       5.345   3.857  -0.042  0.00  0.00    +0.156 HD
ENDROOT
BRANCH   4   7
ATOM      7  C   UNL     1       6.827   4.345   1.311  0.00  0.00    +0.038 A 
ATOM      8  C   UNL     1       6.664   5.723   1.337  0.00  0.00    +0.027 A 
ATOM      9  C   UNL     1       7.630   6.522   1.917  0.00  0.00    +0.050 A 
ATOM     10  C   UNL     1       8.763   5.949   2.474  0.00  0.00    +0.162 A 
ATOM     11  C   UNL     1       8.927   4.570   2.448  0.00  0.00    +0.167 A 
ATOM     12  C   UNL     1       7.958   3.769   1.873  0.00  0.00    +0.065 A 
ATOM     13  F   UNL     1      10.031   4.011   2.990  0.00  0.00    -0.202 F 
BRANCH  10  14
ATOM     14  O   UNL     1       9.713   6.736   3.045  0.00  0.00    -0.431 OA
BRANCH  14  15
ATOM     15  C   UNL     1       9.480   8.146   3.035  0.00  0.00    +0.541 C 
ATOM     16  F   UNL     1       9.367   8.591   1.713  0.00  0.00    -0.166 F 
ATOM     17  F   UNL     1       8.295   8.427   3.724  0.00  0.00    -0.166 F 
ENDBRANCH  14  15
ENDBRANCH  10  14
ENDBRANCH   4   7
BRANCH   1  18
ATOM     18  C   UNL     1       4.464   0.152   1.134  0.00  0.00    +0.145 C 
BRANCH  18  28
ATOM     19  C   UNL     1       2.882  -4.511   1.803  0.00  0.00    +0.000 A 
ATOM     20  C   UNL     1       2.873  -3.392   2.614  0.00  0.00    +0.000 A 
ATOM     21  C   UNL     1       3.096  -2.146   2.065  0.00  0.00    +0.007 A 
ATOM     22  C   UNL     1       3.332  -2.007   0.703  0.00  0.00    -0.011 A 
ATOM     23  C   UNL     1       3.346  -3.122  -0.104  0.00  0.00    -0.041 A 
ATOM     24  C   UNL     1       3.117  -4.375   0.450  0.00  0.00    +0.004 A 
ATOM     25  C   UNL     1       3.610  -3.048  -1.585  0.00  0.00    +0.035 C 
ATOM     26  C   UNL     1       3.411  -1.622  -2.096  0.00  0.00    +0.008 C 
ATOM     27  C   UNL     1       4.222  -0.672  -1.206  0.00  0.00    +0.041 C 
ATOM     28  C   UNL     1       3.560  -0.617   0.169  0.00  0.00    +0.107 C 
BRANCH  28  29
ATOM     29  O   UNL     1       2.305   0.058   0.061  0.00  0.00    -0.382 OA
ATOM     30  H   UNL     1       1.833   0.147   0.900  0.00  0.00    +0.211 HD
ENDBRANCH  28  29
ENDBRANCH  18  28
ENDBRANCH   1  18
TORSDOF 6
