REMARK  Name = ZINC02290475
REMARK  6 active torsions:
REMARK  status: ('A' for Active; 'I' for Inactive)
REMARK    1  A    between atoms: C_9  and  C_22
REMARK    2  A    between atoms: C_10  and  N_21
REMARK    3  A    between atoms: N_11  and  C_14
REMARK    4  A    between atoms: N_24  and  C_25
REMARK    5  A    between atoms: C_25  and  C_26
REMARK    6  A    between atoms: C_26  and  C_27
REMARK                            x       y       z     vdW  Elec       q    Type
REMARK                         _______ _______ _______ _____ _____    ______ ____
ROOT
ATOM      1  C   UNL     1      -3.326   5.753  -4.633  0.00  0.00    +0.002 A 
ATOM      2  C   UNL     1      -2.082   5.263  -5.028  0.00  0.00    +0.002 A 
ATOM      3  C   UNL     1      -1.371   4.428  -4.223  0.00  0.00    +0.030 A 
ATOM      4  C   UNL     1      -1.893   4.049  -2.972  0.00  0.00    +0.092 A 
ATOM      5  C   UNL     1      -3.157   4.548  -2.570  0.00  0.00    +0.090 A 
ATOM      6  C   UNL     1      -3.862   5.410  -3.431  0.00  0.00    +0.030 A 
ATOM      7  N   UNL     1      -3.675   4.204  -1.386  0.00  0.00    -0.241 NA
ATOM      8  C   UNL     1      -3.002   3.395  -0.592  0.00  0.00    +0.123 A 
ATOM      9  C   UNL     1      -3.248   2.817   0.740  0.00  0.00    +0.104 A 
ATOM     10  C   UNL     1      -2.142   2.030   1.040  0.00  0.00    +0.117 A 
ATOM     11  N   UNL     1      -1.239   2.070   0.019  0.00  0.00    -0.280 N 
ATOM     12  C   UNL     1      -1.692   2.883  -1.002  0.00  0.00    +0.166 A 
ATOM     13  N   UNL     1      -1.200   3.227  -2.173  0.00  0.00    -0.225 NA
ENDROOT
BRANCH  11  14
ATOM     14  C   UNL     1      -0.017   1.385   0.010  0.00  0.00    +0.052 A 
ATOM     15  C   UNL     1       0.002  -0.004   0.002  0.00  0.00    +0.026 A 
ATOM     16  C   UNL     1       1.208  -0.678  -0.013  0.00  0.00    +0.005 A 
ATOM     17  C   UNL     1       2.396   0.028  -0.021  0.00  0.00    +0.038 A 
ATOM     18  C   UNL     1       2.382   1.413  -0.013  0.00  0.00    +0.125 A 
ATOM     19  C   UNL     1       1.177   2.092   0.002  0.00  0.00    +0.064 A 
ATOM     20  F   UNL     1       3.545   2.100  -0.021  0.00  0.00    -0.205 F 
ENDBRANCH  11  14
BRANCH   9  21
ATOM     21  C   UNL     1      -4.424   3.029   1.580  0.00  0.00    +0.250 C 
ATOM     22  O   UNL     1      -4.445   3.948   2.378  0.00  0.00    -0.270 OA
ATOM     23  N   UNL     1      -5.486   2.206   1.472  0.00  0.00    -0.311 N 
ATOM     24  H   UNL     1      -5.470   1.474   0.837  0.00  0.00    +0.149 HD
BRANCH  23  25
ATOM     25  C   UNL     1      -6.666   2.418   2.315  0.00  0.00    +0.109 C 
BRANCH  25  26
ATOM     26  C   UNL     1      -7.718   1.355   1.996  0.00  0.00    +0.049 C 
BRANCH  26  27
ATOM     27  C   UNL     1      -8.931   1.573   2.863  0.00  0.00    -0.072 C 
ATOM     28  C   UNL     1      -9.911   2.263   2.374  0.00  0.00    -0.028 C 
ATOM     29  C   UNL     1     -11.177   2.571   3.119  0.00  0.00    +0.027 C 
ATOM     30  C   UNL     1     -11.325   1.631   4.318  0.00  0.00    +0.004 C 
ATOM     31  C   UNL     1     -10.008   1.635   5.103  0.00  0.00    +0.005 C 
ATOM     32  C   UNL     1      -8.931   0.971   4.238  0.00  0.00    +0.030 C 
ENDBRANCH  26  27
ENDBRANCH  25  26
ENDBRANCH  23  25
ENDBRANCH   9  21
BRANCH  10  33
ATOM     33  N   UNL     1      -1.981   1.316   2.198  0.00  0.00    -0.343 N 
ATOM     34  H   UNL     1      -1.179   0.789   2.336  0.00  0.00    +0.144 HD
ATOM     35  H   UNL     1      -2.670   1.338   2.881  0.00  0.00    +0.144 HD
ENDBRANCH  10  33
TORSDOF 6
