REMARK  Name = ZINC66122804
REMARK  8 active torsions:
REMARK  status: ('A' for Active; 'I' for Inactive)
REMARK    1  A    between atoms: C_1  and  C_2
REMARK    2  A    between atoms: C_2  and  C_3
REMARK    3  A    between atoms: C_2  and  C_4
REMARK    4  A    between atoms: C_9  and  N_10
REMARK    5  A    between atoms: N_10  and  C_11
REMARK    6  A    between atoms: C_11  and  N_13
REMARK    7  A    between atoms: N_13  and  N_14
REMARK    8  A    between atoms: C_15  and  C_17
REMARK                            x       y       z     vdW  Elec       q    Type
REMARK                         _______ _______ _______ _____ _____    ______ ____
ROOT
ATOM      1  N   UNL     1       0.765  -2.015  -4.124  0.00  0.00    -0.231 N 
ATOM      2  C   UNL     1       1.623  -2.330  -5.115  0.00  0.00    +0.265 C 
ATOM      3  O   UNL     1       1.235  -2.968  -6.075  0.00  0.00    -0.268 OA
ATOM      4  H   UNL     1       1.088  -1.569  -3.325  0.00  0.00    +0.173 HD
ENDROOT
BRANCH   2   5
ATOM      5  C   UNL     1       3.029  -1.902  -5.034  0.00  0.00    +0.103 A 
ATOM      6  C   UNL     1       3.887  -2.115  -6.098  0.00  0.00    +0.028 A 
ATOM      7  C   UNL     1       5.234  -1.693  -5.990  0.00  0.00    -0.001 A 
ATOM      8  C   UNL     1       6.127  -1.896  -7.055  0.00  0.00    +0.010 A 
ATOM      9  C   UNL     1       7.423  -1.485  -6.942  0.00  0.00    +0.001 A 
ATOM     10  C   UNL     1       7.870  -0.866  -5.782  0.00  0.00    +0.002 A 
ATOM     11  C   UNL     1       7.013  -0.656  -4.724  0.00  0.00    +0.026 A 
ATOM     12  C   UNL     1       5.685  -1.065  -4.813  0.00  0.00    +0.049 A 
ATOM     13  N   UNL     1       4.824  -0.856  -3.757  0.00  0.00    -0.321 N 
ATOM     14  H   UNL     1       5.150  -0.422  -2.953  0.00  0.00    +0.169 HD
ATOM     15  C   UNL     1       3.536  -1.239  -3.827  0.00  0.00    +0.261 A 
ATOM     16  O   UNL     1       2.790  -1.040  -2.885  0.00  0.00    -0.267 OA
ENDBRANCH   2   5
BRANCH   1  17
ATOM     17  N   UNL     1      -0.595  -2.330  -4.248  0.00  0.00    -0.245 N 
ATOM     18  H   UNL     1      -0.919  -2.775  -5.047  0.00  0.00    +0.172 HD
BRANCH  17  19
ATOM     19  C   UNL     1      -1.453  -2.015  -3.258  0.00  0.00    +0.151 C 
ATOM     20  S   UNL     1      -3.114  -2.400  -3.409  0.00  0.00    -0.017 S 
BRANCH  19  21
ATOM     21  N   UNL     1      -1.003  -1.396  -2.148  0.00  0.00    -0.296 N 
ATOM     22  H   UNL     1      -0.078  -1.110  -2.094  0.00  0.00    +0.154 HD
BRANCH  21  28
ATOM     23  C   UNL     1      -1.437  -1.379   0.228  0.00  0.00    -0.024 A 
ATOM     24  C   UNL     1      -2.294  -1.146   1.286  0.00  0.00    +0.006 A 
ATOM     25  C   UNL     1      -3.584  -0.708   1.049  0.00  0.00    +0.000 A 
ATOM     26  C   UNL     1      -4.020  -0.501  -0.247  0.00  0.00    +0.002 A 
ATOM     27  C   UNL     1      -3.168  -0.732  -1.309  0.00  0.00    +0.023 A 
ATOM     28  C   UNL     1      -1.870  -1.167  -1.075  0.00  0.00    +0.036 A 
BRANCH  23  30
ATOM     29  C   UNL     1       0.744  -0.775   1.241  0.00  0.00    +0.012 C 
ATOM     30  C   UNL     1      -0.032  -1.857   0.487  0.00  0.00    +0.015 C 
ATOM     31  C   UNL     1      -0.074  -3.134   1.328  0.00  0.00    +0.012 C 
ENDBRANCH  23  30
ENDBRANCH  21  28
ENDBRANCH  19  21
ENDBRANCH  17  19
ENDBRANCH   1  17
TORSDOF 6
