REMARK  Name = ZINC01197107
REMARK  4 active torsions:
REMARK  status: ('A' for Active; 'I' for Inactive)
REMARK    1  A    between atoms: C_6  and  C_11
REMARK    2  A    between atoms: C_13  and  C_17
REMARK    3  A    between atoms: N_19  and  N_20
REMARK    4  A    between atoms: C_21  and  C_22
REMARK                            x       y       z     vdW  Elec       q    Type
REMARK                         _______ _______ _______ _____ _____    ______ ____
ROOT
ATOM      1  C   UNL     1       4.831   4.024  -0.025  0.00  0.00    +0.093 A 
ATOM      2  C   UNL     1       6.124   3.480  -0.139  0.00  0.00    +0.062 A 
ATOM      3  C   UNL     1       6.980   4.564  -0.100  0.00  0.00    +0.122 A 
ATOM      4  N   UNL     1       6.194   5.674   0.032  0.00  0.00    -0.272 N 
ATOM      5  H   UNL     1       6.531   6.613   0.092  0.00  0.00    +0.189 HD
ATOM      6  N   UNL     1       4.957   5.331   0.068  0.00  0.00    -0.173 NA
ENDROOT
BRANCH   1  12
ATOM      7  C   UNL     1      -1.199   1.743   0.017  0.00  0.00    +0.001 A 
ATOM      8  C   UNL     1      -1.238   3.136   0.031  0.00  0.00    +0.001 A 
ATOM      9  C   UNL     1      -0.092   3.870   0.024  0.00  0.00    +0.008 A 
ATOM     10  C   UNL     1       1.153   3.215   0.009  0.00  0.00    -0.017 A 
ATOM     11  C   UNL     1       2.354   3.941  -0.000  0.00  0.00    +0.018 A 
ATOM     12  C   UNL     1       3.558   3.262  -0.016  0.00  0.00    +0.003 A 
ATOM     13  C   UNL     1       3.586   1.858  -0.023  0.00  0.00    +0.011 A 
ATOM     14  C   UNL     1       2.435   1.138  -0.016  0.00  0.00    +0.009 A 
ATOM     15  C   UNL     1       1.193   1.798   0.000  0.00  0.00    -0.018 A 
ATOM     16  C   UNL     1      -0.013   1.076   0.008  0.00  0.00    +0.008 A 
ENDBRANCH   1  12
BRANCH   3  17
ATOM     17  C   UNL     1       8.449   4.530  -0.183  0.00  0.00    +0.281 C 
ATOM     18  O   UNL     1       9.027   3.466  -0.299  0.00  0.00    -0.267 OA
ATOM     19  N   UNL     1       9.154   5.678  -0.130  0.00  0.00    -0.202 N 
ATOM     20  H   UNL     1       8.693   6.526  -0.037  0.00  0.00    +0.178 HD
BRANCH  19  21
ATOM     21  N   UNL     1      10.552   5.646  -0.209  0.00  0.00    -0.187 NA
ATOM     22  C   UNL     1      11.231   6.751  -0.158  0.00  0.00    +0.138 C 
BRANCH  22  23
ATOM     23  C   UNL     1      12.702   6.717  -0.241  0.00  0.00    -0.005 A 
ATOM     24  C   UNL     1      13.370   5.496  -0.369  0.00  0.00    +0.010 A 
ATOM     25  C   UNL     1      14.746   5.472  -0.452  0.00  0.00    +0.016 A 
ATOM     26  C   UNL     1      15.467   6.653  -0.397  0.00  0.00    +0.018 A 
ATOM     27  C   UNL     1      14.812   7.865  -0.266  0.00  0.00    +0.016 A 
ATOM     28  C   UNL     1      13.436   7.904  -0.187  0.00  0.00    +0.010 A 
ATOM     29 BR   UNL     1      17.355   6.609  -0.504  0.00  0.00    -0.050 Br
ENDBRANCH  22  23
ENDBRANCH  19  21
ENDBRANCH   3  17
TORSDOF 4
