REMARK  Name = ZINC66672345
REMARK  8 active torsions:
REMARK  status: ('A' for Active; 'I' for Inactive)
REMARK    1  A    between atoms: C_1  and  C_2
REMARK    2  A    between atoms: C_2  and  C_3
REMARK    3  A    between atoms: C_3  and  C_4
REMARK    4  A    between atoms: C_4  and  C_5
REMARK    5  A    between atoms: C_5  and  C_7
REMARK    6  A    between atoms: C_5  and  N_26
REMARK    7  A    between atoms: N_9  and  C_10
REMARK    8  A    between atoms: N_14  and  C_15
REMARK                            x       y       z     vdW  Elec       q    Type
REMARK                         _______ _______ _______ _____ _____    ______ ____
ROOT
ATOM      1  C   UNL     1       1.584  -4.021  -2.473  0.00  0.00    +0.239 C 
ATOM      2  O   UNL     1       0.810  -4.718  -3.095  0.00  0.00    -0.273 OA
ATOM      3  N   UNL     1       2.559  -4.589  -1.736  0.00  0.00    -0.269 N 
ATOM      4  H   UNL     1       3.179  -4.032  -1.239  0.00  0.00    +0.156 HD
ENDROOT
BRANCH   3   5
ATOM      5  C   UNL     1       2.679  -5.978  -1.689  0.00  0.00    +0.124 A 
ATOM      6  C   UNL     1       1.888  -6.876  -2.338  0.00  0.00    +0.065 A 
ATOM      7  C   UNL     1       2.347  -8.157  -2.022  0.00  0.00    +0.136 A 
ATOM      8  N   UNL     1       3.372  -8.040  -1.217  0.00  0.00    -0.177 NA
ATOM      9  N   UNL     1       3.605  -6.677  -0.995  0.00  0.00    -0.243 N 
BRANCH   9  10
ATOM     10  C   UNL     1       4.664  -6.109  -0.156  0.00  0.00    +0.139 C 
ATOM     11  C   UNL     1       4.487  -6.601   1.280  0.00  0.00    +0.032 C 
ATOM     12  C   UNL     1       5.717  -6.178   2.091  0.00  0.00    +0.007 C 
ATOM     13  C   UNL     1       6.913  -7.000   1.616  0.00  0.00    +0.035 C 
ATOM     14  C   UNL     1       7.040  -6.934   0.116  0.00  0.00    -0.042 A 
ATOM     15  C   UNL     1       6.005  -6.529  -0.697  0.00  0.00    -0.020 A 
ATOM     16  C   UNL     1       6.186  -6.497  -2.073  0.00  0.00    +0.006 A 
ATOM     17  C   UNL     1       7.393  -6.865  -2.631  0.00  0.00    +0.000 A 
ATOM     18  C   UNL     1       8.432  -7.268  -1.813  0.00  0.00    +0.000 A 
ATOM     19  C   UNL     1       8.255  -7.301  -0.447  0.00  0.00    +0.004 A 
ENDBRANCH   9  10
ENDBRANCH   3   5
BRANCH   1  20
ATOM     20  C   UNL     1       1.455  -2.521  -2.524  0.00  0.00    +0.161 C 
BRANCH  20  21
ATOM     21  N   UNL     1       0.682  -2.137  -3.708  0.00  0.00    -0.288 N 
ATOM     22  C   UNL     1      -0.583  -2.578  -3.859  0.00  0.00    +0.298 C 
ATOM     23  O   UNL     1      -1.082  -3.294  -3.012  0.00  0.00    -0.253 OA
ATOM     24  N   UNL     1      -1.294  -2.225  -4.948  0.00  0.00    -0.313 N 
ATOM     25  H   UNL     1       1.080  -1.566  -4.383  0.00  0.00    +0.151 HD
ATOM     26  H   UNL     1      -0.896  -1.654  -5.623  0.00  0.00    +0.146 HD
ATOM     27  H   UNL     1      -2.204  -2.542  -5.056  0.00  0.00    +0.146 HD
ENDBRANCH  20  21
BRANCH  20  28
ATOM     28  C   UNL     1       0.739  -2.027  -1.265  0.00  0.00    +0.032 C 
BRANCH  28  29
ATOM     29  C   UNL     1       0.718  -0.497  -1.257  0.00  0.00    +0.002 C 
BRANCH  29  31
ATOM     30  C   UNL     1      -0.019   1.526   0.010  0.00  0.00    +0.004 C 
ATOM     31  C   UNL     1       0.002  -0.004   0.002  0.00  0.00    -0.003 C 
ENDBRANCH  29  31
ENDBRANCH  28  29
ENDBRANCH  20  28
ENDBRANCH   1  20
TORSDOF 7
