REMARK  Name = ZINC11786925
REMARK  10 active torsions:
REMARK  status: ('A' for Active; 'I' for Inactive)
REMARK    1  A    between atoms: C_1  and  C_2
REMARK    2  A    between atoms: C_2  and  C_3
REMARK    3  A    between atoms: C_3  and  C_22
REMARK    4  A    between atoms: N_6  and  C_10
REMARK    5  A    between atoms: C_10  and  C_11
REMARK    6  A    between atoms: C_27  and  C_28
REMARK    7  A    between atoms: C_27  and  N_66
REMARK    8  A    between atoms: C_28  and  C_29
REMARK    9  A    between atoms: C_29  and  C_30
REMARK   10  A    between atoms: C_29  and  C_31
REMARK                            x       y       z     vdW  Elec       q    Type
REMARK                         _______ _______ _______ _____ _____    ______ ____
ROOT
ATOM      1  C   UNL     1      -1.829   3.250   4.976  0.00  0.00    +0.115 C 
ATOM      2  C   UNL     1      -3.220   2.663   4.838  0.00  0.00    +0.247 C 
ATOM      3  O   UNL     1      -4.016   2.868   3.947  0.00  0.00    -0.273 OA
ATOM      4  N   UNL     1      -3.385   1.866   5.916  0.00  0.00    -0.221 N 
ATOM      5  C   UNL     1      -2.304   1.872   6.705  0.00  0.00    +0.309 C 
ATOM      6  O   UNL     1      -2.216   1.233   7.735  0.00  0.00    -0.252 OA
ATOM      7  N   UNL     1      -1.326   2.665   6.231  0.00  0.00    -0.285 N 
ATOM      8  H   UNL     1      -0.459   2.821   6.636  0.00  0.00    +0.151 HD
ENDROOT
BRANCH   1   9
ATOM      9  C   UNL     1      -0.950   2.833   3.797  0.00  0.00    +0.018 C 
ATOM     10  C   UNL     1      -0.998   1.311   3.635  0.00  0.00    -0.013 C 
ATOM     11  C   UNL     1      -0.165   0.905   2.417  0.00  0.00    -0.078 C 
ATOM     12  C   UNL     1      -0.620   3.022   1.329  0.00  0.00    -0.078 C 
ATOM     13  C   UNL     1      -1.466   3.491   2.514  0.00  0.00    -0.013 C 
ATOM     14  N   UNL     1      -0.729   1.552   1.213  0.00  0.00    +0.380 N 
ATOM     15  H   UNL     1      -1.720   1.296   1.131  0.00  0.00    -0.082 HD
BRANCH  14  16
ATOM     16  C   UNL     1      -0.013   1.086   0.008  0.00  0.00    -0.079 C 
BRANCH  16  17
ATOM     17  C   UNL     1      -0.753   1.593  -1.232  0.00  0.00    -0.016 C 
BRANCH  17  18
ATOM     18  C   UNL     1      -0.037   1.099  -2.490  0.00  0.00    -0.019 C 
ATOM     19  C   UNL     1      -0.124  -0.427  -2.562  0.00  0.00    +0.007 C 
ATOM     20  C   UNL     1      -0.702   1.707  -3.727  0.00  0.00    +0.007 C 
ENDBRANCH  17  18
ENDBRANCH  16  17
ENDBRANCH  14  16
ENDBRANCH   1   9
BRANCH   1  22
ATOM     21  C   UNL     1      -2.677   5.165   6.339  0.00  0.00    +0.006 C 
ATOM     22  C   UNL     1      -1.897   4.775   5.083  0.00  0.00    +0.032 C 
ENDBRANCH   1  22
BRANCH   4  23
ATOM     23  C   UNL     1      -4.598   1.091   6.188  0.00  0.00    +0.166 C 
BRANCH  23  24
ATOM     24  C   UNL     1      -5.566   1.934   7.021  0.00  0.00    +0.229 C 
ATOM     25  C   UNL     1      -6.826   1.116   7.335  0.00  0.00    +0.275 C 
ATOM     26  O   UNL     1      -7.702   1.928   8.124  0.00  0.00    -0.485 OA
ATOM     27  C   UNL     1      -7.140   2.601   9.165  0.00  0.00    +0.162 A 
ATOM     28  C   UNL     1      -7.954   3.107  10.168  0.00  0.00    +0.049 A 
ATOM     29  C   UNL     1      -7.398   3.799  11.227  0.00  0.00    +0.004 A 
ATOM     30  C   UNL     1      -6.030   3.989  11.291  0.00  0.00    +0.004 A 
ATOM     31  C   UNL     1      -5.213   3.485  10.296  0.00  0.00    +0.049 A 
ATOM     32  C   UNL     1      -5.764   2.789   9.231  0.00  0.00    +0.163 A 
ATOM     33  O   UNL     1      -4.947   2.297   8.260  0.00  0.00    -0.480 OA
ENDBRANCH  23  24
ENDBRANCH   4  23
TORSDOF 7
