REMARK  Name = ZINC08409639
REMARK  10 active torsions:
REMARK  status: ('A' for Active; 'I' for Inactive)
REMARK    1  A    between atoms: C_1  and  C_2
REMARK    2  A    between atoms: C_2  and  C_3
REMARK    3  A    between atoms: C_2  and  C_4
REMARK    4  A    between atoms: C_7  and  N_10
REMARK    5  A    between atoms: C_14  and  S_15
REMARK    6  A    between atoms: S_15  and  C_16
REMARK    7  A    between atoms: C_16  and  C_18
REMARK    8  A    between atoms: C_16  and  C_21
REMARK    9  A    between atoms: C_18  and  C_19
REMARK   10  A    between atoms: C_18  and  C_20
REMARK                            x       y       z     vdW  Elec       q    Type
REMARK                         _______ _______ _______ _____ _____    ______ ____
ROOT
ATOM      1  N   UNL     1      -5.337  -2.109   0.029  0.00  0.00    -0.295 N 
ATOM      2  C   UNL     1      -6.016  -2.657   1.096  0.00  0.00    +0.113 A 
ATOM      3  C   UNL     1      -7.288  -2.838   0.700  0.00  0.00    +0.131 A 
ATOM      4  N   UNL     1      -7.400  -2.417  -0.572  0.00  0.00    -0.230 NA
ATOM      5  C   UNL     1      -6.237  -1.970  -0.986  0.00  0.00    +0.174 A 
ENDROOT
BRANCH   1   9
ATOM      6  C   UNL     1      -1.304  -1.058  -0.068  0.00  0.00    -0.045 A 
ATOM      7  C   UNL     1      -2.103  -0.633   0.977  0.00  0.00    +0.006 A 
ATOM      8  C   UNL     1      -3.439  -0.979   1.012  0.00  0.00    +0.026 A 
ATOM      9  C   UNL     1      -3.981  -1.755  -0.004  0.00  0.00    +0.048 A 
ATOM     10  C   UNL     1      -3.176  -2.181  -1.052  0.00  0.00    +0.026 A 
ATOM     11  C   UNL     1      -1.841  -1.827  -1.084  0.00  0.00    +0.006 A 
BRANCH   6  13
ATOM     12  C   UNL     1       0.284   0.846  -0.128  0.00  0.00    +0.012 C 
ATOM     13  C   UNL     1       0.154  -0.679  -0.103  0.00  0.00    +0.013 C 
ATOM     14  C   UNL     1       0.855  -1.230   1.140  0.00  0.00    +0.012 C 
ENDBRANCH   6  13
ENDBRANCH   1   9
BRANCH   5  15
ATOM     15  S   UNL     1      -5.896  -1.309  -2.583  0.00  0.00    -0.074 S 
BRANCH  15  16
ATOM     16  C   UNL     1      -7.449  -1.536  -3.493  0.00  0.00    +0.143 C 
BRANCH  16  17
ATOM     17  C   UNL     1      -8.510  -0.641  -2.907  0.00  0.00    +0.234 C 
ATOM     18  O   UNL     1      -8.192   0.368  -2.314  0.00  0.00    -0.274 OA
ATOM     19  N   UNL     1      -9.812  -0.963  -3.041  0.00  0.00    -0.239 N 
ATOM     20  C   UNL     1     -10.761  -0.162  -2.516  0.00  0.00    +0.303 C 
ATOM     21  O   UNL     1     -10.443   0.849  -1.922  0.00  0.00    -0.253 OA
ATOM     22  N   UNL     1     -12.063  -0.483  -2.650  0.00  0.00    -0.313 N 
ATOM     23  H   UNL     1     -10.066  -1.770  -3.514  0.00  0.00    +0.159 HD
ATOM     24  H   UNL     1     -12.317  -1.291  -3.123  0.00  0.00    +0.146 HD
ATOM     25  H   UNL     1     -12.746   0.093  -2.272  0.00  0.00    +0.146 HD
ENDBRANCH  16  17
BRANCH  16  26
ATOM     26  C   UNL     1      -7.235  -1.177  -4.965  0.00  0.00    +0.005 C 
ATOM     27  C   UNL     1      -6.664   0.239  -5.066  0.00  0.00    +0.009 C 
ATOM     28  C   UNL     1      -6.255  -2.169  -5.595  0.00  0.00    +0.009 C 
ENDBRANCH  16  26
ENDBRANCH  15  16
ENDBRANCH   5  15
TORSDOF 6
