REMARK  Name = ZINC38649189
REMARK  8 active torsions:
REMARK  status: ('A' for Active; 'I' for Inactive)
REMARK    1  A    between atoms: C_1  and  C_2
REMARK    2  A    between atoms: C_5  and  C_8
REMARK    3  A    between atoms: C_13  and  O_22
REMARK    4  A    between atoms: C_17  and  N_21
REMARK    5  A    between atoms: C_18  and  C_19
REMARK    6  A    between atoms: O_22  and  C_23
REMARK    7  A    between atoms: C_23  and  C_25
REMARK    8  A    between atoms: C_26  and  C_27
REMARK                            x       y       z     vdW  Elec       q    Type
REMARK                         _______ _______ _______ _____ _____    ______ ____
ROOT
ATOM      1  C   UNL     1       0.086  -4.289  -0.080  0.00  0.00    +0.098 C 
ATOM      2  C   UNL     1       1.324  -4.771   0.630  0.00  0.00    +0.008 A 
ATOM      3  C   UNL     1       2.529  -4.804  -0.049  0.00  0.00    +0.012 A 
ATOM      4  C   UNL     1       3.673  -5.244   0.586  0.00  0.00    +0.047 A 
ATOM      5  C   UNL     1       3.618  -5.654   1.911  0.00  0.00    +0.135 A 
ATOM      6  C   UNL     1       2.413  -5.621   2.594  0.00  0.00    +0.093 A 
ATOM      7  C   UNL     1       1.263  -5.178   1.954  0.00  0.00    +0.138 A 
ATOM      8  O   UNL     1       0.091  -5.152   2.636  0.00  0.00    -0.441 OA
ATOM      9  C   UNL     1      -1.073  -5.109   1.968  0.00  0.00    +0.199 C 
ATOM     10  C   UNL     1      -1.141  -4.708   0.679  0.00  0.00    +0.098 C 
ENDROOT
BRANCH   1  15
ATOM     11  C   UNL     1       0.219   1.476  -0.463  0.00  0.00    +0.044 C 
ATOM     12  C   UNL     1       0.184  -0.028  -0.363  0.00  0.00    -0.050 A 
ATOM     13  C   UNL     1       0.143  -0.796  -1.511  0.00  0.00    +0.003 A 
ATOM     14  C   UNL     1       0.112  -2.175  -1.420  0.00  0.00    +0.005 A 
ATOM     15  C   UNL     1       0.122  -2.785  -0.179  0.00  0.00    -0.035 A 
ATOM     16  C   UNL     1       0.164  -2.017   0.969  0.00  0.00    +0.005 A 
ATOM     17  C   UNL     1       0.200  -0.638   0.877  0.00  0.00    +0.003 A 
ENDBRANCH   1  15
BRANCH   9  18
ATOM     18  N   UNL     1      -2.226  -5.482   2.613  0.00  0.00    -0.328 N 
ATOM     19  H   UNL     1      -2.192  -5.772   3.538  0.00  0.00    +0.145 HD
ATOM     20  H   UNL     1      -3.074  -5.457   2.143  0.00  0.00    +0.145 HD
ENDBRANCH   9  18
BRANCH  10  21
ATOM     21  C   UNL     1      -2.414  -4.684   0.024  0.00  0.00    +0.101 C 
ATOM     22  N   UNL     1      -3.424  -4.665  -0.497  0.00  0.00    -0.191 NA
ENDBRANCH  10  21
BRANCH   5  23
ATOM     23  O   UNL     1       4.744  -6.088   2.537  0.00  0.00    -0.423 OA
BRANCH  23  24
ATOM     24  C   UNL     1       5.707  -5.182   2.808  0.00  0.00    +0.337 C 
ATOM     25  O   UNL     1       5.511  -4.002   2.588  0.00  0.00    -0.245 OA
BRANCH  24  26
ATOM     26  C   UNL     1       6.985  -5.619   3.364  0.00  0.00    +0.092 C 
ATOM     27  C   UNL     1       7.949  -4.713   3.635  0.00  0.00    +0.016 C 
BRANCH  27  28
ATOM     28  C   UNL     1       9.235  -5.153   4.195  0.00  0.00    -0.006 A 
ATOM     29  C   UNL     1       9.467  -6.511   4.443  0.00  0.00    +0.011 A 
ATOM     30  C   UNL     1      10.675  -6.916   4.968  0.00  0.00    +0.020 A 
ATOM     31  C   UNL     1      11.660  -5.983   5.250  0.00  0.00    +0.042 A 
ATOM     32  C   UNL     1      11.439  -4.637   5.008  0.00  0.00    +0.040 A 
ATOM     33  C   UNL     1      10.237  -4.216   4.478  0.00  0.00    +0.049 A 
ATOM     34 CL   UNL     1       9.964  -2.530   4.168  0.00  0.00    -0.083 Cl
ATOM     35 CL   UNL     1      13.178  -6.504   5.911  0.00  0.00    -0.083 Cl
ENDBRANCH  27  28
ENDBRANCH  24  26
ENDBRANCH  23  24
ENDBRANCH   5  23
TORSDOF 7
