REMARK  Name = ZINC02277879
REMARK  8 active torsions:
REMARK  status: ('A' for Active; 'I' for Inactive)
REMARK    1  A    between atoms: C_4  and  C_7
REMARK    2  A    between atoms: C_7  and  N_40
REMARK    3  A    between atoms: C_8  and  C_10
REMARK    4  A    between atoms: C_8  and  N_14
REMARK    5  A    between atoms: C_8  and  N_40
REMARK    6  A    between atoms: C_15  and  C_17
REMARK    7  A    between atoms: C_19  and  N_26
REMARK    8  A    between atoms: C_21  and  N_23
REMARK                            x       y       z     vdW  Elec       q    Type
REMARK                         _______ _______ _______ _____ _____    ______ ____
ROOT
ATOM      1  N   UNL     1       5.168  -3.051  -1.862  0.00  0.00    -0.321 N 
ATOM      2  C   UNL     1       5.250  -4.022  -0.932  0.00  0.00    +0.243 C 
ATOM      3  O   UNL     1       5.520  -3.741   0.219  0.00  0.00    -0.270 OA
ATOM      4  H   UNL     1       4.952  -3.276  -2.781  0.00  0.00    +0.147 HD
ENDROOT
BRANCH   2   5
ATOM      5  C   UNL     1       5.010  -5.431  -1.311  0.00  0.00    +0.041 A 
ATOM      6  C   UNL     1       4.694  -5.758  -2.631  0.00  0.00    +0.046 A 
ATOM      7  C   UNL     1       4.476  -7.075  -2.979  0.00  0.00    +0.129 A 
ATOM      8  C   UNL     1       4.561  -8.070  -2.022  0.00  0.00    +0.065 A 
ATOM      9  C   UNL     1       4.869  -7.752  -0.711  0.00  0.00    +0.129 A 
ATOM     10  C   UNL     1       5.094  -6.440  -0.350  0.00  0.00    +0.046 A 
BRANCH   9  11
ATOM     11  N   UNL     1       4.957  -8.823   0.307  0.00  0.00    +0.057 N 
ATOM     12  O   UNL     1       5.228  -8.545   1.462  0.00  0.00    -0.126 OA
ATOM     13  O   UNL     1       4.758  -9.982  -0.009  0.00  0.00    -0.126 OA
ENDBRANCH   9  11
BRANCH   7  14
ATOM     14  N   UNL     1       4.147  -7.423  -4.379  0.00  0.00    +0.057 N 
ATOM     15  O   UNL     1       3.950  -8.585  -4.688  0.00  0.00    -0.126 OA
ATOM     16  O   UNL     1       4.072  -6.548  -5.223  0.00  0.00    -0.126 OA
ENDBRANCH   7  14
ENDBRANCH   2   5
BRANCH   1  17
ATOM     17  C   UNL     1       5.405  -1.655  -1.486  0.00  0.00    +0.068 C 
BRANCH  17  18
ATOM     18  C   UNL     1       6.314  -0.994  -2.525  0.00  0.00    +0.194 C 
ATOM     19 CL   UNL     1       6.606   0.724  -2.062  0.00  0.00    -0.084 Cl
ATOM     20 CL   UNL     1       7.886  -1.874  -2.594  0.00  0.00    -0.084 Cl
ATOM     21 CL   UNL     1       5.520  -1.054  -4.143  0.00  0.00    -0.084 Cl
ENDBRANCH  17  18
BRANCH  17  22
ATOM     22  N   UNL     1       4.119  -0.935  -1.438  0.00  0.00    +0.397 N 
ATOM     23  H   UNL     1       4.219  -0.031  -1.914  0.00  0.00    -0.083 HD
ATOM     24  H   UNL     1       3.400  -1.494  -1.914  0.00  0.00    -0.083 HD
BRANCH  22  25
ATOM     25  C   UNL     1       3.711  -0.707  -0.039  0.00  0.00    -0.044 C 
BRANCH  25  29
ATOM     26  C   UNL     1      -0.017   1.378   0.010  0.00  0.00    +0.000 A 
ATOM     27  C   UNL     1       1.171   2.086   0.002  0.00  0.00    +0.000 A 
ATOM     28  C   UNL     1       2.377   1.411  -0.014  0.00  0.00    +0.002 A 
ATOM     29  C   UNL     1       2.396   0.029  -0.022  0.00  0.00    -0.064 A 
ATOM     30  C   UNL     1       1.208  -0.679  -0.014  0.00  0.00    +0.002 A 
ATOM     31  C   UNL     1       0.002  -0.004   0.002  0.00  0.00    +0.000 A 
ENDBRANCH  25  29
ENDBRANCH  22  25
ENDBRANCH  17  22
ENDBRANCH   1  17
TORSDOF 8
