REMARK  Name = ZINC00818633
REMARK  12 active torsions:
REMARK  status: ('A' for Active; 'I' for Inactive)
REMARK    1  A    between atoms: C_1  and  C_2
REMARK    2  A    between atoms: C_2  and  O_3
REMARK    3  A    between atoms: O_3  and  C_4
REMARK    4  A    between atoms: C_6  and  C_30
REMARK    5  A    between atoms: C_7  and  C_13
REMARK    6  A    between atoms: C_9  and  C_10
REMARK    7  A    between atoms: C_10  and  C_11
REMARK    8  A    between atoms: C_10  and  C_12
REMARK    9  A    between atoms: C_15  and  C_28
REMARK   10  A    between atoms: C_16  and  N_27
REMARK   11  A    between atoms: C_23  and  C_25
REMARK   12  A    between atoms: C_23  and  C_26
REMARK                            x       y       z     vdW  Elec       q    Type
REMARK                         _______ _______ _______ _____ _____    ______ ____
ROOT
ATOM      1  C   UNL     1       3.703  -0.639  -0.481  0.00  0.00    +0.101 C 
ATOM      2  C   UNL     1       4.652  -0.336   0.645  0.00  0.00    +0.098 C 
ATOM      3  C   UNL     1       5.635   0.583   0.484  0.00  0.00    +0.198 C 
ATOM      4  O   UNL     1       5.788   1.248  -0.671  0.00  0.00    -0.445 OA
ATOM      5  C   UNL     1       5.285   0.735  -1.810  0.00  0.00    +0.115 C 
ATOM      6  C   UNL     1       4.286  -0.162  -1.789  0.00  0.00    +0.046 C 
ATOM      7  C   UNL     1       3.748  -0.689  -2.983  0.00  0.00    +0.164 C 
ATOM      8  O   UNL     1       2.854  -1.509  -2.924  0.00  0.00    -0.292 OA
ATOM      9  C   UNL     1       4.263  -0.252  -4.327  0.00  0.00    +0.086 C 
ATOM     10  C   UNL     1       4.808   1.175  -4.210  0.00  0.00    -0.021 C 
ATOM     11  C   UNL     1       5.881   1.196  -3.119  0.00  0.00    +0.081 C 
ATOM     12  C   UNL     1       3.673   2.130  -3.832  0.00  0.00    +0.012 C 
ATOM     13  C   UNL     1       5.421   1.608  -5.543  0.00  0.00    +0.012 C 
ENDROOT
BRANCH   1  17
ATOM     14  C   UNL     1      -0.013   1.351   0.221  0.00  0.00    +0.124 A 
ATOM     15  C   UNL     1       0.046  -0.035   0.234  0.00  0.00    +0.049 A 
ATOM     16  C   UNL     1       1.248  -0.676   0.007  0.00  0.00    -0.043 A 
ATOM     17  C   UNL     1       2.393   0.063  -0.233  0.00  0.00    -0.031 A 
ATOM     18  C   UNL     1       2.336   1.444  -0.246  0.00  0.00    +0.012 A 
ATOM     19  C   UNL     1       1.136   2.090  -0.019  0.00  0.00    -0.003 A 
ATOM     20  C   UNL     1       1.314  -2.182   0.020  0.00  0.00    +0.044 C 
BRANCH  19  21
ATOM     21  C   UNL     1       1.075   3.595  -0.034  0.00  0.00    +0.016 C 
ATOM     22  C   UNL     1       2.004   4.154   1.046  0.00  0.00    +0.012 C 
ATOM     23  C   UNL     1       1.519   4.111  -1.404  0.00  0.00    +0.012 C 
ENDBRANCH  19  21
BRANCH  14  24
ATOM     24  O   UNL     1      -1.196   1.984   0.438  0.00  0.00    -0.492 OA
BRANCH  24  26
ATOM     25  C   UNL     1      -3.569   2.042   0.895  0.00  0.00    +0.048 C 
ATOM     26  C   UNL     1      -2.339   1.159   0.673  0.00  0.00    +0.225 C 
ENDBRANCH  24  26
ENDBRANCH  14  24
ENDBRANCH   1  17
BRANCH   3  27
ATOM     27  N   UNL     1       6.492   0.839   1.526  0.00  0.00    -0.328 N 
ATOM     28  H   UNL     1       6.390   0.364   2.365  0.00  0.00    +0.145 HD
ATOM     29  H   UNL     1       7.199   1.494   1.422  0.00  0.00    +0.145 HD
ENDBRANCH   3  27
BRANCH   2  30
ATOM     30  C   UNL     1       4.516  -1.022   1.894  0.00  0.00    +0.101 C 
ATOM     31  N   UNL     1       4.408  -1.567   2.885  0.00  0.00    -0.191 NA
ENDBRANCH   2  30
TORSDOF 6
