REMARK  Name = ZINC20445686
REMARK  11 active torsions:
REMARK  status: ('A' for Active; 'I' for Inactive)
REMARK    1  A    between atoms: C_1  and  C_2
REMARK    2  A    between atoms: C_2  and  C_3
REMARK    3  A    between atoms: C_3  and  C_4
REMARK    4  A    between atoms: C_10  and  C_27
REMARK    5  A    between atoms: C_12  and  C_15
REMARK    6  A    between atoms: N_17  and  C_18
REMARK    7  A    between atoms: C_21  and  O_24
REMARK    8  A    between atoms: O_24  and  C_25
REMARK    9  A    between atoms: C_25  and  C_26
REMARK   10  A    between atoms: C_30  and  C_33
REMARK   11  A    between atoms: C_33  and  C_34
REMARK                            x       y       z     vdW  Elec       q    Type
REMARK                         _______ _______ _______ _____ _____    ______ ____
ROOT
ATOM      1  C   UNL     1       0.463  -2.138   0.049  0.00  0.00    +0.151 A 
ATOM      2  N   UNL     1      -0.797  -2.010  -0.266  0.00  0.00    -0.132 NA
ATOM      3  N   UNL     1      -1.116  -0.763  -0.321  0.00  0.00    -0.121 NA
ATOM      4  C   UNL     1      -0.071  -0.034  -0.041  0.00  0.00    +0.209 A 
ATOM      5  N   UNL     1       0.974  -0.880   0.198  0.00  0.00    -0.225 N 
ATOM      6  N   UNL     1       2.251  -0.536   0.507  0.00  0.00    -0.272 N 
ATOM      7  C   UNL     1       2.378   0.809   1.071  0.00  0.00    +0.140 C 
ATOM      8  C   UNL     1       1.855   1.857   0.081  0.00  0.00    +0.166 C 
ATOM      9  S   UNL     1       0.042   1.726   0.035  0.00  0.00    -0.069 S 
ATOM     10  H   UNL     1       3.145  -1.162   0.371  0.00  0.00    +0.167 HD
ENDROOT
BRANCH   7  11
ATOM     11  C   UNL     1       3.828   1.088   1.372  0.00  0.00    -0.024 A 
ATOM     12  C   UNL     1       4.810   0.665   0.495  0.00  0.00    +0.006 A 
ATOM     13  C   UNL     1       6.140   0.926   0.769  0.00  0.00    +0.004 A 
ATOM     14  C   UNL     1       6.489   1.599   1.925  0.00  0.00    -0.048 A 
ATOM     15  C   UNL     1       5.507   2.017   2.804  0.00  0.00    +0.004 A 
ATOM     16  C   UNL     1       4.177   1.761   2.528  0.00  0.00    +0.006 A 
BRANCH  14  17
ATOM     17  C   UNL     1       7.939   1.877   2.227  0.00  0.00    +0.032 C 
ATOM     18  C   UNL     1       8.524   0.716   3.031  0.00  0.00    +0.009 C 
ENDBRANCH  14  17
ENDBRANCH   7  11
BRANCH   8  19
ATOM     19  C   UNL     1       2.421   1.591  -1.290  0.00  0.00    +0.233 C 
ATOM     20  O   UNL     1       3.505   2.040  -1.597  0.00  0.00    -0.274 OA
ATOM     21  N   UNL     1       1.722   0.853  -2.176  0.00  0.00    -0.285 N 
ATOM     22  H   UNL     1       0.707   0.510  -1.926  0.00  0.00    +0.155 HD
BRANCH  21  23
ATOM     23  C   UNL     1       2.289   0.521  -3.413  0.00  0.00    +0.034 A 
ATOM     24  C   UNL     1       3.111   1.430  -4.066  0.00  0.00    +0.027 A 
ATOM     25  C   UNL     1       3.673   1.101  -5.284  0.00  0.00    +0.047 A 
ATOM     26  C   UNL     1       3.408  -0.133  -5.860  0.00  0.00    +0.121 A 
ATOM     27  C   UNL     1       2.582  -1.039  -5.211  0.00  0.00    +0.047 A 
ATOM     28  C   UNL     1       2.023  -0.713  -3.991  0.00  0.00    +0.027 A 
BRANCH  26  29
ATOM     29  O   UNL     1       3.957  -0.454  -7.062  0.00  0.00    -0.492 OA
BRANCH  29  30
ATOM     30  C   UNL     1       4.797   0.527  -7.674  0.00  0.00    +0.225 C 
ATOM     31  C   UNL     1       5.319  -0.010  -9.008  0.00  0.00    +0.048 C 
ENDBRANCH  29  30
ENDBRANCH  26  29
ENDBRANCH  21  23
ENDBRANCH   8  19
BRANCH   1  32
ATOM     32  C   UNL     1       1.215  -3.433   0.217  0.00  0.00    +0.078 C 
BRANCH  32  34
ATOM     33  C   UNL     1       1.880  -5.209   1.844  0.00  0.00    +0.004 C 
ATOM     34  C   UNL     1       1.117  -3.894   1.673  0.00  0.00    +0.004 C 
ENDBRANCH  32  34
ENDBRANCH   1  32
TORSDOF 8
