REMARK  Name = ZINC38965829
REMARK  10 active torsions:
REMARK  status: ('A' for Active; 'I' for Inactive)
REMARK    1  A    between atoms: C_1  and  O_2
REMARK    2  A    between atoms: O_2  and  C_3
REMARK    3  A    between atoms: C_6  and  C_11
REMARK    4  A    between atoms: C_8  and  O_9
REMARK    5  A    between atoms: O_9  and  C_10
REMARK    6  A    between atoms: C_11  and  C_12
REMARK    7  A    between atoms: C_12  and  N_13
REMARK    8  A    between atoms: N_13  and  C_14
REMARK    9  A    between atoms: N_17  and  S_18
REMARK   10  A    between atoms: S_18  and  C_21
REMARK                            x       y       z     vdW  Elec       q    Type
REMARK                         _______ _______ _______ _____ _____    ______ ____
ROOT
ATOM      1  C   UNL     1      -7.227  -3.786  -2.764  0.00  0.00    +0.219 C 
ATOM      2  C   UNL     1      -8.659  -3.308  -2.846  0.00  0.00    +0.188 C 
ATOM      3  N   UNL     1      -8.959  -2.073  -2.567  0.00  0.00    -0.110 NA
ATOM      4  N   UNL     1      -9.616  -4.176  -3.210  0.00  0.00    -0.226 NA
ATOM      5  C   UNL     1      -9.337  -5.430  -3.497  0.00  0.00    +0.089 A 
ATOM      6  C   UNL     1     -10.374  -6.320  -3.878  0.00  0.00    +0.030 A 
ATOM      7  C   UNL     1     -10.094  -7.608  -4.173  0.00  0.00    +0.002 A 
ATOM      8  C   UNL     1      -8.792  -8.133  -4.122  0.00  0.00    +0.002 A 
ATOM      9  C   UNL     1      -7.732  -7.372  -3.772  0.00  0.00    +0.027 A 
ATOM     10  C   UNL     1      -7.952  -5.958  -3.435  0.00  0.00    +0.063 A 
ATOM     11  N   UNL     1      -6.954  -5.194  -3.091  0.00  0.00    -0.362 N 
ATOM     12  H   UNL     1      -6.051  -5.546  -3.053  0.00  0.00    +0.162 HD
ENDROOT
BRANCH   3  13
ATOM     13  S   UNL     1     -10.532  -1.562  -2.661  0.00  0.00    +0.100 S 
ATOM     14  O   UNL     1     -10.901  -1.632  -4.031  0.00  0.00    -0.146 OA
ATOM     15  O   UNL     1     -11.244  -2.253  -1.644  0.00  0.00    -0.146 OA
BRANCH  13  16
ATOM     16  C   UNL     1     -10.553   0.143  -2.220  0.00  0.00    +0.114 A 
ATOM     17  C   UNL     1     -10.720   0.513  -0.898  0.00  0.00    +0.029 A 
ATOM     18  C   UNL     1     -10.736   1.851  -0.551  0.00  0.00    +0.003 A 
ATOM     19  C   UNL     1     -10.586   2.820  -1.526  0.00  0.00    +0.020 A 
ATOM     20  C   UNL     1     -10.418   2.451  -2.848  0.00  0.00    +0.043 A 
ATOM     21  C   UNL     1     -10.395   1.111  -3.194  0.00  0.00    +0.049 A 
ATOM     22 CL   UNL     1     -10.228   3.667  -4.072  0.00  0.00    -0.083 Cl
ENDBRANCH  13  16
ENDBRANCH   3  13
BRANCH   1  23
ATOM     23  N   UNL     1      -6.751  -3.543  -1.396  0.00  0.00    -0.290 NA
ATOM     24  H   UNL     1      -6.705  -4.404  -0.871  0.00  0.00    +0.124 HD
BRANCH  23  25
ATOM     25  C   UNL     1      -5.449  -2.862  -1.404  0.00  0.00    +0.088 C 
BRANCH  25  26
ATOM     26  C   UNL     1      -4.987  -2.627   0.035  0.00  0.00    +0.050 C 
BRANCH  26  30
ATOM     27  C   UNL     1      -1.201  -0.638   0.010  0.00  0.00    +0.161 A 
ATOM     28  C   UNL     1      -2.374   0.099   0.019  0.00  0.00    +0.049 A 
ATOM     29  C   UNL     1      -3.596  -0.546   0.027  0.00  0.00    +0.007 A 
ATOM     30  C   UNL     1      -3.652  -1.928   0.026  0.00  0.00    -0.042 A 
ATOM     31  C   UNL     1      -2.485  -2.669   0.017  0.00  0.00    +0.053 A 
ATOM     32  C   UNL     1      -1.257  -2.028   0.003  0.00  0.00    +0.162 A 
BRANCH  27  34
ATOM     33  C   UNL     1      -0.017   1.425   0.010  0.00  0.00    +0.277 C 
ATOM     34  O   UNL     1       0.002  -0.004   0.002  0.00  0.00    -0.491 OA
ENDBRANCH  27  34
BRANCH  32  35
ATOM     35  O   UNL     1      -0.108  -2.756  -0.012  0.00  0.00    -0.491 OA
ATOM     36  C   UNL     1      -0.242  -4.179  -0.018  0.00  0.00    +0.277 C 
ENDBRANCH  32  35
ENDBRANCH  26  30
ENDBRANCH  25  26
ENDBRANCH  23  25
ENDBRANCH   1  23
TORSDOF 8
