REMARK  Name = ZINC09425174
REMARK  16 active torsions:
REMARK  status: ('A' for Active; 'I' for Inactive)
REMARK    1  A    between atoms: C_1  and  C_2
REMARK    2  A    between atoms: C_2  and  N_72
REMARK    3  A    between atoms: C_3  and  C_4
REMARK    4  A    between atoms: C_3  and  N_72
REMARK    5  A    between atoms: C_5  and  C_6
REMARK    6  A    between atoms: C_5  and  N_72
REMARK    7  A    between atoms: C_6  and  C_7
REMARK    8  A    between atoms: C_7  and  N_8
REMARK    9  A    between atoms: C_9  and  C_29
REMARK   10  A    between atoms: C_11  and  C_16
REMARK   11  A    between atoms: C_12  and  O_15
REMARK   12  A    between atoms: C_16  and  C_18
REMARK   13  A    between atoms: C_25  and  C_28
REMARK   14  A    between atoms: C_32  and  O_35
REMARK   15  A    between atoms: O_35  and  C_36
REMARK   16  A    between atoms: C_36  and  C_37
REMARK                            x       y       z     vdW  Elec       q    Type
REMARK                         _______ _______ _______ _____ _____    ______ ____
ROOT
ATOM      1  N   UNL     1      -1.247  -3.874  -0.087  0.00  0.00    -0.284 N 
ATOM      2  C   UNL     1      -1.279  -2.413  -0.219  0.00  0.00    +0.144 C 
ATOM      3  C   UNL     1       0.152  -1.977  -0.431  0.00  0.00    +0.071 C 
ATOM      4  C   UNL     1       0.909  -3.099  -0.408  0.00  0.00    +0.188 C 
ATOM      5  C   UNL     1       0.035  -4.271  -0.194  0.00  0.00    +0.282 C 
ATOM      6  O   UNL     1       0.416  -5.422  -0.125  0.00  0.00    -0.267 OA
ENDROOT
BRANCH   2   7
ATOM      7  C   UNL     1      -1.831  -1.788   1.036  0.00  0.00    -0.022 A 
ATOM      8  C   UNL     1      -1.379  -2.210   2.273  0.00  0.00    +0.009 A 
ATOM      9  C   UNL     1      -1.879  -1.635   3.425  0.00  0.00    +0.046 A 
ATOM     10  C   UNL     1      -2.843  -0.641   3.341  0.00  0.00    +0.121 A 
ATOM     11  C   UNL     1      -3.299  -0.224   2.099  0.00  0.00    +0.046 A 
ATOM     12  C   UNL     1      -2.792  -0.798   0.950  0.00  0.00    +0.009 A 
BRANCH  10  13
ATOM     13  O   UNL     1      -3.341  -0.077   4.473  0.00  0.00    -0.492 OA
BRANCH  13  14
ATOM     14  C   UNL     1      -2.825  -0.557   5.717  0.00  0.00    +0.225 C 
ATOM     15  C   UNL     1      -3.498   0.190   6.870  0.00  0.00    +0.048 C 
ENDBRANCH  13  14
ENDBRANCH  10  13
ENDBRANCH   2   7
BRANCH   4  16
ATOM     16  O   UNL     1       2.253  -3.140  -0.556  0.00  0.00    -0.502 OA
ATOM     17  H   UNL     1       2.566  -4.088  -0.499  0.00  0.00    +0.292 HD
ENDBRANCH   4  16
BRANCH   3  18
ATOM     18  C   UNL     1       0.629  -0.604  -0.619  0.00  0.00    +0.195 C 
ATOM     19  O   UNL     1       1.346  -0.088   0.218  0.00  0.00    -0.287 OA
BRANCH  18  20
ATOM     20  C   UNL     1       0.244   0.152  -1.827  0.00  0.00    +0.023 A 
ATOM     21  C   UNL     1      -0.582  -0.433  -2.792  0.00  0.00    +0.015 A 
ATOM     22  C   UNL     1      -0.942   0.273  -3.915  0.00  0.00    +0.046 A 
ATOM     23  C   UNL     1      -0.486   1.579  -4.105  0.00  0.00    +0.124 A 
ATOM     24  C   UNL     1       0.341   2.155  -3.144  0.00  0.00    -0.002 A 
ATOM     25  C   UNL     1       0.699   1.462  -2.014  0.00  0.00    +0.019 A 
ATOM     26  C   UNL     1       0.678   3.552  -3.629  0.00  0.00    +0.083 C 
ATOM     27  C   UNL     1       0.268   3.480  -5.119  0.00  0.00    +0.175 C 
ATOM     28  O   UNL     1      -0.729   2.444  -5.126  0.00  0.00    -0.488 OA
ATOM     29  C   UNL     1       1.462   3.089  -5.991  0.00  0.00    +0.052 C 
ENDBRANCH  18  20
ENDBRANCH   3  18
BRANCH   1  30
ATOM     30  C   UNL     1      -2.404  -4.747   0.130  0.00  0.00    +0.107 C 
BRANCH  30  31
ATOM     31  C   UNL     1      -2.644  -4.912   1.631  0.00  0.00    +0.000 C 
BRANCH  31  32
ATOM     32  C   UNL     1      -3.852  -5.822   1.858  0.00  0.00    -0.077 C 
BRANCH  32  33
ATOM     33  N   UNL     1      -4.081  -5.952   3.312  0.00  0.00    +0.379 N 
ATOM     34  H   UNL     1      -3.176  -6.055   3.784  0.00  0.00    -0.082 HD
BRANCH  33  36
ATOM     35  C   UNL     1      -4.780  -4.804   5.356  0.00  0.00    -0.017 C 
ATOM     36  C   UNL     1      -4.757  -4.743   3.827  0.00  0.00    -0.082 C 
ENDBRANCH  33  36
BRANCH  33  37
ATOM     37  C   UNL     1      -4.906  -7.148   3.589  0.00  0.00    -0.082 C 
ATOM     38  C   UNL     1      -4.018  -8.390   3.484  0.00  0.00    -0.017 C 
ENDBRANCH  33  37
ENDBRANCH  32  33
ENDBRANCH  31  32
ENDBRANCH  30  31
ENDBRANCH   1  30
TORSDOF 12
