REMARK  Name = ZINC52094479
REMARK  6 active torsions:
REMARK  status: ('A' for Active; 'I' for Inactive)
REMARK    1  A    between atoms: C_1  and  C_2
REMARK    2  A    between atoms: C_2  and  C_3
REMARK    3  A    between atoms: C_6  and  C_8
REMARK    4  A    between atoms: C_8  and  C_10
REMARK    5  A    between atoms: C_8  and  N_23
REMARK    6  A    between atoms: N_23  and  C_24
REMARK                            x       y       z     vdW  Elec       q    Type
REMARK                         _______ _______ _______ _____ _____    ______ ____
ROOT
ATOM      1  C   UNL     1       1.356  -3.258  -5.054  0.00  0.00    -0.010 A 
ATOM      2  C   UNL     1       0.127  -3.641  -5.554  0.00  0.00    +0.034 A 
ATOM      3  C   UNL     1      -0.236  -4.979  -5.545  0.00  0.00    +0.067 A 
ATOM      4  C   UNL     1       0.642  -5.934  -5.029  0.00  0.00    +0.068 A 
ATOM      5  C   UNL     1       1.874  -5.541  -4.529  0.00  0.00    +0.043 A 
ATOM      6  C   UNL     1       2.230  -4.206  -4.548  0.00  0.00    +0.025 A 
ATOM      7 BR   UNL     1       3.913  -3.670  -3.873  0.00  0.00    -0.050 Br
ATOM      8  N   UNL     1       0.011  -7.170  -5.152  0.00  0.00    -0.306 N 
ATOM      9  H   UNL     1       0.378  -8.025  -4.878  0.00  0.00    +0.170 HD
ATOM     10  C   UNL     1      -1.195  -6.975  -5.717  0.00  0.00    +0.325 A 
ATOM     11  O   UNL     1      -2.003  -7.852  -5.965  0.00  0.00    -0.247 OA
ATOM     12  N   UNL     1      -1.374  -5.664  -5.965  0.00  0.00    -0.306 N 
ATOM     13  H   UNL     1      -2.161  -5.265  -6.368  0.00  0.00    +0.170 HD
ENDROOT
BRANCH   1  14
ATOM     14  C   UNL     1       1.750  -1.804  -5.064  0.00  0.00    +0.122 C 
BRANCH  14  18
ATOM     15  C   UNL     1       0.330  -0.078  -1.522  0.00  0.00    -0.010 A 
ATOM     16  C   UNL     1       1.672  -0.258  -1.584  0.00  0.00    +0.011 A 
ATOM     17  C   UNL     1       2.220  -0.822  -2.720  0.00  0.00    +0.013 A 
ATOM     18  C   UNL     1       1.400  -1.179  -3.739  0.00  0.00    +0.011 A 
ATOM     19  S   UNL     1      -0.203  -0.722  -3.099  0.00  0.00    -0.096 S 
BRANCH  15  21
ATOM     20  C   UNL     1      -0.636   2.017  -0.613  0.00  0.00    +0.009 C 
ATOM     21  C   UNL     1      -0.499   0.507  -0.407  0.00  0.00    +0.039 C 
ENDBRANCH  15  21
ENDBRANCH  14  18
BRANCH  14  22
ATOM     22  N   UNL     1       1.029  -1.109  -6.139  0.00  0.00    -0.308 NA
ATOM     23  C   UNL     1       1.741   0.109  -6.549  0.00  0.00    +0.102 C 
ATOM     24  H   UNL     1       0.876  -1.721  -6.927  0.00  0.00    +0.123 HD
ENDBRANCH  14  22
ENDBRANCH   1  14
TORSDOF 4
