REMARK  Name = ZINC09080773
REMARK  10 active torsions:
REMARK  status: ('A' for Active; 'I' for Inactive)
REMARK    1  A    between atoms: C_1  and  N_2
REMARK    2  A    between atoms: N_2  and  C_3
REMARK    3  A    between atoms: N_2  and  C_4
REMARK    4  A    between atoms: C_7  and  C_10
REMARK    5  A    between atoms: C_10  and  C_12
REMARK    6  A    between atoms: C_10  and  S_26
REMARK    7  A    between atoms: C_12  and  N_13
REMARK    8  A    between atoms: N_13  and  S_14
REMARK    9  A    between atoms: S_14  and  C_17
REMARK   10  A    between atoms: S_26  and  C_29
REMARK                            x       y       z     vdW  Elec       q    Type
REMARK                         _______ _______ _______ _____ _____    ______ ____
ROOT
ATOM      1  C   UNL     1       2.238   4.901   3.711  0.00  0.00    +0.181 C 
ENDROOT
BRANCH   1   5
ATOM      2  C   UNL     1       5.629   4.077   6.179  0.00  0.00    +0.029 A 
ATOM      3  C   UNL     1       5.408   5.365   5.707  0.00  0.00    +0.023 A 
ATOM      4  C   UNL     1       4.312   5.628   4.910  0.00  0.00    +0.007 A 
ATOM      5  C   UNL     1       3.434   4.611   4.582  0.00  0.00    -0.022 A 
ATOM      6  C   UNL     1       3.648   3.329   5.055  0.00  0.00    +0.007 A 
ATOM      7  C   UNL     1       4.746   3.058   5.848  0.00  0.00    +0.023 A 
BRANCH   2   9
ATOM      8  C   UNL     1       7.668   4.885   7.335  0.00  0.00    +0.129 C 
ATOM      9  N   UNL     1       6.737   3.808   6.986  0.00  0.00    -0.336 N 
ATOM     10  C   UNL     1       6.968   2.450   7.484  0.00  0.00    +0.129 C 
ENDBRANCH   2   9
ENDBRANCH   1   5
BRANCH   1  11
ATOM     11  S   UNL     1       0.719   4.502   4.618  0.00  0.00    +0.005 S 
ATOM     12  O   UNL     1       0.720   5.149   5.883  0.00  0.00    -0.169 OA
ATOM     13  O   UNL     1      -0.406   4.599   3.756  0.00  0.00    -0.169 OA
BRANCH  11  14
ATOM     14  C   UNL     1       0.852   2.785   4.991  0.00  0.00    +0.089 A 
ATOM     15  C   UNL     1       0.353   1.845   4.108  0.00  0.00    +0.028 A 
ATOM     16  C   UNL     1       0.463   0.498   4.397  0.00  0.00    +0.022 A 
ATOM     17  C   UNL     1       1.061   0.090   5.576  0.00  0.00    +0.041 A 
ATOM     18  C   UNL     1       1.555   1.031   6.462  0.00  0.00    +0.022 A 
ATOM     19  C   UNL     1       1.450   2.378   6.169  0.00  0.00    +0.028 A 
ATOM     20 CL   UNL     1       1.193  -1.601   5.943  0.00  0.00    -0.084 Cl
ENDBRANCH  11  14
ENDBRANCH   1  11
BRANCH   1  21
ATOM     21  C   UNL     1       2.313   4.050   2.442  0.00  0.00    +0.137 C 
BRANCH  21  22
ATOM     22  N   UNL     1       1.151   4.333   1.596  0.00  0.00    -0.188 NA
ATOM     23  H   UNL     1       0.386   4.801   1.964  0.00  0.00    +0.148 HD
BRANCH  22  24
ATOM     24  S   UNL     1       1.143   3.851   0.011  0.00  0.00    +0.059 S 
ATOM     25  O   UNL     1       2.377   4.279  -0.549  0.00  0.00    -0.153 OA
ATOM     26  O   UNL     1      -0.113   4.241  -0.526  0.00  0.00    -0.153 OA
BRANCH  24  27
ATOM     27  C   UNL     1       1.171   2.089   0.002  0.00  0.00    +0.109 A 
ATOM     28  C   UNL     1       2.379   1.418  -0.011  0.00  0.00    +0.032 A 
ATOM     29  C   UNL     1       2.405   0.036  -0.020  0.00  0.00    +0.051 A 
ATOM     30  C   UNL     1       1.220  -0.680  -0.013  0.00  0.00    +0.166 A 
ATOM     31  C   UNL     1       0.002  -0.004   0.002  0.00  0.00    +0.168 A 
ATOM     32  C   UNL     1      -0.017   1.381   0.010  0.00  0.00    +0.078 A 
ATOM     33  O   UNL     1      -1.007  -0.923   0.006  0.00  0.00    -0.453 OA
ATOM     34  C   UNL     1      -0.404  -2.159  -0.418  0.00  0.00    +0.466 C 
ATOM     35  O   UNL     1       0.973  -2.023  -0.018  0.00  0.00    -0.453 OA
ENDBRANCH  24  27
ENDBRANCH  22  24
ENDBRANCH  21  22
ENDBRANCH   1  21
TORSDOF 8
