REMARK  Name = ZINC48837108
REMARK  1 active torsions:
REMARK  status: ('A' for Active; 'I' for Inactive)
REMARK    1  A    between atoms: C_1  and  C_2
REMARK                            x       y       z     vdW  Elec       q    Type
REMARK                         _______ _______ _______ _____ _____    ______ ____
ROOT
ATOM      1  C   UNL     1      -0.018   1.503   0.010  0.00  0.00    +0.067 C 
ATOM      2  C   UNL     1       0.002  -0.004   0.002  0.00  0.00    +0.059 A 
ATOM      3  C   UNL     1       0.008  -0.786  -1.093  0.00  0.00    +0.138 A 
ATOM      4  N   UNL     1       0.028  -2.108  -0.668  0.00  0.00    -0.212 N 
ATOM      5  C   UNL     1       0.033  -2.038   0.698  0.00  0.00    +0.197 A 
ATOM      6  N   UNL     1       0.024  -0.795   1.085  0.00  0.00    -0.225 NA
ATOM      7  S   UNL     1       0.058  -3.752   1.169  0.00  0.00    -0.013 S 
ATOM      8  C   UNL     1       0.060  -4.450  -0.475  0.00  0.00    +0.184 A 
ATOM      9  N   UNL     1       0.042  -3.382  -1.226  0.00  0.00    -0.142 NA
ATOM     10  N   UNL     1       0.077  -5.783  -0.855  0.00  0.00    -0.305 N 
ATOM     11  C   UNL     1       0.085  -6.306  -2.237  0.00  0.00    +0.111 C 
ATOM     12  C   UNL     1       0.080  -7.859  -2.088  0.00  0.00    +0.008 C 
ATOM     13  C   UNL     1       1.512  -8.191  -1.564  0.00  0.00    +0.007 C 
ATOM     14  C   UNL     1       1.545  -7.581  -0.143  0.00  0.00    +0.023 C 
ATOM     15  C   UNL     1       0.097  -6.967   0.051  0.00  0.00    +0.076 C 
ATOM     16  C   UNL     1      -0.769  -7.989  -0.772  0.00  0.00    +0.027 C 
ENDROOT
TORSDOF 0
