REMARK  Name = ZINC40009134
REMARK  16 active torsions:
REMARK  status: ('A' for Active; 'I' for Inactive)
REMARK    1  A    between atoms: C_1  and  C_2
REMARK    2  A    between atoms: C_2  and  C_3
REMARK    3  A    between atoms: C_3  and  C_4
REMARK    4  A    between atoms: C_4  and  N_5
REMARK    5  A    between atoms: N_5  and  C_6
REMARK    6  A    between atoms: N_5  and  C_10
REMARK    7  A    between atoms: C_6  and  C_7
REMARK    8  A    between atoms: C_7  and  C_8
REMARK    9  A    between atoms: C_8  and  C_9
REMARK   10  A    between atoms: C_10  and  C_11
REMARK   11  A    between atoms: C_11  and  C_12
REMARK   12  A    between atoms: C_12  and  N_13
REMARK   13  A    between atoms: C_14  and  C_31
REMARK   14  A    between atoms: C_21  and  C_30
REMARK   15  A    between atoms: C_22  and  C_29
REMARK   16  A    between atoms: C_35  and  O_37
REMARK                            x       y       z     vdW  Elec       q    Type
REMARK                         _______ _______ _______ _____ _____    ______ ____
ROOT
ATOM      1  N   UNL     1      -1.577  -6.024   3.382  0.00  0.00    -0.284 N 
ATOM      2  C   UNL     1      -0.151  -6.317   3.598  0.00  0.00    +0.145 C 
ATOM      3  C   UNL     1       0.008  -6.503   5.072  0.00  0.00    +0.072 A 
ATOM      4  C   UNL     1       1.187  -6.822   5.884  0.00  0.00    +0.199 A 
ATOM      5  O   UNL     1       2.322  -6.819   5.442  0.00  0.00    -0.287 OA
ATOM      6  C   UNL     1       0.865  -7.147   7.297  0.00  0.00    +0.065 A 
ATOM      7  C   UNL     1       1.845  -7.662   8.144  0.00  0.00    +0.019 A 
ATOM      8  C   UNL     1       1.532  -7.961   9.441  0.00  0.00    -0.047 A 
ATOM      9  C   UNL     1       0.243  -7.755   9.913  0.00  0.00    -0.044 A 
ATOM     10  C   UNL     1      -0.736  -7.245   9.091  0.00  0.00    +0.050 A 
ATOM     11  C   UNL     1      -0.441  -6.930   7.765  0.00  0.00    +0.140 A 
ATOM     12  O   UNL     1      -1.417  -6.421   6.978  0.00  0.00    -0.450 OA
ATOM     13  C   UNL     1      -1.218  -6.327   5.648  0.00  0.00    +0.199 A 
ATOM     14  C   UNL     1      -2.191  -6.027   4.583  0.00  0.00    +0.283 C 
ATOM     15  O   UNL     1      -3.374  -5.816   4.760  0.00  0.00    -0.267 OA
ATOM     16  C   UNL     1      -0.087  -8.092  11.345  0.00  0.00    +0.044 C 
ATOM     17  C   UNL     1       2.589  -8.517  10.360  0.00  0.00    +0.044 C 
ENDROOT
BRANCH   2  18
ATOM     18  C   UNL     1       0.694  -5.163   3.124  0.00  0.00    -0.019 A 
ATOM     19  C   UNL     1       0.285  -3.864   3.362  0.00  0.00    +0.006 A 
ATOM     20  C   UNL     1       1.059  -2.803   2.929  0.00  0.00    +0.004 A 
ATOM     21  C   UNL     1       2.242  -3.039   2.256  0.00  0.00    +0.045 A 
ATOM     22  C   UNL     1       2.655  -4.341   2.016  0.00  0.00    +0.117 A 
ATOM     23  C   UNL     1       1.880  -5.404   2.458  0.00  0.00    +0.051 A 
BRANCH  22  24
ATOM     24  O   UNL     1       3.818  -4.576   1.355  0.00  0.00    -0.507 OA
ATOM     25  H   UNL     1       4.591  -4.647   1.931  0.00  0.00    +0.292 HD
ENDBRANCH  22  24
ENDBRANCH   2  18
BRANCH   1  26
ATOM     26  C   UNL     1      -2.217  -5.769   2.089  0.00  0.00    +0.107 C 
BRANCH  26  27
ATOM     27  C   UNL     1      -2.166  -4.271   1.782  0.00  0.00    +0.000 C 
BRANCH  27  28
ATOM     28  C   UNL     1      -2.834  -4.003   0.432  0.00  0.00    -0.077 C 
BRANCH  28  29
ATOM     29  N   UNL     1      -2.785  -2.565   0.138  0.00  0.00    +0.380 N 
ATOM     30  H   UNL     1      -3.201  -2.051   0.901  0.00  0.00    -0.082 HD
BRANCH  29  31
ATOM     31  C   UNL     1      -1.387  -2.147  -0.030  0.00  0.00    -0.079 C 
BRANCH  31  32
ATOM     32  C   UNL     1      -1.326  -0.627  -0.195  0.00  0.00    -0.019 C 
BRANCH  32  34
ATOM     33  C   UNL     1       0.197   1.343  -0.402  0.00  0.00    +0.004 C 
ATOM     34  C   UNL     1       0.136  -0.177  -0.237  0.00  0.00    -0.005 C 
ENDBRANCH  32  34
ENDBRANCH  31  32
ENDBRANCH  29  31
BRANCH  29  35
ATOM     35  C   UNL     1      -3.530  -2.292  -1.098  0.00  0.00    -0.079 C 
BRANCH  35  36
ATOM     36  C   UNL     1      -5.014  -2.593  -0.876  0.00  0.00    -0.019 C 
BRANCH  36  37
ATOM     37  C   UNL     1      -5.809  -2.184  -2.119  0.00  0.00    -0.005 C 
ATOM     38  C   UNL     1      -7.293  -2.484  -1.897  0.00  0.00    +0.004 C 
ENDBRANCH  36  37
ENDBRANCH  35  36
ENDBRANCH  29  35
ENDBRANCH  28  29
ENDBRANCH  27  28
ENDBRANCH  26  27
ENDBRANCH   1  26
TORSDOF 12
