REMARK  Name = ZINC13896139
REMARK  4 active torsions:
REMARK  status: ('A' for Active; 'I' for Inactive)
REMARK    1  A    between atoms: C_5  and  C_7
REMARK    2  A    between atoms: C_7  and  O_8
REMARK    3  A    between atoms: O_8  and  C_9
REMARK    4  A    between atoms: C_12  and  C_15
REMARK                            x       y       z     vdW  Elec       q    Type
REMARK                         _______ _______ _______ _____ _____    ______ ____
ROOT
ATOM      1  C   UNL     1      -0.035   1.312  -2.326  0.00  0.00    +0.121 A 
ATOM      2  C   UNL     1       1.104   0.521  -2.420  0.00  0.00    +0.046 A 
ATOM      3  C   UNL     1       1.571   0.124  -3.652  0.00  0.00    +0.011 A 
ATOM      4  C   UNL     1       0.901   0.527  -4.814  0.00  0.00    -0.023 A 
ATOM      5  C   UNL     1      -0.243   1.329  -4.715  0.00  0.00    +0.011 A 
ATOM      6  C   UNL     1      -0.704   1.715  -3.476  0.00  0.00    +0.046 A 
ENDROOT
BRANCH   4   7
ATOM      7  C   UNL     1       1.397   0.112  -6.133  0.00  0.00    +0.036 C 
ATOM      8  C   UNL     1       2.152  -1.009  -6.251  0.00  0.00    +0.098 C 
ATOM      9  C   UNL     1       2.858  -1.489  -7.449  0.00  0.00    +0.266 C 
ATOM     10  O   UNL     1       2.884  -0.958  -8.544  0.00  0.00    -0.268 OA
ATOM     11  N   UNL     1       3.474  -2.634  -7.089  0.00  0.00    -0.235 N 
ATOM     12  C   UNL     1       3.210  -2.907  -5.802  0.00  0.00    +0.311 C 
ATOM     13  O   UNL     1       3.628  -3.881  -5.206  0.00  0.00    -0.252 OA
ATOM     14  N   UNL     1       2.422  -1.962  -5.259  0.00  0.00    -0.265 N 
ATOM     15  H   UNL     1       4.022  -3.180  -7.674  0.00  0.00    +0.159 HD
ATOM     16  H   UNL     1       2.099  -1.944  -4.345  0.00  0.00    +0.157 HD
ENDBRANCH   4   7
BRANCH   1  17
ATOM     17  O   UNL     1      -0.493   1.696  -1.107  0.00  0.00    -0.487 OA
BRANCH  17  18
ATOM     18  C   UNL     1       0.241   1.247   0.033  0.00  0.00    +0.267 C 
BRANCH  18  23
ATOM     19  C   UNL     1      -2.145   3.031   2.353  0.00  0.00    +0.001 A 
ATOM     20  C   UNL     1      -1.610   2.725   3.590  0.00  0.00    +0.003 A 
ATOM     21  C   UNL     1      -0.476   1.940   3.678  0.00  0.00    +0.039 A 
ATOM     22  C   UNL     1       0.122   1.457   2.526  0.00  0.00    +0.130 A 
ATOM     23  C   UNL     1      -0.411   1.768   1.288  0.00  0.00    +0.025 A 
ATOM     24  C   UNL     1      -1.546   2.553   1.202  0.00  0.00    +0.010 A 
ATOM     25  F   UNL     1       1.228   0.685   2.611  0.00  0.00    -0.205 F 
ENDBRANCH  18  23
ENDBRANCH  17  18
ENDBRANCH   1  17
TORSDOF 4
