REMARK  Name = ZINC38652342
REMARK  8 active torsions:
REMARK  status: ('A' for Active; 'I' for Inactive)
REMARK    1  A    between atoms: C_1  and  C_2
REMARK    2  A    between atoms: C_2  and  O_3
REMARK    3  A    between atoms: O_3  and  C_4
REMARK    4  A    between atoms: C_8  and  C_10
REMARK    5  A    between atoms: C_12  and  C_15
REMARK    6  A    between atoms: N_25  and  C_28
REMARK    7  A    between atoms: C_28  and  C_29
REMARK    8  A    between atoms: C_29  and  C_30
REMARK                            x       y       z     vdW  Elec       q    Type
REMARK                         _______ _______ _______ _____ _____    ______ ____
ROOT
ATOM      1  C   UNL     1       3.472  -7.064   5.711  0.00  0.00    +0.041 A 
ATOM      2  C   UNL     1       3.131  -8.259   5.069  0.00  0.00    +0.014 A 
ATOM      3  C   UNL     1       3.477  -9.462   5.619  0.00  0.00    +0.016 A 
ATOM      4  C   UNL     1       4.174  -9.499   6.825  0.00  0.00    +0.063 A 
ATOM      5  C   UNL     1       4.522  -8.303   7.479  0.00  0.00    +0.056 A 
ATOM      6  C   UNL     1       4.174  -7.087   6.915  0.00  0.00    +0.039 A 
ATOM      7  N   UNL     1       5.216  -8.375   8.678  0.00  0.00    -0.307 N 
ATOM      8  H   UNL     1       5.463  -7.559   9.140  0.00  0.00    +0.170 HD
ATOM      9  C   UNL     1       5.549  -9.565   9.207  0.00  0.00    +0.330 A 
ATOM     10  O   UNL     1       6.157  -9.585  10.259  0.00  0.00    -0.246 OA
ATOM     11  N   UNL     1       5.240 -10.733   8.622  0.00  0.00    -0.260 N 
ATOM     12  C   UNL     1       4.566 -10.775   7.452  0.00  0.00    +0.264 A 
ATOM     13  O   UNL     1       4.291 -11.837   6.929  0.00  0.00    -0.267 OA
ENDROOT
BRANCH   1  16
ATOM     14  C   UNL     1       2.262  -4.302   3.733  0.00  0.00    +0.202 A 
ATOM     15  N   UNL     1       2.435  -5.610   3.981  0.00  0.00    -0.187 NA
ATOM     16  C   UNL     1       3.092  -5.769   5.105  0.00  0.00    +0.259 A 
ATOM     17  O   UNL     1       3.361  -4.553   5.612  0.00  0.00    -0.332 OA
ATOM     18  N   UNL     1       2.816  -3.611   4.700  0.00  0.00    -0.056 NA
BRANCH  14  23
ATOM     19  C   UNL     1       0.802  -1.824   1.306  0.00  0.00    +0.121 A 
ATOM     20  C   UNL     1       0.259  -2.672   0.350  0.00  0.00    +0.045 A 
ATOM     21  C   UNL     1       0.367  -4.042   0.494  0.00  0.00    +0.004 A 
ATOM     22  C   UNL     1       1.016  -4.575   1.590  0.00  0.00    +0.012 A 
ATOM     23  C   UNL     1       1.564  -3.731   2.554  0.00  0.00    +0.026 A 
ATOM     24  C   UNL     1       1.460  -2.351   2.405  0.00  0.00    +0.057 A 
BRANCH  19  25
ATOM     25  O   UNL     1       0.693  -0.477   1.160  0.00  0.00    -0.492 OA
BRANCH  25  27
ATOM     26  C   UNL     1      -0.019   1.526   0.010  0.00  0.00    +0.048 C 
ATOM     27  C   UNL     1       0.002  -0.004   0.002  0.00  0.00    +0.225 C 
ENDBRANCH  25  27
ENDBRANCH  19  25
ENDBRANCH  14  23
ENDBRANCH   1  16
BRANCH  11  28
ATOM     28  C   UNL     1       5.640 -11.987   9.265  0.00  0.00    +0.134 C 
BRANCH  28  29
ATOM     29  C   UNL     1       4.530 -12.453  10.210  0.00  0.00    +0.057 C 
BRANCH  29  30
ATOM     30  C   UNL     1       4.942 -13.742  10.871  0.00  0.00    -0.046 A 
ATOM     31  C   UNL     1       4.635 -14.952  10.278  0.00  0.00    +0.004 A 
ATOM     32  C   UNL     1       5.013 -16.135  10.885  0.00  0.00    +0.000 A 
ATOM     33  C   UNL     1       5.699 -16.108  12.085  0.00  0.00    +0.000 A 
ATOM     34  C   UNL     1       6.007 -14.898  12.678  0.00  0.00    +0.000 A 
ATOM     35  C   UNL     1       5.633 -13.715  12.069  0.00  0.00    +0.004 A 
ENDBRANCH  29  30
ENDBRANCH  28  29
ENDBRANCH  11  28
TORSDOF 7
