REMARK  Name = ZINC04544067
REMARK  5 active torsions:
REMARK  status: ('A' for Active; 'I' for Inactive)
REMARK    1  A    between atoms: C_1  and  C_2
REMARK    2  A    between atoms: C_3  and  C_12
REMARK    3  A    between atoms: C_12  and  O_30
REMARK    4  A    between atoms: N_19  and  C_22
REMARK    5  A    between atoms: C_22  and  C_23
REMARK                            x       y       z     vdW  Elec       q    Type
REMARK                         _______ _______ _______ _____ _____    ______ ____
ROOT
ATOM      1  C   UNL     1      -2.050   3.284   3.484  0.00  0.00    +0.197 C 
ATOM      2  C   UNL     1      -2.766   1.955   3.413  0.00  0.00    +0.020 A 
ATOM      3  C   UNL     1      -3.522   1.249   4.323  0.00  0.00    +0.029 A 
ATOM      4  C   UNL     1      -4.066   0.026   3.967  0.00  0.00    +0.041 A 
ATOM      5  C   UNL     1      -3.847  -0.481   2.699  0.00  0.00    +0.022 A 
ATOM      6  C   UNL     1      -3.090   0.224   1.786  0.00  0.00    +0.025 A 
ATOM      7  C   UNL     1      -2.545   1.458   2.135  0.00  0.00    +0.044 A 
ATOM      8  N   UNL     1      -1.752   2.345   1.404  0.00  0.00    -0.264 N 
ATOM      9  C   UNL     1      -1.422   3.437   2.115  0.00  0.00    +0.261 C 
ATOM     10  O   UNL     1      -0.748   4.369   1.731  0.00  0.00    -0.271 OA
ATOM     11 CL   UNL     1      -5.019  -0.868   5.110  0.00  0.00    -0.084 Cl
ENDROOT
BRANCH   1  14
ATOM     12  C   UNL     1      -5.064   3.277   2.742  0.00  0.00    +0.064 C 
ATOM     13  C   UNL     1      -4.335   4.404   3.426  0.00  0.00    +0.021 A 
ATOM     14  C   UNL     1      -3.030   4.399   3.742  0.00  0.00    +0.025 A 
ATOM     15  C   UNL     1      -2.742   5.680   4.392  0.00  0.00    +0.007 A 
ATOM     16  C   UNL     1      -1.592   6.253   4.938  0.00  0.00    +0.010 A 
ATOM     17  C   UNL     1      -1.653   7.503   5.488  0.00  0.00    +0.001 A 
ATOM     18  C   UNL     1      -2.849   8.207   5.507  0.00  0.00    +0.002 A 
ATOM     19  C   UNL     1      -3.994   7.663   4.968  0.00  0.00    +0.026 A 
ATOM     20  C   UNL     1      -3.956   6.390   4.407  0.00  0.00    +0.047 A 
ATOM     21  N   UNL     1      -4.904   5.586   3.815  0.00  0.00    -0.358 N 
ATOM     22  H   UNL     1      -5.837   5.822   3.693  0.00  0.00    +0.166 HD
ENDBRANCH   1  14
BRANCH   1  23
ATOM     23  O   UNL     1      -1.042   3.256   4.497  0.00  0.00    -0.371 OA
ATOM     24  H   UNL     1      -0.402   2.539   4.396  0.00  0.00    +0.212 HD
ENDBRANCH   1  23
BRANCH   8  25
ATOM     25  C   UNL     1      -1.332   2.114   0.020  0.00  0.00    +0.149 C 
BRANCH  25  26
ATOM     26  C   UNL     1      -0.017   1.378   0.010  0.00  0.00    -0.030 A 
ATOM     27  C   UNL     1       1.171   2.086   0.002  0.00  0.00    +0.005 A 
ATOM     28  C   UNL     1       2.377   1.411  -0.015  0.00  0.00    +0.000 A 
ATOM     29  C   UNL     1       2.396   0.029  -0.022  0.00  0.00    +0.000 A 
ATOM     30  C   UNL     1       1.208  -0.679  -0.013  0.00  0.00    +0.000 A 
ATOM     31  C   UNL     1       0.002  -0.004   0.002  0.00  0.00    +0.005 A 
ENDBRANCH  25  26
ENDBRANCH   8  25
TORSDOF 4
