REMARK  Name = ZINC15968651
REMARK  9 active torsions:
REMARK  status: ('A' for Active; 'I' for Inactive)
REMARK    1  A    between atoms: C_1  and  C_2
REMARK    2  A    between atoms: C_2  and  C_3
REMARK    3  A    between atoms: C_2  and  C_4
REMARK    4  A    between atoms: C_7  and  C_10
REMARK    5  A    between atoms: N_28  and  C_31
REMARK    6  A    between atoms: C_36  and  C_37
REMARK    7  A    between atoms: N_39  and  C_40
REMARK    8  A    between atoms: C_40  and  C_41
REMARK    9  A    between atoms: C_40  and  C_42
REMARK                            x       y       z     vdW  Elec       q    Type
REMARK                         _______ _______ _______ _____ _____    ______ ____
ROOT
ATOM      1  C   UNL     1      -1.228  -3.498   0.007  0.00  0.00    +0.155 C 
ATOM      2  C   UNL     1      -0.549  -2.143  -0.044  0.00  0.00    +0.046 A 
ATOM      3  C   UNL     1       0.791  -1.978  -0.050  0.00  0.00    -0.015 A 
ATOM      4  C   UNL     1       1.035  -0.548  -0.095  0.00  0.00    +0.003 A 
ATOM      5  C   UNL     1       2.210   0.210  -0.118  0.00  0.00    +0.010 A 
ATOM      6  C   UNL     1       2.067   1.575  -0.162  0.00  0.00    +0.001 A 
ATOM      7  C   UNL     1       0.823   2.184  -0.182  0.00  0.00    +0.002 A 
ATOM      8  C   UNL     1      -0.356   1.458  -0.160  0.00  0.00    +0.026 A 
ATOM      9  C   UNL     1      -0.241   0.070  -0.116  0.00  0.00    +0.047 A 
ATOM     10  N   UNL     1      -1.174  -0.925  -0.087  0.00  0.00    -0.356 N 
ATOM     11  H   UNL     1      -2.135  -0.791  -0.096  0.00  0.00    +0.166 HD
ATOM     12  C   UNL     1       1.817  -3.082  -0.023  0.00  0.00    +0.069 C 
ATOM     13  C   UNL     1       1.165  -4.369   0.497  0.00  0.00    +0.170 C 
ATOM     14  N   UNL     1      -0.164  -4.498  -0.142  0.00  0.00    -0.260 N 
ATOM     15  C   UNL     1      -0.158  -5.632  -0.845  0.00  0.00    +0.317 C 
ATOM     16  O   UNL     1      -1.119  -6.058  -1.453  0.00  0.00    -0.252 OA
ATOM     17  N   UNL     1       1.033  -6.247  -0.803  0.00  0.00    -0.192 N 
ATOM     18  C   UNL     1       1.915  -5.572  -0.037  0.00  0.00    +0.248 C 
ATOM     19  O   UNL     1       3.071  -5.868   0.180  0.00  0.00    -0.273 OA
ENDROOT
BRANCH   1  23
ATOM     20  C   UNL     1      -3.209  -4.012   3.756  0.00  0.00    -0.045 A 
ATOM     21  C   UNL     1      -1.830  -3.935   3.708  0.00  0.00    +0.004 A 
ATOM     22  C   UNL     1      -1.189  -3.769   2.495  0.00  0.00    +0.006 A 
ATOM     23  C   UNL     1      -1.927  -3.679   1.330  0.00  0.00    -0.021 A 
ATOM     24  C   UNL     1      -3.307  -3.750   1.378  0.00  0.00    +0.006 A 
ATOM     25  C   UNL     1      -3.947  -3.921   2.591  0.00  0.00    +0.004 A 
BRANCH  20  27
ATOM     26  C   UNL     1      -4.846  -3.012   5.327  0.00  0.00    +0.012 C 
ATOM     27  C   UNL     1      -3.908  -4.194   5.079  0.00  0.00    +0.013 C 
ATOM     28  C   UNL     1      -4.719  -5.492   5.053  0.00  0.00    +0.012 C 
ENDBRANCH  20  27
ENDBRANCH   1  23
BRANCH  17  29
ATOM     29  C   UNL     1       1.325  -7.438  -1.470  0.00  0.00    +0.058 A 
ATOM     30  C   UNL     1       1.120  -8.658  -0.841  0.00  0.00    +0.025 A 
ATOM     31  C   UNL     1       1.405  -9.835  -1.505  0.00  0.00    +0.002 A 
ATOM     32  C   UNL     1       1.905  -9.808  -2.796  0.00  0.00    +0.001 A 
ATOM     33  C   UNL     1       2.120  -8.605  -3.434  0.00  0.00    +0.015 A 
ATOM     34  C   UNL     1       1.832  -7.407  -2.777  0.00  0.00    +0.059 A 
BRANCH  34  35
ATOM     35  C   UNL     1       2.059  -6.116  -3.455  0.00  0.00    +0.246 C 
ATOM     36  O   UNL     1       1.806  -5.075  -2.880  0.00  0.00    -0.270 OA
ATOM     37  N   UNL     1       2.546  -6.091  -4.711  0.00  0.00    -0.309 N 
ATOM     38  H   UNL     1       2.747  -6.921  -5.170  0.00  0.00    +0.149 HD
BRANCH  37  39
ATOM     39  C   UNL     1       2.771  -4.809  -5.384  0.00  0.00    +0.067 C 
ATOM     40  C   UNL     1       4.147  -4.265  -4.996  0.00  0.00    +0.027 C 
ATOM     41  C   UNL     1       2.711  -5.011  -6.900  0.00  0.00    +0.027 C 
ENDBRANCH  37  39
ENDBRANCH  34  35
ENDBRANCH  17  29
TORSDOF 5
