REMARK  Name = ZINC08722338
REMARK  6 active torsions:
REMARK  status: ('A' for Active; 'I' for Inactive)
REMARK    1  A    between atoms: C_1  and  O_2
REMARK    2  A    between atoms: O_2  and  C_3
REMARK    3  A    between atoms: C_6  and  C_12
REMARK    4  A    between atoms: C_8  and  N_9
REMARK    5  A    between atoms: N_21  and  C_24
REMARK    6  A    between atoms: C_24  and  C_25
REMARK                            x       y       z     vdW  Elec       q    Type
REMARK                         _______ _______ _______ _____ _____    ______ ____
ROOT
ATOM      1  C   UNL     1       2.506  -2.503  -4.381  0.00  0.00    +0.190 C 
ATOM      2  N   UNL     1       2.393  -1.631  -5.563  0.00  0.00    -0.316 N 
ATOM      3  C   UNL     1       1.210  -1.685  -6.259  0.00  0.00    +0.080 A 
ATOM      4  C   UNL     1       0.370  -2.810  -6.228  0.00  0.00    +0.068 A 
ATOM      5  C   UNL     1      -0.848  -2.701  -7.008  0.00  0.00    -0.027 A 
ATOM      6  C   UNL     1      -0.995  -1.527  -7.665  0.00  0.00    -0.021 A 
ATOM      7  S   UNL     1       0.450  -0.592  -7.250  0.00  0.00    -0.080 S 
ATOM      8  C   UNL     1      -2.144  -1.143  -8.542  0.00  0.00    -0.035 C 
ATOM      9  N   UNL     1      -2.895  -2.365  -8.885  0.00  0.00    +0.386 N 
ATOM     10  C   UNL     1      -3.193  -3.120  -7.661  0.00  0.00    -0.073 C 
ATOM     11  C   UNL     1      -1.918  -3.778  -7.123  0.00  0.00    +0.018 C 
ATOM     12  C   UNL     1       0.809  -3.973  -5.424  0.00  0.00    +0.248 C 
ATOM     13  O   UNL     1       0.232  -5.043  -5.489  0.00  0.00    -0.270 OA
ATOM     14  N   UNL     1       1.875  -3.798  -4.616  0.00  0.00    -0.289 N 
ATOM     15  H   UNL     1       3.117  -1.046  -5.836  0.00  0.00    +0.149 HD
ATOM     16  H   UNL     1       2.243  -4.576  -4.168  0.00  0.00    +0.151 HD
ATOM     17  H   UNL     1      -2.341  -2.937  -9.506  0.00  0.00    -0.081 HD
ENDROOT
BRANCH   1  21
ATOM     18  C   UNL     1       0.606  -0.607  -1.056  0.00  0.00    +0.150 A 
ATOM     19  C   UNL     1       1.173   0.161  -2.062  0.00  0.00    +0.048 A 
ATOM     20  C   UNL     1       1.786  -0.455  -3.136  0.00  0.00    +0.011 A 
ATOM     21  C   UNL     1       1.836  -1.835  -3.208  0.00  0.00    -0.007 A 
ATOM     22  C   UNL     1       1.271  -2.602  -2.207  0.00  0.00    +0.043 A 
ATOM     23  C   UNL     1       0.661  -1.991  -1.128  0.00  0.00    +0.168 A 
BRANCH  23  24
ATOM     24  N   UNL     1       0.062  -2.813  -0.053  0.00  0.00    +0.060 N 
ATOM     25  O   UNL     1       0.110  -4.020  -0.116  0.00  0.00    -0.126 OA
ATOM     26  O   UNL     1      -0.476  -2.278   0.889  0.00  0.00    -0.126 OA
ENDBRANCH  23  24
BRANCH  18  28
ATOM     27  C   UNL     1      -0.017   1.425   0.010  0.00  0.00    +0.277 C 
ATOM     28  O   UNL     1       0.002  -0.004   0.002  0.00  0.00    -0.493 OA
ENDBRANCH  18  28
ENDBRANCH   1  21
BRANCH   9  29
ATOM     29  C   UNL     1      -4.152  -1.997  -9.551  0.00  0.00    -0.043 C 
BRANCH  29  30
ATOM     30  C   UNL     1      -3.846  -1.333 -10.869  0.00  0.00    -0.064 A 
ATOM     31  C   UNL     1      -3.675   0.037 -10.929  0.00  0.00    +0.002 A 
ATOM     32  C   UNL     1      -3.395   0.646 -12.138  0.00  0.00    +0.000 A 
ATOM     33  C   UNL     1      -3.285  -0.115 -13.287  0.00  0.00    +0.000 A 
ATOM     34  C   UNL     1      -3.455  -1.486 -13.226  0.00  0.00    +0.000 A 
ATOM     35  C   UNL     1      -3.731  -2.095 -12.016  0.00  0.00    +0.002 A 
ENDBRANCH  29  30
ENDBRANCH   9  29
TORSDOF 5
