REMARK  Name = ZINC08783562
REMARK  6 active torsions:
REMARK  status: ('A' for Active; 'I' for Inactive)
REMARK    1  A    between atoms: C_1  and  C_2
REMARK    2  A    between atoms: C_6  and  O_8
REMARK    3  A    between atoms: O_8  and  C_9
REMARK    4  A    between atoms: C_9  and  C_10
REMARK    5  A    between atoms: C_10  and  N_11
REMARK    6  A    between atoms: C_15  and  C_28
REMARK                            x       y       z     vdW  Elec       q    Type
REMARK                         _______ _______ _______ _____ _____    ______ ____
ROOT
ATOM      1  N   UNL     1       2.271   8.063   0.025  0.00  0.00    -0.319 N 
ATOM      2  C   UNL     1       2.903   8.390   1.206  0.00  0.00    +0.069 A 
ATOM      3  C   UNL     1       2.317   8.063   2.426  0.00  0.00    +0.028 A 
ATOM      4  C   UNL     1       2.954   8.386   3.603  0.00  0.00    +0.014 A 
ATOM      5  C   UNL     1       4.186   9.034   3.587  0.00  0.00    +0.057 A 
ATOM      6  C   UNL     1       4.784   9.362   2.408  0.00  0.00    +0.042 A 
ATOM      7  C   UNL     1       4.156   9.044   1.188  0.00  0.00    +0.089 A 
ATOM      8  N   UNL     1       4.747   9.368   0.030  0.00  0.00    -0.237 NA
ATOM      9  C   UNL     1       4.179   9.081  -1.113  0.00  0.00    +0.171 A 
ATOM     10  C   UNL     1       4.801   9.422  -2.411  0.00  0.00    +0.282 A 
ATOM     11  O   UNL     1       5.875   9.989  -2.470  0.00  0.00    -0.265 OA
ATOM     12  N   UNL     1       4.124   9.076  -3.531  0.00  0.00    -0.272 N 
ATOM     13  H   UNL     1       4.503   9.285  -4.399  0.00  0.00    +0.174 HD
ATOM     14  C   UNL     1       2.939   8.452  -3.463  0.00  0.00    +0.351 A 
ATOM     15  O   UNL     1       2.382   8.170  -4.509  0.00  0.00    -0.245 OA
ATOM     16  N   UNL     1       2.335   8.122  -2.325  0.00  0.00    -0.173 NA
ATOM     17  C   UNL     1       2.876   8.395  -1.149  0.00  0.00    +0.170 A 
ENDROOT
BRANCH   5  18
ATOM     18  C   UNL     1       4.864   9.377   4.888  0.00  0.00    +0.417 C 
ATOM     19  F   UNL     1       4.459  10.651   5.303  0.00  0.00    -0.166 F 
ATOM     20  F   UNL     1       4.511   8.436   5.860  0.00  0.00    -0.166 F 
ATOM     21  F   UNL     1       6.251   9.365   4.708  0.00  0.00    -0.166 F 
ENDBRANCH   5  18
BRANCH   1  22
ATOM     22  C   UNL     1       0.975   7.381   0.034  0.00  0.00    +0.165 C 
BRANCH  22  23
ATOM     23  C   UNL     1       1.196   5.867   0.023  0.00  0.00    +0.250 C 
BRANCH  23  24
ATOM     24  O   UNL     1      -0.069   5.201   0.031  0.00  0.00    -0.490 OA
BRANCH  24  30
ATOM     25  C   UNL     1      -2.514   0.977   0.019  0.00  0.00    +0.044 C 
ATOM     26  C   UNL     1      -1.220   1.750   0.017  0.00  0.00    -0.047 A 
ATOM     27  C   UNL     1      -0.013   1.076   0.008  0.00  0.00    +0.003 A 
ATOM     28  C   UNL     1       1.176   1.782   0.000  0.00  0.00    +0.004 A 
ATOM     29  C   UNL     1       1.160   3.164   0.008  0.00  0.00    +0.045 A 
ATOM     30  C   UNL     1      -0.050   3.842   0.023  0.00  0.00    +0.121 A 
ATOM     31  C   UNL     1      -1.242   3.131   0.031  0.00  0.00    +0.049 A 
ENDBRANCH  24  30
ENDBRANCH  23  24
ENDBRANCH  22  23
ENDBRANCH   1  22
TORSDOF 5
