REMARK  Name = ZINC39673327
REMARK  6 active torsions:
REMARK  status: ('A' for Active; 'I' for Inactive)
REMARK    1  A    between atoms: C_3  and  C_9
REMARK    2  A    between atoms: C_13  and  C_22
REMARK    3  A    between atoms: N_24  and  C_25
REMARK    4  A    between atoms: C_25  and  C_26
REMARK    5  A    between atoms: C_29  and  O_32
REMARK    6  A    between atoms: O_32  and  C_33
REMARK                            x       y       z     vdW  Elec       q    Type
REMARK                         _______ _______ _______ _____ _____    ______ ____
ROOT
ATOM      1  C   UNL     1       3.950   2.222   0.075  0.00  0.00    +0.248 C 
ATOM      2  O   UNL     1       5.054   1.723   0.174  0.00  0.00    -0.270 OA
ATOM      3  N   UNL     1       3.823   3.558  -0.055  0.00  0.00    -0.296 N 
ATOM      4  C   UNL     1       2.573   4.353  -0.084  0.00  0.00    +0.121 C 
ATOM      5  C   UNL     1       2.902   5.627   0.727  0.00  0.00    +0.100 C 
ATOM      6  C   UNL     1       4.432   5.760   0.644  0.00  0.00    -0.004 C 
ATOM      7  C   UNL     1       4.903   4.564  -0.195  0.00  0.00    +0.115 C 
ATOM      8  C   UNL     1       5.045   5.692   2.039  0.00  0.00    -0.010 C 
ATOM      9  C   UNL     1       6.560   5.884   1.936  0.00  0.00    -0.082 C 
ATOM     10  N   UNL     1       6.850   7.183   1.316  0.00  0.00    +0.379 N 
ATOM     11  C   UNL     1       6.338   7.206  -0.060  0.00  0.00    -0.082 C 
ATOM     12  C   UNL     1       4.812   7.069  -0.041  0.00  0.00    -0.010 C 
ATOM     13  H   UNL     1       6.407   7.915   1.850  0.00  0.00    -0.086 HD
ATOM     14  H   UNL     1       7.847   7.333   1.304  0.00  0.00    -0.086 HD
ENDROOT
BRANCH   1  17
ATOM     15  C   UNL     1       0.521   0.883  -0.669  0.00  0.00    +0.002 A 
ATOM     16  C   UNL     1       1.641   1.688  -0.692  0.00  0.00    +0.014 A 
ATOM     17  C   UNL     1       2.747   1.364   0.096  0.00  0.00    +0.057 A 
ATOM     18  C   UNL     1       2.711   0.226   0.905  0.00  0.00    +0.071 A 
ATOM     19  C   UNL     1       1.582  -0.572   0.919  0.00  0.00    +0.060 A 
ATOM     20  C   UNL     1       0.490  -0.243   0.134  0.00  0.00    +0.021 A 
ATOM     21 CL   UNL     1       1.534  -1.987   1.923  0.00  0.00    -0.082 Cl
ATOM     22 CL   UNL     1       4.080  -0.186   1.890  0.00  0.00    -0.081 Cl
ENDBRANCH   1  17
BRANCH   5  23
ATOM     23  C   UNL     1       2.464   5.465   2.159  0.00  0.00    +0.218 C 
ATOM     24  O   UNL     1       2.453   4.365   2.670  0.00  0.00    -0.275 OA
ATOM     25  N   UNL     1       2.085   6.543   2.874  0.00  0.00    -0.311 N 
ATOM     26  H   UNL     1       2.094   7.423   2.466  0.00  0.00    +0.149 HD
BRANCH  25  27
ATOM     27  C   UNL     1       1.659   6.386   4.267  0.00  0.00    +0.139 C 
BRANCH  27  28
ATOM     28  C   UNL     1       1.290   7.733   4.834  0.00  0.00    -0.030 A 
ATOM     29  C   UNL     1       2.253   8.509   5.452  0.00  0.00    +0.009 A 
ATOM     30  C   UNL     1       1.917   9.743   5.974  0.00  0.00    +0.046 A 
ATOM     31  C   UNL     1       0.612  10.204   5.876  0.00  0.00    +0.127 A 
ATOM     32  C   UNL     1      -0.352   9.424   5.255  0.00  0.00    +0.046 A 
ATOM     33  C   UNL     1      -0.010   8.192   4.731  0.00  0.00    +0.009 A 
BRANCH  31  34
ATOM     34  O   UNL     1       0.279  11.418   6.388  0.00  0.00    -0.434 OA
BRANCH  34  35
ATOM     35  C   UNL     1      -1.083  11.828   6.252  0.00  0.00    +0.541 C 
ATOM     36  F   UNL     1      -1.418  11.889   4.895  0.00  0.00    -0.166 F 
ATOM     37  F   UNL     1      -1.915  10.907   6.897  0.00  0.00    -0.166 F 
ENDBRANCH  34  35
ENDBRANCH  31  34
ENDBRANCH  27  28
ENDBRANCH  25  27
ENDBRANCH   5  23
TORSDOF 6
