REMARK  Name = ZINC53780350
REMARK  5 active torsions:
REMARK  status: ('A' for Active; 'I' for Inactive)
REMARK    1  A    between atoms: C_3  and  C_6
REMARK    2  A    between atoms: C_6  and  C_8
REMARK    3  A    between atoms: C_6  and  N_23
REMARK    4  A    between atoms: C_8  and  N_9
REMARK    5  A    between atoms: N_12  and  C_13
REMARK                            x       y       z     vdW  Elec       q    Type
REMARK                         _______ _______ _______ _____ _____    ______ ____
ROOT
ATOM      1  N   UNL     1       5.798   2.323  -1.219  0.00  0.00    -0.300 N 
ATOM      2  C   UNL     1       6.555   2.474  -2.324  0.00  0.00    +0.304 C 
ATOM      3  O   UNL     1       6.106   2.176  -3.413  0.00  0.00    -0.253 OA
ATOM      4  N   UNL     1       7.810   2.954  -2.220  0.00  0.00    -0.269 N 
ATOM      5  H   UNL     1       6.157   2.561  -0.349  0.00  0.00    +0.150 HD
ATOM      6  H   UNL     1       8.144   3.257  -1.362  0.00  0.00    +0.156 HD
ENDROOT
BRANCH   4   7
ATOM      7  C   UNL     1       8.632   3.015  -3.354  0.00  0.00    +0.038 A 
ATOM      8  C   UNL     1       9.995   2.776  -3.237  0.00  0.00    +0.027 A 
ATOM      9  C   UNL     1      10.806   2.838  -4.353  0.00  0.00    +0.051 A 
ATOM     10  C   UNL     1      10.262   3.137  -5.594  0.00  0.00    +0.162 A 
ATOM     11  C   UNL     1       8.898   3.373  -5.715  0.00  0.00    +0.164 A 
ATOM     12  C   UNL     1       8.084   3.309  -4.594  0.00  0.00    +0.072 A 
ATOM     13  O   UNL     1       8.345   3.660  -6.925  0.00  0.00    -0.485 OA
ATOM     14  C   UNL     1       9.242   4.079  -7.959  0.00  0.00    +0.270 C 
ATOM     15  C   UNL     1      10.446   3.127  -7.965  0.00  0.00    +0.270 C 
ATOM     16  O   UNL     1      11.078   3.197  -6.683  0.00  0.00    -0.485 OA
ENDBRANCH   4   7
BRANCH   1  17
ATOM     17  C   UNL     1       4.434   1.801  -1.331  0.00  0.00    +0.095 C 
BRANCH  17  18
ATOM     18  C   UNL     1       3.755   1.849   0.040  0.00  0.00    -0.013 C 
BRANCH  18  19
ATOM     19  N   UNL     1       2.429   1.225  -0.049  0.00  0.00    +0.386 N 
ATOM     20  C   UNL     1       2.565  -0.232  -0.303  0.00  0.00    -0.078 C 
ATOM     21  C   UNL     1       1.210  -0.805   0.185  0.00  0.00    -0.020 C 
ATOM     22  C   UNL     1       0.899   0.055   1.431  0.00  0.00    -0.020 C 
ATOM     23  C   UNL     1       1.722   1.344   1.245  0.00  0.00    -0.078 C 
ATOM     24  H   UNL     1       1.888   1.658  -0.782  0.00  0.00    -0.081 HD
ENDBRANCH  18  19
BRANCH  18  27
ATOM     25  C   UNL     1       4.043   5.316   1.593  0.00  0.00    +0.008 A 
ATOM     26  C   UNL     1       4.370   3.997   1.339  0.00  0.00    +0.009 A 
ATOM     27  C   UNL     1       3.607   3.284   0.476  0.00  0.00    -0.022 A 
ATOM     28  S   UNL     1       2.379   4.486  -0.010  0.00  0.00    -0.103 S 
ATOM     29  C   UNL     1       2.967   5.857   0.970  0.00  0.00    +0.045 A 
ENDBRANCH  18  27
ENDBRANCH  17  18
ENDBRANCH   1  17
TORSDOF 5
