REMARK  Name = ZINC39686863
REMARK  6 active torsions:
REMARK  status: ('A' for Active; 'I' for Inactive)
REMARK    1  A    between atoms: C_1  and  C_2
REMARK    2  A    between atoms: C_2  and  C_4
REMARK    3  A    between atoms: C_2  and  N_12
REMARK    4  A    between atoms: C_4  and  C_5
REMARK    5  A    between atoms: C_13  and  C_15
REMARK    6  A    between atoms: C_26  and  C_28
REMARK                            x       y       z     vdW  Elec       q    Type
REMARK                         _______ _______ _______ _____ _____    ______ ____
ROOT
ATOM      1  C   UNL     1       2.741  -0.827   2.336  0.00  0.00    +0.100 C 
ATOM      2  C   UNL     1       2.685   0.133   3.546  0.00  0.00    +0.121 C 
ATOM      3  N   UNL     1       4.000  -0.025   4.211  0.00  0.00    -0.296 N 
ATOM      4  C   UNL     1       4.967  -0.142   3.093  0.00  0.00    +0.115 C 
ATOM      5  C   UNL     1       4.240  -1.005   2.042  0.00  0.00    -0.004 C 
ATOM      6  C   UNL     1       4.565  -0.508   0.637  0.00  0.00    -0.010 C 
ATOM      7  C   UNL     1       6.049  -0.749   0.346  0.00  0.00    -0.082 C 
ATOM      8  N   UNL     1       6.346  -2.182   0.461  0.00  0.00    +0.379 N 
ATOM      9  C   UNL     1       6.119  -2.631   1.840  0.00  0.00    -0.082 C 
ATOM     10  C   UNL     1       4.638  -2.470   2.194  0.00  0.00    -0.010 C 
ATOM     11  C   UNL     1       4.258  -0.057   5.533  0.00  0.00    +0.247 C 
ATOM     12  O   UNL     1       5.407  -0.105   5.927  0.00  0.00    -0.270 OA
ATOM     13  H   UNL     1       5.746  -2.700  -0.163  0.00  0.00    -0.086 HD
ATOM     14  H   UNL     1       7.310  -2.345   0.209  0.00  0.00    -0.086 HD
ENDROOT
BRANCH  11  15
ATOM     15  C   UNL     1       3.144  -0.032   6.504  0.00  0.00    +0.045 A 
ATOM     16  C   UNL     1       2.142   0.940   6.399  0.00  0.00    +0.014 A 
ATOM     17  C   UNL     1       1.102   0.965   7.302  0.00  0.00    +0.001 A 
ATOM     18  C   UNL     1       1.037   0.031   8.325  0.00  0.00    +0.012 A 
ATOM     19  C   UNL     1       2.022  -0.942   8.447  0.00  0.00    +0.031 A 
ATOM     20  C   UNL     1       3.084  -0.983   7.530  0.00  0.00    +0.006 A 
ATOM     21  C   UNL     1       3.978  -2.114   7.887  0.00  0.00    -0.006 A 
ATOM     22  C   UNL     1       5.153  -2.582   7.315  0.00  0.00    +0.009 A 
ATOM     23  C   UNL     1       5.800  -3.681   7.859  0.00  0.00    +0.001 A 
ATOM     24  C   UNL     1       5.283  -4.317   8.971  0.00  0.00    +0.001 A 
ATOM     25  C   UNL     1       4.111  -3.862   9.553  0.00  0.00    +0.012 A 
ATOM     26  C   UNL     1       3.453  -2.761   9.018  0.00  0.00    +0.030 A 
ATOM     27  C   UNL     1       2.216  -2.047   9.416  0.00  0.00    +0.194 C 
ATOM     28  O   UNL     1       1.492  -2.323  10.350  0.00  0.00    -0.287 OA
ENDBRANCH  11  15
BRANCH   1  30
ATOM     29  N   UNL     1       1.399  -1.007   0.267  0.00  0.00    -0.312 N 
ATOM     30  C   UNL     1       2.042  -0.217   1.149  0.00  0.00    +0.218 C 
ATOM     31  O   UNL     1       2.058   0.985   0.987  0.00  0.00    -0.275 OA
ATOM     32  H   UNL     1       1.386  -1.968   0.396  0.00  0.00    +0.149 HD
BRANCH  29  34
ATOM     33  C   UNL     1      -0.688   0.027  -0.480  0.00  0.00    +0.028 C 
ATOM     34  C   UNL     1       0.719  -0.414  -0.888  0.00  0.00    +0.074 C 
BRANCH  34  35
ATOM     35  C   UNL     1       0.624  -1.449  -2.011  0.00  0.00    +0.060 C 
BRANCH  35  36
ATOM     36  C   UNL     1       2.009  -1.792  -2.496  0.00  0.00    -0.010 A 
ATOM     37  C   UNL     1       2.541  -1.134  -3.589  0.00  0.00    +0.006 A 
ATOM     38  C   UNL     1       3.811  -1.449  -4.034  0.00  0.00    +0.000 A 
ATOM     39  C   UNL     1       4.550  -2.422  -3.388  0.00  0.00    +0.003 A 
ATOM     40  C   UNL     1       4.020  -3.081  -2.295  0.00  0.00    +0.038 A 
ATOM     41  C   UNL     1       2.750  -2.763  -1.845  0.00  0.00    +0.127 A 
ATOM     42  F   UNL     1       2.233  -3.404  -0.773  0.00  0.00    -0.205 F 
ENDBRANCH  35  36
ENDBRANCH  34  35
ENDBRANCH  29  34
ENDBRANCH   1  30
TORSDOF 5
