REMARK  Name = ZINC63272043
REMARK  9 active torsions:
REMARK  status: ('A' for Active; 'I' for Inactive)
REMARK    1  A    between atoms: C_1  and  C_2
REMARK    2  A    between atoms: C_3  and  C_35
REMARK    3  A    between atoms: N_6  and  C_24
REMARK    4  A    between atoms: C_10  and  N_11
REMARK    5  A    between atoms: N_11  and  C_12
REMARK    6  A    between atoms: C_15  and  C_18
REMARK    7  A    between atoms: C_18  and  N_19
REMARK    8  A    between atoms: C_24  and  C_25
REMARK    9  A    between atoms: C_25  and  C_26
REMARK                            x       y       z     vdW  Elec       q    Type
REMARK                         _______ _______ _______ _____ _____    ______ ____
ROOT
ATOM      1  C   UNL     1      -0.183   1.470  -0.002  0.00  0.00    +0.046 C 
ATOM      2  C   UNL     1       0.025  -0.023   0.002  0.00  0.00    -0.015 C 
ATOM      3  C   UNL     1       0.132  -0.725  -1.191  0.00  0.00    +0.118 C 
ATOM      4  C   UNL     1       0.334  -2.174  -1.160  0.00  0.00    +0.264 C 
ATOM      5  O   UNL     1       0.428  -2.791  -2.206  0.00  0.00    -0.269 OA
ATOM      6  N   UNL     1       0.419  -2.833   0.009  0.00  0.00    -0.233 N 
ATOM      7  C   UNL     1       0.321  -2.188   1.185  0.00  0.00    +0.255 C 
ATOM      8  O   UNL     1       0.402  -2.812   2.227  0.00  0.00    -0.269 OA
ATOM      9  C   UNL     1       0.122  -0.733   1.219  0.00  0.00    +0.055 C 
ATOM     10  C   UNL     1       0.025  -0.063   2.435  0.00  0.00    +0.085 C 
ENDROOT
BRANCH  10  11
ATOM     11  N   UNL     1      -0.056  -0.761   3.583  0.00  0.00    -0.320 N 
ATOM     12  H   UNL     1      -0.043  -1.731   3.563  0.00  0.00    +0.152 HD
BRANCH  11  13
ATOM     13  C   UNL     1      -0.159  -0.089   4.803  0.00  0.00    +0.031 A 
ATOM     14  C   UNL     1      -0.184   1.300   4.833  0.00  0.00    +0.023 A 
ATOM     15  C   UNL     1      -0.286   1.962   6.041  0.00  0.00    +0.007 A 
ATOM     16  C   UNL     1      -0.363   1.243   7.220  0.00  0.00    -0.028 A 
ATOM     17  C   UNL     1      -0.339  -0.139   7.194  0.00  0.00    +0.007 A 
ATOM     18  C   UNL     1      -0.243  -0.807   5.989  0.00  0.00    +0.023 A 
BRANCH  16  19
ATOM     19  C   UNL     1      -0.473   1.968   8.537  0.00  0.00    +0.162 C 
BRANCH  19  20
ATOM     20  N   UNL     1      -1.886   2.182   8.860  0.00  0.00    -0.233 N 
ATOM     21  C   UNL     1      -2.765   1.281   9.626  0.00  0.00    +0.230 C 
ATOM     22  N   UNL     1      -4.059   1.985   9.643  0.00  0.00    -0.317 N 
ATOM     23  C   UNL     1      -3.875   3.166   8.940  0.00  0.00    +0.202 C 
ATOM     24  N   UNL     1      -2.673   3.285   8.508  0.00  0.00    -0.176 NA
ATOM     25  H   UNL     1      -4.879   1.683  10.064  0.00  0.00    +0.149 HD
ENDBRANCH  19  20
ENDBRANCH  16  19
ENDBRANCH  11  13
ENDBRANCH  10  11
BRANCH   3  26
ATOM     26  C   UNL     1       0.043  -0.036  -2.443  0.00  0.00    +0.105 C 
ATOM     27  N   UNL     1      -0.028   0.510  -3.436  0.00  0.00    -0.191 NA
ENDBRANCH   3  26
BRANCH   6  28
ATOM     28  C   UNL     1       0.623  -4.284   0.001  0.00  0.00    +0.121 C 
BRANCH  28  29
ATOM     29  C   UNL     1       2.122  -4.589   0.008  0.00  0.00    +0.052 C 
BRANCH  29  30
ATOM     30  C   UNL     1       2.331  -6.081   0.000  0.00  0.00    -0.040 C 
ATOM     31  C   UNL     1       2.549  -6.866  -1.080  0.00  0.00    -0.001 A 
ATOM     32  C   UNL     1       2.651  -6.577  -2.515  0.00  0.00    +0.010 A 
ATOM     33  C   UNL     1       2.878  -7.596  -3.375  0.00  0.00    +0.001 A 
ATOM     34  C   UNL     1       3.018  -8.918  -2.931  0.00  0.00    +0.002 A 
ATOM     35  C   UNL     1       2.937  -9.262  -1.628  0.00  0.00    +0.026 A 
ATOM     36  C   UNL     1       2.701  -8.271  -0.636  0.00  0.00    +0.043 A 
ATOM     37  N   UNL     1       2.582  -8.350   0.667  0.00  0.00    -0.380 N 
ATOM     38  C   UNL     1       2.347  -7.003   1.199  0.00  0.00    +0.144 C 
ATOM     39  H   UNL     1       2.644  -9.164   1.192  0.00  0.00    +0.160 HD
ENDBRANCH  29  30
ENDBRANCH  28  29
ENDBRANCH   6  28
TORSDOF 8
