REMARK  Name = ZINC09138317
REMARK  8 active torsions:
REMARK  status: ('A' for Active; 'I' for Inactive)
REMARK    1  A    between atoms: C_1  and  N_2
REMARK    2  A    between atoms: C_10  and  C_12
REMARK    3  A    between atoms: C_12  and  C_14
REMARK    4  A    between atoms: C_12  and  N_64
REMARK    5  A    between atoms: C_14  and  N_15
REMARK    6  A    between atoms: C_16  and  C_18
REMARK    7  A    between atoms: N_20  and  C_21
REMARK    8  A    between atoms: C_26  and  C_27
REMARK                            x       y       z     vdW  Elec       q    Type
REMARK                         _______ _______ _______ _____ _____    ______ ____
ROOT
ATOM      1  C   UNL     1       5.109   9.090  -1.317  0.00  0.00    -0.020 C 
ENDROOT
BRANCH   1  11
ATOM      2  C   UNL     1      10.171  11.914   1.195  0.00  0.00    +0.129 C 
ATOM      3  N   UNL     1       9.306  12.588   0.217  0.00  0.00    -0.333 N 
ATOM      4  C   UNL     1      10.094  13.139  -0.887  0.00  0.00    +0.105 C 
ATOM      5  C   UNL     1       9.139  13.805  -1.887  0.00  0.00    +0.024 C 
ATOM      6  C   UNL     1       8.309  12.703  -2.550  0.00  0.00    +0.038 C 
ATOM      7  C   UNL     1       7.774  11.766  -1.497  0.00  0.00    -0.026 A 
ATOM      8  C   UNL     1       8.281  11.744  -0.209  0.00  0.00    +0.033 A 
ATOM      9  C   UNL     1       7.753  10.847   0.720  0.00  0.00    +0.023 A 
ATOM     10  C   UNL     1       6.728   9.996   0.364  0.00  0.00    +0.004 A 
ATOM     11  C   UNL     1       6.226  10.021  -0.924  0.00  0.00    -0.059 A 
ATOM     12  C   UNL     1       6.748  10.905  -1.849  0.00  0.00    +0.007 A 
ENDBRANCH   1  11
BRANCH   1  18
ATOM     13  C   UNL     1       3.746  10.954  -0.590  0.00  0.00    -0.078 C 
ATOM     14  C   UNL     1       2.384  11.332  -0.001  0.00  0.00    -0.019 C 
ATOM     15  C   UNL     1       2.264  10.750   1.410  0.00  0.00    -0.004 C 
ATOM     16  C   UNL     1       2.449   9.231   1.345  0.00  0.00    -0.019 C 
ATOM     17  C   UNL     1       3.808   8.914   0.717  0.00  0.00    -0.078 C 
ATOM     18  N   UNL     1       3.850   9.480  -0.648  0.00  0.00    +0.385 N 
ATOM     19  H   UNL     1       3.058   9.111  -1.186  0.00  0.00    -0.081 HD
ENDBRANCH   1  18
BRANCH   1  20
ATOM     20  C   UNL     1       5.472   7.659  -0.916  0.00  0.00    +0.094 C 
BRANCH  20  21
ATOM     21  N   UNL     1       4.422   6.743  -1.369  0.00  0.00    -0.309 N 
ATOM     22  C   UNL     1       4.481   5.437  -1.042  0.00  0.00    +0.299 C 
ATOM     23  O   UNL     1       5.403   5.019  -0.373  0.00  0.00    -0.265 OA
ATOM     24  H   UNL     1       3.685   7.077  -1.904  0.00  0.00    +0.149 HD
BRANCH  22  25
ATOM     25  C   UNL     1       3.410   4.503  -1.504  0.00  0.00    +0.303 C 
ATOM     26  O   UNL     1       2.488   4.920  -2.174  0.00  0.00    -0.265 OA
ATOM     27  N   UNL     1       3.469   3.197  -1.177  0.00  0.00    -0.277 N 
ATOM     28  H   UNL     1       4.159   2.878  -0.575  0.00  0.00    +0.155 HD
BRANCH  27  29
ATOM     29  C   UNL     1       2.538   2.305  -1.704  0.00  0.00    +0.053 A 
ATOM     30  C   UNL     1       1.835   2.631  -2.856  0.00  0.00    +0.044 A 
ATOM     31  C   UNL     1       0.911   1.744  -3.377  0.00  0.00    +0.043 A 
ATOM     32  C   UNL     1       0.684   0.524  -2.758  0.00  0.00    +0.021 A 
ATOM     33  C   UNL     1       1.369   0.187  -1.611  0.00  0.00    +0.022 A 
ATOM     34  C   UNL     1       2.306   1.073  -1.073  0.00  0.00    +0.073 A 
ATOM     35 CL   UNL     1       0.036   2.158  -4.817  0.00  0.00    -0.083 Cl
BRANCH  34  36
ATOM     36  C   UNL     1       3.026   0.726   0.115  0.00  0.00    +0.101 C 
ATOM     37  N   UNL     1       3.597   0.450   1.058  0.00  0.00    -0.191 NA
ENDBRANCH  34  36
ENDBRANCH  27  29
ENDBRANCH  22  25
ENDBRANCH  20  21
ENDBRANCH   1  20
TORSDOF 7
