REMARK  Name = ZINC20707531
REMARK  8 active torsions:
REMARK  status: ('A' for Active; 'I' for Inactive)
REMARK    1  A    between atoms: C_1  and  C_2
REMARK    2  A    between atoms: C_2  and  C_3
REMARK    3  A    between atoms: C_3  and  C_5
REMARK    4  A    between atoms: C_3  and  N_6
REMARK    5  A    between atoms: N_6  and  S_7
REMARK    6  A    between atoms: S_7  and  C_10
REMARK    7  A    between atoms: C_23  and  C_26
REMARK    8  A    between atoms: C_31  and  O_32
REMARK                            x       y       z     vdW  Elec       q    Type
REMARK                         _______ _______ _______ _____ _____    ______ ____
ROOT
ATOM      1  C   UNL     1      -4.802  -0.172  -1.931  0.00  0.00    +0.106 A 
ATOM      2  C   UNL     1      -5.038  -0.234  -0.569  0.00  0.00    +0.030 A 
ATOM      3  C   UNL     1      -4.643   0.811   0.242  0.00  0.00    +0.025 A 
ATOM      4  C   UNL     1      -4.011   1.919  -0.311  0.00  0.00    +0.031 A 
ATOM      5  C   UNL     1      -3.774   1.985  -1.673  0.00  0.00    -0.018 A 
ATOM      6  C   UNL     1      -4.175   0.928  -2.479  0.00  0.00    +0.034 A 
ATOM      7  C   UNL     1      -3.098   3.159  -2.329  0.00  0.00    +0.049 C 
ATOM      8  C   UNL     1      -4.071   3.732  -3.351  0.00  0.00    -0.023 C 
ATOM      9  C   UNL     1      -4.731   4.740  -2.838  0.00  0.00    -0.030 C 
ATOM     10  C   UNL     1      -4.292   4.989  -1.406  0.00  0.00    +0.033 C 
ATOM     11  C   UNL     1      -2.891   4.334  -1.357  0.00  0.00    +0.029 C 
ATOM     12  C   UNL     1      -2.557   3.865   0.047  0.00  0.00    +0.108 C 
ATOM     13  N   UNL     1      -3.612   2.966   0.528  0.00  0.00    -0.336 N 
ATOM     14  H   UNL     1      -4.062   3.126   1.519  0.00  0.00    +0.147 HD
ENDROOT
BRANCH  12  15
ATOM     15  C   UNL     1      -1.241   3.131   0.031  0.00  0.00    +0.014 A 
ATOM     16  C   UNL     1      -1.219   1.750   0.066  0.00  0.00    +0.009 A 
ATOM     17  C   UNL     1      -0.012   1.076   0.056  0.00  0.00    +0.001 A 
ATOM     18  C   UNL     1       1.176   1.782   0.000  0.00  0.00    +0.004 A 
ATOM     19  C   UNL     1       1.159   3.163  -0.041  0.00  0.00    +0.046 A 
ATOM     20  C   UNL     1      -0.051   3.841  -0.026  0.00  0.00    +0.122 A 
BRANCH  20  21
ATOM     21  O   UNL     1      -0.070   5.200  -0.066  0.00  0.00    -0.506 OA
ATOM     22  H   UNL     1       0.874   5.762  -0.110  0.00  0.00    +0.292 HD
ENDBRANCH  20  21
ENDBRANCH  12  15
BRANCH   1  23
ATOM     23  S   UNL     1      -5.304  -1.504  -2.969  0.00  0.00    +0.059 S 
ATOM     24  O   UNL     1      -4.481  -1.449  -4.127  0.00  0.00    -0.153 OA
ATOM     25  O   UNL     1      -5.379  -2.657  -2.142  0.00  0.00    -0.153 OA
BRANCH  23  26
ATOM     26  N   UNL     1      -6.848  -1.179  -3.470  0.00  0.00    -0.187 NA
ATOM     27  H   UNL     1      -7.686  -1.736  -3.025  0.00  0.00    +0.148 HD
BRANCH  26  28
ATOM     28  C   UNL     1      -7.112  -0.021  -4.327  0.00  0.00    +0.073 C 
ATOM     29  C   UNL     1      -7.533   1.169  -3.461  0.00  0.00    +0.025 C 
BRANCH  28  31
ATOM     30  C   UNL     1      -7.767  -1.465  -6.258  0.00  0.00    +0.005 C 
ATOM     31  C   UNL     1      -8.235  -0.358  -5.310  0.00  0.00    +0.017 C 
ENDBRANCH  28  31
ENDBRANCH  26  28
ENDBRANCH  23  26
ENDBRANCH   1  23
TORSDOF 6
