REMARK  Name = ZINC06111702
REMARK  5 active torsions:
REMARK  status: ('A' for Active; 'I' for Inactive)
REMARK    1  A    between atoms: C_1  and  C_2
REMARK    2  A    between atoms: C_5  and  N_9
REMARK    3  A    between atoms: C_6  and  C_8
REMARK    4  A    between atoms: C_13  and  C_15
REMARK    5  A    between atoms: C_15  and  N_16
REMARK                            x       y       z     vdW  Elec       q    Type
REMARK                         _______ _______ _______ _____ _____    ______ ____
ROOT
ATOM      1  N   UNL     1       0.059  -4.170  -0.021  0.00  0.00    -0.269 N 
ATOM      2  C   UNL     1      -0.040  -4.839  -1.187  0.00  0.00    +0.310 C 
ATOM      3  O   UNL     1      -0.054  -4.229  -2.238  0.00  0.00    -0.252 OA
ATOM      4  N   UNL     1      -0.124  -6.184  -1.187  0.00  0.00    -0.238 N 
ATOM      5  C   UNL     1      -0.223  -6.853  -2.353  0.00  0.00    +0.240 C 
ATOM      6  O   UNL     1      -0.237  -6.244  -3.401  0.00  0.00    -0.273 OA
ATOM      7  H   UNL     1       0.135  -4.658   0.814  0.00  0.00    +0.156 HD
ATOM      8  H   UNL     1      -0.113  -6.671  -0.348  0.00  0.00    +0.159 HD
ENDROOT
BRANCH   1  13
ATOM      9  C   UNL     1       0.025   1.503   0.005  0.00  0.00    +0.044 C 
ATOM     10  C   UNL     1       0.034  -0.004  -0.002  0.00  0.00    -0.050 A 
ATOM     11  C   UNL     1       0.632  -0.685  -1.046  0.00  0.00    +0.005 A 
ATOM     12  C   UNL     1       0.641  -2.066  -1.055  0.00  0.00    +0.024 A 
ATOM     13  C   UNL     1       0.051  -2.771  -0.014  0.00  0.00    +0.038 A 
ATOM     14  C   UNL     1      -0.548  -2.083   1.033  0.00  0.00    -0.029 A 
ATOM     15  C   UNL     1      -0.551  -0.702   1.039  0.00  0.00    +0.008 A 
ATOM     16  C   UNL     1      -1.191  -2.843   2.165  0.00  0.00    +0.045 C 
ENDBRANCH   1  13
BRANCH   5  17
ATOM     17  C   UNL     1      -0.317  -8.357  -2.353  0.00  0.00    +0.222 C 
BRANCH  17  18
ATOM     18  N   UNL     1      -0.415  -8.840  -3.733  0.00  0.00    -0.290 N 
ATOM     19  C   UNL     1      -1.639  -8.980  -4.303  0.00  0.00    +0.203 A 
ATOM     20  N   UNL     1      -1.769  -9.408  -5.531  0.00  0.00    -0.230 NA
ATOM     21  C   UNL     1      -0.702  -9.719  -6.262  0.00  0.00    +0.116 A 
ATOM     22  C   UNL     1       0.601  -9.606  -5.759  0.00  0.00    +0.076 A 
ATOM     23  C   UNL     1       0.712  -9.130  -4.412  0.00  0.00    +0.263 A 
ATOM     24  O   UNL     1       1.804  -8.995  -3.889  0.00  0.00    -0.267 OA
ATOM     25  C   UNL     1       1.684  -9.984  -6.678  0.00  0.00    -0.023 A 
ATOM     26  C   UNL     1       1.323 -10.398  -7.905  0.00  0.00    -0.004 A 
ATOM     27  S   UNL     1      -0.453 -10.315  -7.913  0.00  0.00    -0.073 S 
ATOM     28  C   UNL     1       2.512 -10.752  -8.758  0.00  0.00    +0.043 C 
ATOM     29  C   UNL     1       3.712 -10.096  -8.041  0.00  0.00    +0.010 C 
ATOM     30  C   UNL     1       3.212 -10.032  -6.585  0.00  0.00    +0.037 C 
ENDBRANCH  17  18
ENDBRANCH   5  17
TORSDOF 3
