REMARK  Name = ZINC66134429
REMARK  6 active torsions:
REMARK  status: ('A' for Active; 'I' for Inactive)
REMARK    1  A    between atoms: C_1  and  C_2
REMARK    2  A    between atoms: C_3  and  C_18
REMARK    3  A    between atoms: C_4  and  C_8
REMARK    4  A    between atoms: C_8  and  O_9
REMARK    5  A    between atoms: O_9  and  C_10
REMARK    6  A    between atoms: N_20  and  N_21
REMARK                            x       y       z     vdW  Elec       q    Type
REMARK                         _______ _______ _______ _____ _____    ______ ____
ROOT
ATOM      1  C   UNL     1      -0.018   1.503   0.010  0.00  0.00    +0.068 C 
ATOM      2  C   UNL     1       0.002  -0.004   0.002  0.00  0.00    +0.072 A 
ATOM      3  C   UNL     1       0.008  -0.828  -1.146  0.00  0.00    +0.084 A 
ATOM      4  C   UNL     1       0.028  -2.137  -0.708  0.00  0.00    +0.086 A 
ATOM      5  N   UNL     1       0.034  -2.111   0.635  0.00  0.00    -0.277 N 
ATOM      6  H   UNL     1       0.048  -2.888   1.216  0.00  0.00    +0.189 HD
ATOM      7  N   UNL     1       0.023  -0.776   1.053  0.00  0.00    -0.178 NA
ENDROOT
BRANCH   3   8
ATOM      8  C   UNL     1      -0.005  -0.375  -2.549  0.00  0.00    +0.261 C 
ATOM      9  O   UNL     1       1.043  -0.174  -3.132  0.00  0.00    -0.269 OA
ATOM     10  N   UNL     1      -1.178  -0.183  -3.184  0.00  0.00    -0.249 N 
ATOM     11  H   UNL     1      -2.014  -0.344  -2.719  0.00  0.00    +0.169 HD
BRANCH  10  12
ATOM     12  N   UNL     1      -1.190   0.237  -4.484  0.00  0.00    -0.254 NA
ATOM     13  H   UNL     1      -2.135   0.335  -4.823  0.00  0.00    +0.140 HD
ATOM     14  H   UNL     1      -0.676   1.099  -4.590  0.00  0.00    +0.140 HD
ENDBRANCH  10  12
ENDBRANCH   3   8
BRANCH   4  15
ATOM     15  C   UNL     1       0.041  -3.368  -1.577  0.00  0.00    +0.284 C 
BRANCH  15  16
ATOM     16  O   UNL     1       0.061  -4.534  -0.750  0.00  0.00    -0.485 OA
BRANCH  16  17
ATOM     17  C   UNL     1       0.075  -5.738  -1.382  0.00  0.00    +0.135 A 
ATOM     18  C   UNL     1       0.074  -5.795  -2.768  0.00  0.00    +0.048 A 
ATOM     19  C   UNL     1       0.088  -7.019  -3.408  0.00  0.00    +0.019 A 
ATOM     20  C   UNL     1       0.103  -8.188  -2.667  0.00  0.00    +0.019 A 
ATOM     21  C   UNL     1       0.103  -8.134  -1.285  0.00  0.00    +0.034 A 
ATOM     22  C   UNL     1       0.095  -6.911  -0.641  0.00  0.00    +0.061 A 
ATOM     23 BR   UNL     1       0.103  -6.837   1.249  0.00  0.00    -0.046 Br
ATOM     24 BR   UNL     1       0.122  -9.862  -3.546  0.00  0.00    -0.050 Br
ENDBRANCH  16  17
ENDBRANCH  15  16
ENDBRANCH   4  15
TORSDOF 5
