REMARK  Name = ZINC45400065
REMARK  5 active torsions:
REMARK  status: ('A' for Active; 'I' for Inactive)
REMARK    1  A    between atoms: C_1  and  C_2
REMARK    2  A    between atoms: N_7  and  C_10
REMARK    3  A    between atoms: C_10  and  C_11
REMARK    4  A    between atoms: N_13  and  C_14
REMARK    5  A    between atoms: C_28  and  C_29
REMARK                            x       y       z     vdW  Elec       q    Type
REMARK                         _______ _______ _______ _____ _____    ______ ____
ROOT
ATOM      1  C   UNL     1      -0.673  -0.232  -4.756  0.00  0.00    +0.222 C 
ENDROOT
BRANCH   1   8
ATOM      2  C   UNL     1      -0.638   1.372   0.359  0.00  0.00    +0.046 C 
ATOM      3  C   UNL     1      -0.597  -0.129   0.228  0.00  0.00    -0.021 A 
ATOM      4  C   UNL     1      -0.599  -0.724  -1.044  0.00  0.00    +0.076 A 
ATOM      5  C   UNL     1      -0.558  -2.133  -1.060  0.00  0.00    +0.116 A 
ATOM      6  N   UNL     1      -0.556  -2.825  -2.193  0.00  0.00    -0.230 NA
ATOM      7  C   UNL     1      -0.593  -2.221  -3.351  0.00  0.00    +0.203 A 
ATOM      8  N   UNL     1      -0.633  -0.867  -3.436  0.00  0.00    -0.290 N 
ATOM      9  C   UNL     1      -0.638  -0.095  -2.334  0.00  0.00    +0.263 A 
ATOM     10  O   UNL     1      -0.676   1.119  -2.429  0.00  0.00    -0.267 OA
ATOM     11  S   UNL     1      -0.518  -2.559   0.663  0.00  0.00    -0.068 S 
ATOM     12  C   UNL     1      -0.551  -0.908   1.339  0.00  0.00    +0.025 A 
BRANCH  12  13
ATOM     13  C   UNL     1      -0.534  -0.491   2.757  0.00  0.00    -0.011 A 
ATOM     14  C   UNL     1      -1.413  -1.076   3.670  0.00  0.00    +0.009 A 
ATOM     15  C   UNL     1      -1.392  -0.683   4.992  0.00  0.00    +0.001 A 
ATOM     16  C   UNL     1      -0.502   0.289   5.414  0.00  0.00    +0.000 A 
ATOM     17  C   UNL     1       0.372   0.873   4.514  0.00  0.00    +0.001 A 
ATOM     18  C   UNL     1       0.365   0.485   3.190  0.00  0.00    +0.009 A 
ENDBRANCH  12  13
ENDBRANCH   1   8
BRANCH   1  19
ATOM     19  C   UNL     1      -2.106  -0.056  -5.186  0.00  0.00    +0.237 C 
ATOM     20  O   UNL     1      -3.007  -0.424  -4.461  0.00  0.00    -0.274 OA
ATOM     21  N   UNL     1      -2.388   0.511  -6.376  0.00  0.00    -0.284 N 
ATOM     22  H   UNL     1      -1.670   0.733  -6.989  0.00  0.00    +0.155 HD
BRANCH  21  23
ATOM     23  C   UNL     1      -3.717   0.781  -6.726  0.00  0.00    +0.037 A 
ATOM     24  C   UNL     1      -4.125   0.659  -8.048  0.00  0.00    +0.027 A 
ATOM     25  C   UNL     1      -5.436   0.924  -8.396  0.00  0.00    +0.051 A 
ATOM     26  C   UNL     1      -6.346   1.311  -7.428  0.00  0.00    +0.167 A 
ATOM     27  C   UNL     1      -5.939   1.433  -6.099  0.00  0.00    +0.169 A 
ATOM     28  C   UNL     1      -4.628   1.164  -5.750  0.00  0.00    +0.073 A 
ATOM     29  O   UNL     1      -7.021   1.822  -5.352  0.00  0.00    -0.447 OA
ATOM     30  C   UNL     1      -7.915   2.399  -6.315  0.00  0.00    +0.254 C 
ATOM     31  O   UNL     1      -7.678   1.627  -7.500  0.00  0.00    -0.448 OA
ATOM     32  C   UNL     1      -7.604   3.882  -6.544  0.00  0.00    +0.093 C 
ATOM     33  C   UNL     1      -8.996   4.521  -6.789  0.00  0.00    +0.008 C 
ATOM     34  C   UNL     1      -9.913   3.740  -5.813  0.00  0.00    +0.008 C 
ATOM     35  C   UNL     1      -9.370   2.294  -5.859  0.00  0.00    +0.093 C 
ENDBRANCH  21  23
ENDBRANCH   1  19
TORSDOF 4
