REMARK  Name = ZINC44876480
REMARK  12 active torsions:
REMARK  status: ('A' for Active; 'I' for Inactive)
REMARK    1  A    between atoms: C_1  and  C_2
REMARK    2  A    between atoms: N_5  and  C_8
REMARK    3  A    between atoms: C_8  and  C_9
REMARK    4  A    between atoms: C_12  and  C_15
REMARK    5  A    between atoms: C_15  and  N_16
REMARK    6  A    between atoms: C_17  and  C_19
REMARK    7  A    between atoms: C_19  and  C_20
REMARK    8  A    between atoms: C_20  and  C_21
REMARK    9  A    between atoms: C_21  and  N_22
REMARK   10  A    between atoms: N_22  and  C_23
REMARK   11  A    between atoms: N_22  and  S_31
REMARK   12  A    between atoms: S_31  and  C_34
REMARK                            x       y       z     vdW  Elec       q    Type
REMARK                         _______ _______ _______ _____ _____    ______ ____
ROOT
ATOM      1  N   UNL     1       2.319  -5.469   7.513  0.00  0.00    -0.311 N 
ATOM      2  C   UNL     1       2.887  -5.370   8.731  0.00  0.00    +0.213 C 
ATOM      3  O   UNL     1       3.153  -6.373   9.359  0.00  0.00    -0.276 OA
ATOM      4  H   UNL     1       2.106  -4.667   7.010  0.00  0.00    +0.149 HD
ENDROOT
BRANCH   1   5
ATOM      5  C   UNL     1       2.022  -6.788   6.948  0.00  0.00    +0.139 C 
BRANCH   5   9
ATOM      6  C   UNL     1       0.243  -6.320   3.092  0.00  0.00    -0.064 A 
ATOM      7  C   UNL     1       1.617  -6.423   3.212  0.00  0.00    +0.002 A 
ATOM      8  C   UNL     1       2.192  -6.574   4.460  0.00  0.00    +0.005 A 
ATOM      9  C   UNL     1       1.395  -6.622   5.588  0.00  0.00    -0.030 A 
ATOM     10  C   UNL     1       0.022  -6.519   5.468  0.00  0.00    +0.005 A 
ATOM     11  C   UNL     1      -0.554  -6.363   4.221  0.00  0.00    +0.002 A 
BRANCH   6  12
ATOM     12  C   UNL     1      -0.384  -6.156   1.732  0.00  0.00    -0.043 C 
BRANCH  12  17
ATOM     13  C   UNL     1      -0.197  -0.900  -0.474  0.00  0.00    +0.007 C 
ATOM     14  C   UNL     1      -0.019  -2.404  -0.255  0.00  0.00    -0.018 C 
ATOM     15  C   UNL     1      -1.393  -3.073  -0.156  0.00  0.00    -0.016 C 
ATOM     16  C   UNL     1      -1.209  -4.562   0.142  0.00  0.00    -0.078 C 
ATOM     17  N   UNL     1      -0.490  -4.726   1.412  0.00  0.00    +0.382 N 
ATOM     18  C   UNL     1       0.855  -4.150   1.300  0.00  0.00    -0.078 C 
ATOM     19  C   UNL     1       0.750  -2.645   1.047  0.00  0.00    -0.016 C 
ATOM     20  H   UNL     1      -0.997  -4.255   2.147  0.00  0.00    -0.081 HD
ENDBRANCH  12  17
ENDBRANCH   6  12
ENDBRANCH   5   9
ENDBRANCH   1   5
BRANCH   2  21
ATOM     21  C   UNL     1       3.192  -4.014   9.312  0.00  0.00    +0.097 C 
BRANCH  21  22
ATOM     22  C   UNL     1       3.829  -4.182  10.693  0.00  0.00    +0.030 C 
BRANCH  22  23
ATOM     23  C   UNL     1       4.139  -2.805  11.283  0.00  0.00    +0.132 C 
BRANCH  23  24
ATOM     24  N   UNL     1       4.749  -2.966  12.605  0.00  0.00    -0.206 N 
BRANCH  24  25
ATOM     25  C   UNL     1       6.126  -3.176  12.718  0.00  0.00    +0.071 A 
ATOM     26  C   UNL     1       6.644  -4.461  12.622  0.00  0.00    +0.046 A 
ATOM     27  C   UNL     1       8.007  -4.665  12.735  0.00  0.00    +0.043 A 
ATOM     28  C   UNL     1       8.854  -3.591  12.944  0.00  0.00    +0.021 A 
ATOM     29  C   UNL     1       8.341  -2.310  13.040  0.00  0.00    +0.023 A 
ATOM     30  C   UNL     1       6.980  -2.099  12.922  0.00  0.00    +0.064 A 
ATOM     31 CL   UNL     1       6.338  -0.490  13.036  0.00  0.00    -0.082 Cl
ATOM     32 CL   UNL     1       8.656  -6.270  12.614  0.00  0.00    -0.083 Cl
ENDBRANCH  24  25
BRANCH  24  33
ATOM     33  S   UNL     1       3.807  -2.900  13.965  0.00  0.00    +0.043 S 
ATOM     34  O   UNL     1       4.678  -2.434  14.987  0.00  0.00    -0.155 OA
ATOM     35  O   UNL     1       2.669  -2.140  13.582  0.00  0.00    -0.155 OA
ATOM     36  C   UNL     1       3.331  -4.620  14.287  0.00  0.00    +0.218 C 
ENDBRANCH  24  33
ENDBRANCH  23  24
ENDBRANCH  22  23
ENDBRANCH  21  22
ENDBRANCH   2  21
TORSDOF 10
