REMARK  Name = ZINC65378745
REMARK  6 active torsions:
REMARK  status: ('A' for Active; 'I' for Inactive)
REMARK    1  A    between atoms: C_1  and  C_2
REMARK    2  A    between atoms: C_3  and  C_7
REMARK    3  A    between atoms: N_9  and  C_10
REMARK    4  A    between atoms: N_18  and  C_19
REMARK    5  A    between atoms: C_23  and  C_26
REMARK    6  A    between atoms: C_24  and  C_25
REMARK                            x       y       z     vdW  Elec       q    Type
REMARK                         _______ _______ _______ _____ _____    ______ ____
ROOT
ATOM      1  C   UNL     1      -0.018  -0.659  -4.962  0.00  0.00    +0.076 C 
ATOM      2  C   UNL     1      -1.460  -0.389  -5.399  0.00  0.00    +0.041 C 
ATOM      3  C   UNL     1      -1.464   0.136  -6.838  0.00  0.00    +0.111 C 
ATOM      4  N   UNL     1      -0.743  -0.818  -7.691  0.00  0.00    -0.286 N 
ATOM      5  C   UNL     1       0.619  -1.216  -7.312  0.00  0.00    +0.111 C 
ATOM      6  C   UNL     1       0.600  -1.727  -5.868  0.00  0.00    +0.041 C 
ATOM      7  C   UNL     1      -1.321  -1.319  -8.801  0.00  0.00    +0.302 C 
ATOM      8  O   UNL     1      -2.481  -1.057  -9.054  0.00  0.00    -0.253 OA
ATOM      9  N   UNL     1      -0.613  -2.110  -9.631  0.00  0.00    -0.296 N 
ATOM     10  H   UNL     1       0.288  -2.378  -9.394  0.00  0.00    +0.151 HD
ENDROOT
BRANCH   9  11
ATOM     11  C   UNL     1      -1.205  -2.565 -10.892  0.00  0.00    +0.078 C 
ATOM     12  C   UNL     1      -0.996  -1.498 -11.968  0.00  0.00    +0.022 C 
ATOM     13  C   UNL     1       0.502  -1.259 -12.165  0.00  0.00    +0.002 C 
ATOM     14  C   UNL     1       1.173  -2.562 -12.602  0.00  0.00    +0.003 C 
ATOM     15  C   UNL     1       0.964  -3.630 -11.526  0.00  0.00    -0.009 C 
ATOM     16  C   UNL     1      -0.534  -3.869 -11.329  0.00  0.00    +0.009 C 
ATOM     17  C   UNL     1      -0.743  -4.936 -10.253  0.00  0.00    +0.009 C 
ATOM     18  C   UNL     1       1.635  -4.933 -11.963  0.00  0.00    +0.008 C 
ENDBRANCH   9  11
BRANCH   1  21
ATOM     19  C   UNL     1      -0.014  -0.242  -2.561  0.00  0.00    +0.253 C 
ATOM     20  O   UNL     1      -0.027   0.951  -2.798  0.00  0.00    -0.270 OA
ATOM     21  N   UNL     1      -0.009  -1.130  -3.575  0.00  0.00    -0.308 N 
ATOM     22  H   UNL     1       0.002  -2.082  -3.386  0.00  0.00    +0.149 HD
BRANCH  19  25
ATOM     23  C   UNL     1      -0.023   1.512   0.008  0.00  0.00    +0.067 C 
ATOM     24  C   UNL     1      -0.008   0.005   0.002  0.00  0.00    +0.058 A 
ATOM     25  C   UNL     1      -0.004  -0.714  -1.173  0.00  0.00    +0.096 A 
ATOM     26  S   UNL     1       0.015  -2.382  -0.534  0.00  0.00    -0.071 S 
ATOM     27  C   UNL     1       0.016  -2.001   1.106  0.00  0.00    +0.156 A 
ATOM     28  N   UNL     1       0.009  -0.687   1.114  0.00  0.00    -0.252 NA
ENDBRANCH  19  25
ENDBRANCH   1  21
TORSDOF 3
