REMARK  Name = ZINC64491374
REMARK  3 active torsions:
REMARK  status: ('A' for Active; 'I' for Inactive)
REMARK    1  A    between atoms: C_6  and  N_7
REMARK    2  A    between atoms: C_13  and  C_20
REMARK    3  A    between atoms: C_23  and  C_26
REMARK                            x       y       z     vdW  Elec       q    Type
REMARK                         _______ _______ _______ _____ _____    ______ ____
ROOT
ATOM      1  N   UNL     1      -1.202  -0.723   0.010  0.00  0.00    -0.229 N 
ATOM      2  C   UNL     1      -1.171  -2.069  -0.095  0.00  0.00    +0.269 A 
ATOM      3  O   UNL     1      -0.114  -2.662  -0.195  0.00  0.00    -0.266 OA
ATOM      4  C   UNL     1      -2.450  -2.800  -0.083  0.00  0.00    +0.063 A 
ATOM      5  C   UNL     1      -2.502  -4.188  -0.186  0.00  0.00    +0.016 A 
ATOM      6  C   UNL     1      -3.725  -4.825  -0.171  0.00  0.00    +0.009 A 
ATOM      7  C   UNL     1      -4.896  -4.093  -0.053  0.00  0.00    +0.006 A 
ATOM      8  C   UNL     1      -4.859  -2.717   0.050  0.00  0.00    +0.034 A 
ATOM      9  C   UNL     1      -3.639  -2.059   0.035  0.00  0.00    +0.056 A 
ATOM     10  N   UNL     1      -3.557  -0.677   0.137  0.00  0.00    -0.307 N 
ATOM     11  H   UNL     1      -4.369  -0.153   0.220  0.00  0.00    +0.170 HD
ATOM     12  C   UNL     1      -2.363  -0.060   0.127  0.00  0.00    +0.334 A 
ATOM     13  O   UNL     1      -2.334   1.152   0.224  0.00  0.00    -0.246 OA
ENDROOT
BRANCH   1  19
ATOM     14  C   UNL     1       0.663   0.258   1.194  0.00  0.00    +0.029 A 
ATOM     15  C   UNL     1       1.849   0.965   1.184  0.00  0.00    +0.040 A 
ATOM     16  C   UNL     1       2.379   1.413  -0.014  0.00  0.00    +0.124 A 
ATOM     17  C   UNL     1       1.721   1.153  -1.204  0.00  0.00    +0.040 A 
ATOM     18  C   UNL     1       0.535   0.446  -1.198  0.00  0.00    +0.029 A 
ATOM     19  C   UNL     1       0.002  -0.004   0.002  0.00  0.00    +0.055 A 
ATOM     20  F   UNL     1       3.539   2.105  -0.022  0.00  0.00    -0.205 F 
ENDBRANCH   1  19
BRANCH   7  21
ATOM     21  C   UNL     1      -6.223  -4.807  -0.038  0.00  0.00    +0.274 C 
ATOM     22  N   UNL     1      -6.137  -6.056  -0.804  0.00  0.00    -0.339 N 
ATOM     23  C   UNL     1      -6.393  -7.050  -0.009  0.00  0.00    +0.134 C 
ATOM     24  N   UNL     1      -6.655  -6.616   1.267  0.00  0.00    -0.247 N 
ATOM     25  O   UNL     1      -6.562  -5.199   1.300  0.00  0.00    -0.243 OA
ATOM     26  H   UNL     1      -6.871  -7.184   2.023  0.00  0.00    +0.196 HD
ATOM     27  H   UNL     1      -5.925  -6.127  -1.748  0.00  0.00    +0.164 HD
BRANCH  23  28
ATOM     28  C   UNL     1      -6.399  -8.470  -0.424  0.00  0.00    +0.021 A 
ATOM     29  C   UNL     1      -5.565  -8.899  -1.457  0.00  0.00    +0.015 A 
ATOM     30  C   UNL     1      -5.572 -10.223  -1.844  0.00  0.00    +0.050 A 
ATOM     31  C   UNL     1      -6.407 -11.131  -1.208  0.00  0.00    +0.166 A 
ATOM     32  C   UNL     1      -7.242 -10.707  -0.175  0.00  0.00    +0.167 A 
ATOM     33  C   UNL     1      -7.235  -9.383   0.220  0.00  0.00    +0.061 A 
ATOM     34  O   UNL     1      -7.954 -11.781   0.278  0.00  0.00    -0.453 OA
ATOM     35  C   UNL     1      -7.846 -12.777  -0.756  0.00  0.00    +0.466 C 
ATOM     36  O   UNL     1      -6.596 -12.469  -1.400  0.00  0.00    -0.453 OA
ENDBRANCH  23  28
ENDBRANCH   7  21
TORSDOF 3
