REMARK  Name = ZINC34261908
REMARK  11 active torsions:
REMARK  status: ('A' for Active; 'I' for Inactive)
REMARK    1  A    between atoms: C_1  and  O_2
REMARK    2  A    between atoms: O_2  and  C_3
REMARK    3  A    between atoms: C_8  and  C_9
REMARK    4  A    between atoms: N_17  and  C_20
REMARK    5  A    between atoms: C_20  and  C_21
REMARK    6  A    between atoms: C_21  and  C_22
REMARK    7  A    between atoms: C_22  and  S_23
REMARK    8  A    between atoms: S_23  and  C_24
REMARK    9  A    between atoms: C_25  and  C_27
REMARK   10  A    between atoms: C_25  and  C_38
REMARK   11  A    between atoms: C_27  and  C_28
REMARK                            x       y       z     vdW  Elec       q    Type
REMARK                         _______ _______ _______ _____ _____    ______ ____
ROOT
ATOM      1  C   UNL     1       0.051  -2.828  -0.033  0.00  0.00    -0.023 C 
ATOM      2  C   UNL     1      -1.452  -2.983  -0.247  0.00  0.00    +0.077 C 
ATOM      3  C   UNL     1      -1.657  -4.227   0.698  0.00  0.00    +0.086 C 
ATOM      4  C   UNL     1      -3.084  -4.212   0.907  0.00  0.00    +0.225 C 
ATOM      5  O   UNL     1      -3.819  -5.165   1.057  0.00  0.00    -0.275 OA
ATOM      6  N   UNL     1      -3.430  -2.884   0.901  0.00  0.00    -0.242 N 
ATOM      7  C   UNL     1      -2.425  -2.067   0.424  0.00  0.00    +0.224 C 
ATOM      8  O   UNL     1      -2.339  -0.862   0.529  0.00  0.00    -0.275 OA
ATOM      9  C   UNL     1      -0.588  -5.148   0.288  0.00  0.00    +0.052 C 
ATOM     10  N   UNL     1       0.554  -4.239  -0.102  0.00  0.00    +0.396 N 
ATOM     11  H   UNL     1       0.845  -4.453  -1.044  0.00  0.00    -0.083 HD
ATOM     12  H   UNL     1       1.330  -4.357   0.533  0.00  0.00    -0.083 HD
ENDROOT
BRANCH   1  18
ATOM     13  C   UNL     1       0.831  -0.627  -0.945  0.00  0.00    +0.122 A 
ATOM     14  C   UNL     1       1.397   0.140  -1.953  0.00  0.00    +0.046 A 
ATOM     15  C   UNL     1       1.787  -0.455  -3.137  0.00  0.00    +0.004 A 
ATOM     16  C   UNL     1       1.611  -1.815  -3.318  0.00  0.00    +0.000 A 
ATOM     17  C   UNL     1       1.047  -2.582  -2.316  0.00  0.00    +0.005 A 
ATOM     18  C   UNL     1       0.661  -1.991  -1.128  0.00  0.00    -0.019 A 
BRANCH  13  20
ATOM     19  C   UNL     1       0.652   1.366   0.338  0.00  0.00    +0.277 C 
ATOM     20  O   UNL     1       0.447  -0.043   0.221  0.00  0.00    -0.495 OA
ENDBRANCH  13  20
ENDBRANCH   1  18
BRANCH   9  21
ATOM     21  C   UNL     1      -1.040  -5.994  -0.874  0.00  0.00    +0.347 C 
ATOM     22  O   UNL     1      -0.435  -5.949  -1.932  0.00  0.00    -0.248 OA
ATOM     23  O   UNL     1      -2.011  -6.722  -0.757  0.00  0.00    -0.248 OA
ENDBRANCH   9  21
BRANCH   6  24
ATOM     24  C   UNL     1      -4.734  -2.383   1.341  0.00  0.00    +0.117 C 
BRANCH  24  25
ATOM     25  C   UNL     1      -4.682  -2.070   2.838  0.00  0.00    +0.030 C 
BRANCH  25  26
ATOM     26  C   UNL     1      -6.044  -1.547   3.297  0.00  0.00    +0.070 C 
BRANCH  26  27
ATOM     27  S   UNL     1      -5.982  -1.176   5.072  0.00  0.00    -0.164 S 
ATOM     28  C   UNL     1      -7.651  -0.575   5.453  0.00  0.00    +0.084 C 
ENDBRANCH  26  27
ENDBRANCH  25  26
ENDBRANCH  24  25
ENDBRANCH   6  24
BRANCH   9  29
ATOM     29  C   UNL     1      -0.168  -6.034   1.463  0.00  0.00    +0.037 C 
BRANCH  29  30
ATOM     30  C   UNL     1       1.009  -6.882   1.056  0.00  0.00    -0.023 A 
ATOM     31  C   UNL     1       0.963  -8.137   0.581  0.00  0.00    +0.087 A 
ATOM     32  N   UNL     1       2.230  -8.584   0.320  0.00  0.00    -0.360 N 
ATOM     33  H   UNL     1       2.450  -9.462  -0.030  0.00  0.00    +0.165 HD
ATOM     34  C   UNL     1       3.145  -7.603   0.629  0.00  0.00    +0.047 A 
ATOM     35  C   UNL     1       2.421  -6.492   1.097  0.00  0.00    +0.003 A 
ATOM     36  C   UNL     1       3.096  -5.332   1.483  0.00  0.00    +0.010 A 
ATOM     37  C   UNL     1       4.459  -5.282   1.401  0.00  0.00    +0.001 A 
ATOM     38  C   UNL     1       5.178  -6.374   0.936  0.00  0.00    +0.002 A 
ATOM     39  C   UNL     1       4.532  -7.532   0.558  0.00  0.00    +0.026 A 
ENDBRANCH  29  30
ENDBRANCH   9  29
TORSDOF 9
