REMARK  Name = ZINC39465411
REMARK  0 active torsions:
REMARK  status: ('A' for Active; 'I' for Inactive)
REMARK                            x       y       z     vdW  Elec       q    Type
REMARK                         _______ _______ _______ _____ _____    ______ ____
ROOT
ATOM      1  C   UNL     1      -0.017   1.377   0.010  0.00  0.00    +0.020 A 
ATOM      2  C   UNL     1       1.170   2.093   0.002  0.00  0.00    -0.040 A 
ATOM      3  C   UNL     1       2.377   1.427  -0.015  0.00  0.00    -0.022 A 
ATOM      4  C   UNL     1       2.395   0.040  -0.023  0.00  0.00    +0.022 A 
ATOM      5  C   UNL     1       1.213  -0.675  -0.015  0.00  0.00    +0.032 A 
ATOM      6  C   UNL     1       0.002  -0.004   0.002  0.00  0.00    +0.032 A 
ATOM      7 BR   UNL     1      -1.620  -0.975   0.013  0.00  0.00    -0.049 Br
ATOM      8 BR   UNL     1       1.249  -2.565  -0.027  0.00  0.00    -0.049 Br
ATOM      9  C   UNL     1       3.694   2.157  -0.027  0.00  0.00    +0.130 C 
ATOM     10  C   UNL     1       4.660   1.460   0.936  0.00  0.00    +0.196 C 
ATOM     11  O   UNL     1       5.952   2.091   0.831  0.00  0.00    -0.292 OA
ATOM     12  P   UNL     1       6.028   3.713   0.934  0.00  0.00    +0.448 P 
ATOM     13  O   UNL     1       7.310   4.232   0.246  0.00  0.00    -0.236 OA
ATOM     14  N   UNL     1       4.689   4.273   0.143  0.00  0.00    -0.154 NA
ATOM     15  N   UNL     1       3.525   3.561   0.350  0.00  0.00    -0.224 NA
ATOM     16  C   UNL     1       2.435   4.183  -0.418  0.00  0.00    +0.108 C 
ATOM     17  C   UNL     1       1.103   3.599   0.013  0.00  0.00    +0.052 C 
ATOM     18  O   UNL     1       6.001   4.155   2.414  0.00  0.00    -0.126 OA
ATOM     19  H   UNL     1       4.723   5.059  -0.424  0.00  0.00    +0.153 HD
ENDROOT
TORSDOF 0
