REMARK  Name = ZINC09284820
REMARK  10 active torsions:
REMARK  status: ('A' for Active; 'I' for Inactive)
REMARK    1  A    between atoms: C_1  and  C_2
REMARK    2  A    between atoms: C_2  and  C_3
REMARK    3  A    between atoms: C_2  and  C_4
REMARK    4  A    between atoms: C_4  and  C_5
REMARK    5  A    between atoms: N_7  and  C_8
REMARK    6  A    between atoms: C_11  and  C_14
REMARK    7  A    between atoms: C_14  and  C_16
REMARK    8  A    between atoms: C_16  and  S_17
REMARK    9  A    between atoms: S_17  and  C_18
REMARK   10  A    between atoms: C_24  and  C_29
REMARK                            x       y       z     vdW  Elec       q    Type
REMARK                         _______ _______ _______ _____ _____    ______ ____
ROOT
ATOM      1  C   UNL     1      -5.147   4.960  -0.312  0.00  0.00    +0.156 C 
ENDROOT
BRANCH   1   2
ATOM      2  C   UNL     1      -5.053   3.462  -0.177  0.00  0.00    +0.173 C 
ATOM      3  O   UNL     1      -6.063   2.794  -0.109  0.00  0.00    -0.291 OA
BRANCH   2   7
ATOM      4  C   UNL     1      -1.259   1.584  -0.038  0.00  0.00    +0.033 A 
ATOM      5  C   UNL     1      -1.344   2.968  -0.157  0.00  0.00    +0.024 A 
ATOM      6  C   UNL     1      -2.570   3.580  -0.207  0.00  0.00    +0.013 A 
ATOM      7  C   UNL     1      -3.737   2.811  -0.129  0.00  0.00    +0.018 A 
ATOM      8  C   UNL     1      -3.647   1.419  -0.004  0.00  0.00    +0.013 A 
ATOM      9  C   UNL     1      -2.417   0.815   0.041  0.00  0.00    +0.024 A 
BRANCH   4  12
ATOM     10  C   UNL     1       1.022   1.578   0.619  0.00  0.00    +0.217 C 
ATOM     11  O   UNL     1       0.887   2.699   1.061  0.00  0.00    -0.275 OA
ATOM     12  N   UNL     1      -0.011   0.966   0.007  0.00  0.00    -0.285 N 
ATOM     13  H   UNL     1       0.115   0.097  -0.405  0.00  0.00    +0.155 HD
BRANCH  10  14
ATOM     14  C   UNL     1       2.346   0.870   0.753  0.00  0.00    +0.099 C 
BRANCH  14  16
ATOM     15  C   UNL     1       2.860   2.015   2.913  0.00  0.00    +0.008 C 
ATOM     16  C   UNL     1       3.339   1.778   1.479  0.00  0.00    -0.008 C 
ATOM     17  C   UNL     1       4.716   1.111   1.506  0.00  0.00    +0.008 C 
ENDBRANCH  14  16
ENDBRANCH  10  14
ENDBRANCH   4  12
ENDBRANCH   2   7
ENDBRANCH   1   2
BRANCH   1  18
ATOM     18  S   UNL     1      -6.888   5.455  -0.343  0.00  0.00    -0.080 S 
BRANCH  18  19
ATOM     19  C   UNL     1      -6.708   7.200  -0.502  0.00  0.00    +0.170 A 
ATOM     20  N   UNL     1      -7.820   7.989  -0.570  0.00  0.00    -0.301 N 
ATOM     21  H   UNL     1      -8.698   7.578  -0.531  0.00  0.00    +0.171 HD
ATOM     22  C   UNL     1      -7.720   9.325  -0.687  0.00  0.00    +0.261 A 
ATOM     23  O   UNL     1      -8.723  10.017  -0.742  0.00  0.00    -0.267 OA
ATOM     24  C   UNL     1      -6.425   9.925  -0.751  0.00  0.00    +0.080 A 
ATOM     25  C   UNL     1      -6.067  11.334  -0.881  0.00  0.00    +0.010 A 
ATOM     26  C   UNL     1      -4.755  11.672  -0.922  0.00  0.00    +0.057 A 
ATOM     27  S   UNL     1      -3.920  10.103  -0.786  0.00  0.00    -0.076 S 
ATOM     28  C   UNL     1      -5.335   9.039  -0.679  0.00  0.00    +0.117 A 
ATOM     29  N   UNL     1      -5.502   7.727  -0.559  0.00  0.00    -0.216 NA
BRANCH  25  30
ATOM     30  C   UNL     1      -7.114  12.373  -0.967  0.00  0.00    +0.021 A 
ATOM     31  C   UNL     1      -7.241  13.532  -0.249  0.00  0.00    +0.016 A 
ATOM     32  C   UNL     1      -8.314  14.359  -0.511  0.00  0.00    +0.008 A 
ATOM     33  C   UNL     1      -9.214  13.995  -1.458  0.00  0.00    +0.046 A 
ATOM     34  S   UNL     1      -8.549  12.439  -2.028  0.00  0.00    -0.097 S 
ENDBRANCH  25  30
ENDBRANCH  18  19
ENDBRANCH   1  18
TORSDOF 8
