REMARK  Name = ZINC35747073
REMARK  15 active torsions:
REMARK  status: ('A' for Active; 'I' for Inactive)
REMARK    1  A    between atoms: C_1  and  C_2
REMARK    2  A    between atoms: C_8  and  C_19
REMARK    3  A    between atoms: C_12  and  C_13
REMARK    4  A    between atoms: C_13  and  O_15
REMARK    5  A    between atoms: O_15  and  C_16
REMARK    6  A    between atoms: C_16  and  C_17
REMARK    7  A    between atoms: C_19  and  N_20
REMARK    8  A    between atoms: N_20  and  C_21
REMARK    9  A    between atoms: N_20  and  C_28
REMARK   10  A    between atoms: C_21  and  C_22
REMARK   11  A    between atoms: C_28  and  C_29
REMARK   12  A    between atoms: C_29  and  C_31
REMARK   13  A    between atoms: C_29  and  O_34
REMARK   14  A    between atoms: C_31  and  O_32
REMARK   15  A    between atoms: O_32  and  C_33
REMARK                            x       y       z     vdW  Elec       q    Type
REMARK                         _______ _______ _______ _____ _____    ______ ____
ROOT
ATOM      1  C   UNL     1      -2.012   0.815   0.675  0.00  0.00    +0.046 C 
ATOM      2  C   UNL     1      -1.636  -0.635   0.514  0.00  0.00    -0.015 A 
ATOM      3  C   UNL     1      -1.329  -1.143  -0.749  0.00  0.00    +0.076 A 
ATOM      4  C   UNL     1      -1.306  -0.448  -2.057  0.00  0.00    +0.260 A 
ATOM      5  O   UNL     1      -1.581   0.736  -2.140  0.00  0.00    -0.267 OA
ATOM      6  N   UNL     1      -0.974  -1.159  -3.152  0.00  0.00    -0.312 N 
ATOM      7  H   UNL     1      -0.954  -0.719  -4.016  0.00  0.00    +0.170 HD
ATOM      8  C   UNL     1      -0.666  -2.477  -3.071  0.00  0.00    +0.094 A 
ATOM      9  N   UNL     1      -0.676  -3.119  -1.935  0.00  0.00    -0.229 NA
ATOM     10  C   UNL     1      -0.989  -2.514  -0.796  0.00  0.00    +0.116 A 
ATOM     11  S   UNL     1      -1.113  -3.023   0.900  0.00  0.00    -0.062 S 
ATOM     12  C   UNL     1      -1.590  -1.455   1.605  0.00  0.00    +0.102 A 
ENDROOT
BRANCH  12  13
ATOM     13  C   UNL     1      -1.867  -1.129   3.006  0.00  0.00    +0.347 C 
ATOM     14  O   UNL     1      -2.185   0.004   3.315  0.00  0.00    -0.244 OA
BRANCH  13  15
ATOM     15  O   UNL     1      -1.767  -2.084   3.953  0.00  0.00    -0.457 OA
BRANCH  15  16
ATOM     16  C   UNL     1      -2.051  -1.695   5.298  0.00  0.00    +0.259 C 
BRANCH  16  17
ATOM     17  C   UNL     1      -1.890  -2.885   6.210  0.00  0.00    +0.006 C 
ATOM     18  C   UNL     1      -1.247  -2.759   7.344  0.00  0.00    +0.007 C 
ENDBRANCH  16  17
ENDBRANCH  15  16
ENDBRANCH  13  15
ENDBRANCH  12  13
BRANCH   8  19
ATOM     19  C   UNL     1      -0.302  -3.222  -4.330  0.00  0.00    -0.003 C 
BRANCH  19  20
ATOM     20  N   UNL     1       0.124  -4.585  -3.986  0.00  0.00    +0.389 N 
ATOM     21  H   UNL     1      -0.584  -5.026  -3.418  0.00  0.00    -0.081 HD
BRANCH  20  22
ATOM     22  C   UNL     1       1.387  -4.529  -3.237  0.00  0.00    -0.042 C 
BRANCH  22  23
ATOM     23  C   UNL     1       2.392  -3.713  -4.009  0.00  0.00    -0.064 A 
ATOM     24  C   UNL     1       3.154  -4.309  -4.997  0.00  0.00    +0.002 A 
ATOM     25  C   UNL     1       4.076  -3.561  -5.705  0.00  0.00    +0.000 A 
ATOM     26  C   UNL     1       4.236  -2.217  -5.424  0.00  0.00    +0.000 A 
ATOM     27  C   UNL     1       3.474  -1.621  -4.437  0.00  0.00    +0.000 A 
ATOM     28  C   UNL     1       2.549  -2.368  -3.732  0.00  0.00    +0.002 A 
ENDBRANCH  22  23
ENDBRANCH  20  22
BRANCH  20  29
ATOM     29  C   UNL     1       0.319  -5.362  -5.217  0.00  0.00    -0.044 C 
BRANCH  29  30
ATOM     30  C   UNL     1       0.202  -6.855  -4.902  0.00  0.00    +0.124 C 
BRANCH  30  31
ATOM     31  O   UNL     1       1.208  -7.222  -3.955  0.00  0.00    -0.391 OA
ATOM     32  H   UNL     1       2.111  -7.056  -4.258  0.00  0.00    +0.210 HD
ENDBRANCH  30  31
BRANCH  30  33
ATOM     33  C   UNL     1       0.391  -7.664  -6.187  0.00  0.00    +0.188 C 
BRANCH  33  34
ATOM     34  O   UNL     1       0.167  -9.049  -5.915  0.00  0.00    -0.381 OA
ATOM     35  C   UNL     1       0.319  -9.897  -7.055  0.00  0.00    +0.194 C 
ENDBRANCH  33  34
ENDBRANCH  30  33
ENDBRANCH  29  30
ENDBRANCH  20  29
ENDBRANCH  19  20
ENDBRANCH   8  19
TORSDOF 13
