REMARK  Name = ZINC31260606
REMARK  17 active torsions:
REMARK  status: ('A' for Active; 'I' for Inactive)
REMARK    1  A    between atoms: C_1  and  C_2
REMARK    2  A    between atoms: C_1  and  C_27
REMARK    3  A    between atoms: C_2  and  C_3
REMARK    4  A    between atoms: C_3  and  C_4
REMARK    5  A    between atoms: C_5  and  N_14
REMARK    6  A    between atoms: N_14  and  C_15
REMARK    7  A    between atoms: C_15  and  C_16
REMARK    8  A    between atoms: C_16  and  C_18
REMARK    9  A    between atoms: C_16  and  O_26
REMARK   10  A    between atoms: C_18  and  C_20
REMARK   11  A    between atoms: C_18  and  O_25
REMARK   12  A    between atoms: C_20  and  C_22
REMARK   13  A    between atoms: C_20  and  O_24
REMARK   14  A    between atoms: C_22  and  O_23
REMARK   15  A    between atoms: C_27  and  C_28
REMARK   16  A    between atoms: C_28  and  P_29
REMARK   17  A    between atoms: P_29  and  O_32
REMARK                            x       y       z     vdW  Elec       q    Type
REMARK                         _______ _______ _______ _____ _____    ______ ____
ROOT
ATOM      1  C   UNL     1       1.192  -0.678  -0.013  0.00  0.00    +0.055 A 
ATOM      2  C   UNL     1       0.002  -0.004   0.002  0.00  0.00    +0.108 A 
ATOM      3  N   UNL     1      -1.175  -0.713   0.015  0.00  0.00    -0.296 N 
ATOM      4  H   UNL     1      -2.137  -0.181   0.035  0.00  0.00    +0.172 HD
ATOM      5  C   UNL     1      -1.158  -2.059   0.004  0.00  0.00    +0.328 A 
ATOM      6  O   UNL     1      -2.209  -2.670   0.011  0.00  0.00    -0.247 OA
ATOM      7  N   UNL     1       0.003  -2.737  -0.012  0.00  0.00    -0.275 N 
ATOM      8  H   UNL     1      -0.002  -3.837  -0.018  0.00  0.00    +0.173 HD
ATOM      9  C   UNL     1       1.180  -2.081  -0.020  0.00  0.00    +0.259 A 
ATOM     10  O   UNL     1       2.229  -2.703  -0.034  0.00  0.00    -0.267 OA
ENDROOT
BRANCH   2  11
ATOM     11  N   UNL     1      -0.017   1.367   0.010  0.00  0.00    -0.328 N 
ATOM     12  H   UNL     1       0.929   1.930   0.008  0.00  0.00    +0.148 HD
BRANCH  11  13
ATOM     13  C   UNL     1      -1.295   2.082   0.019  0.00  0.00    +0.136 C 
BRANCH  13  14
ATOM     14  C   UNL     1      -1.036   3.590   0.026  0.00  0.00    +0.162 C 
BRANCH  14  15
ATOM     15  O   UNL     1      -0.286   3.939   1.192  0.00  0.00    -0.388 OA
ATOM     16  H   UNL     1      -0.003   4.987   1.370  0.00  0.00    +0.210 HD
ENDBRANCH  14  15
BRANCH  14  17
ATOM     17  C   UNL     1      -2.371   4.337   0.037  0.00  0.00    +0.175 C 
BRANCH  17  18
ATOM     18  O   UNL     1      -3.159   3.889   1.142  0.00  0.00    -0.387 OA
ATOM     19  H   UNL     1      -4.158   4.316   1.313  0.00  0.00    +0.210 HD
ENDBRANCH  17  18
BRANCH  17  20
ATOM     20  C   UNL     1      -2.114   5.840   0.170  0.00  0.00    +0.171 C 
BRANCH  20  21
ATOM     21  O   UNL     1      -1.315   6.085   1.328  0.00  0.00    -0.387 OA
ATOM     22  H   UNL     1      -1.026   7.114   1.589  0.00  0.00    +0.210 HD
ENDBRANCH  20  21
BRANCH  20  23
ATOM     23  C   UNL     1      -3.449   6.575   0.305  0.00  0.00    +0.189 C 
BRANCH  23  24
ATOM     24  O   UNL     1      -3.217   7.985   0.312  0.00  0.00    -0.392 OA
ATOM     25  H   UNL     1      -4.064   8.681   0.403  0.00  0.00    +0.210 HD
ENDBRANCH  23  24
ENDBRANCH  20  23
ENDBRANCH  17  20
ENDBRANCH  14  17
ENDBRANCH  13  14
ENDBRANCH  11  13
ENDBRANCH   2  11
BRANCH   1  26
ATOM     26  C   UNL     1       2.497   0.076  -0.021  0.00  0.00    +0.044 C 
BRANCH  26  27
ATOM     27  C   UNL     1       3.015   0.215   1.411  0.00  0.00    +0.005 C 
BRANCH  27  28
ATOM     28  C   UNL     1       4.340   0.980   1.403  0.00  0.00    +0.001 C 
BRANCH  28  29
ATOM     29  C   UNL     1       4.858   1.119   2.836  0.00  0.00    +0.012 C 
BRANCH  29  30
ATOM     30  C   UNL     1       6.183   1.884   2.827  0.00  0.00    +0.129 C 
BRANCH  30  31
ATOM     31  P   UNL     1       6.800   2.049   4.535  0.00  0.00    +0.358 P 
ATOM     32  O   UNL     1       6.897   0.709   5.156  0.00  0.00    -0.256 OA
ATOM     33  O   UNL     1       8.255   2.737   4.515  0.00  0.00    -0.141 OA
BRANCH  31  34
ATOM     34  O   UNL     1       5.785   2.964   5.386  0.00  0.00    -0.322 OA
ATOM     35  H   UNL     1       5.993   3.176   6.445  0.00  0.00    +0.220 HD
ENDBRANCH  31  34
ENDBRANCH  30  31
ENDBRANCH  29  30
ENDBRANCH  28  29
ENDBRANCH  27  28
ENDBRANCH  26  27
ENDBRANCH   1  26
TORSDOF 17
