REMARK  Name = ZINC39683550
REMARK  13 active torsions:
REMARK  status: ('A' for Active; 'I' for Inactive)
REMARK    1  A    between atoms: C_1  and  C_2
REMARK    2  A    between atoms: C_2  and  C_3
REMARK    3  A    between atoms: C_3  and  C_4
REMARK    4  A    between atoms: C_4  and  N_5
REMARK    5  A    between atoms: C_8  and  C_11
REMARK    6  A    between atoms: C_11  and  N_12
REMARK    7  A    between atoms: C_13  and  C_15
REMARK    8  A    between atoms: C_26  and  C_28
REMARK    9  A    between atoms: C_30  and  C_37
REMARK   10  A    between atoms: N_32  and  C_33
REMARK   11  A    between atoms: C_33  and  C_34
REMARK   12  A    between atoms: C_33  and  C_35
REMARK   13  A    between atoms: C_33  and  C_36
REMARK                            x       y       z     vdW  Elec       q    Type
REMARK                         _______ _______ _______ _____ _____    ______ ____
ROOT
ATOM      1  C   UNL     1     -10.955  -7.409   0.216  0.00  0.00    +0.100 C 
ATOM      2  C   UNL     1      -9.599  -7.878   0.788  0.00  0.00    +0.121 C 
ATOM      3  N   UNL     1      -9.949  -8.623   2.020  0.00  0.00    -0.295 N 
ATOM      4  C   UNL     1     -11.176  -9.374   1.660  0.00  0.00    +0.115 C 
ATOM      5  C   UNL     1     -11.987  -8.395   0.788  0.00  0.00    -0.004 C 
ATOM      6  C   UNL     1     -13.011  -7.653   1.642  0.00  0.00    -0.010 C 
ATOM      7  C   UNL     1     -14.058  -8.647   2.153  0.00  0.00    -0.082 C 
ATOM      8  N   UNL     1     -14.719  -9.293   1.013  0.00  0.00    +0.379 N 
ATOM      9  C   UNL     1     -13.744 -10.080   0.249  0.00  0.00    -0.082 C 
ATOM     10  C   UNL     1     -12.683  -9.148  -0.343  0.00  0.00    -0.010 C 
ATOM     11  C   UNL     1      -9.300  -8.619   3.201  0.00  0.00    +0.265 C 
ATOM     12  O   UNL     1      -9.717  -9.288   4.127  0.00  0.00    -0.268 OA
ATOM     13  H   UNL     1     -15.450  -9.902   1.350  0.00  0.00    -0.086 HD
ATOM     14  H   UNL     1     -15.122  -8.587   0.415  0.00  0.00    -0.086 HD
ENDROOT
BRANCH  11  15
ATOM     15  C   UNL     1      -8.085  -7.805   3.370  0.00  0.00    +0.124 A 
ATOM     16  C   UNL     1      -7.406  -7.111   2.383  0.00  0.00    +0.057 A 
ATOM     17  C   UNL     1      -6.331  -6.501   3.033  0.00  0.00    +0.061 A 
ATOM     18  N   UNL     1      -6.393  -6.823   4.300  0.00  0.00    -0.175 NA
ATOM     19  N   UNL     1      -7.406  -7.577   4.533  0.00  0.00    -0.254 N 
ATOM     20  C   UNL     1      -5.285  -5.627   2.390  0.00  0.00    +0.067 C 
BRANCH  19  21
ATOM     21  C   UNL     1      -7.775  -8.115   5.845  0.00  0.00    +0.056 C 
ATOM     22  C   UNL     1      -7.928  -9.634   5.749  0.00  0.00    +0.036 C 
ATOM     23  C   UNL     1      -6.682  -7.776   6.860  0.00  0.00    +0.036 C 
ATOM     24  C   UNL     1      -9.100  -7.496   6.295  0.00  0.00    +0.036 C 
ENDBRANCH  19  21
ENDBRANCH  11  15
BRANCH   1  26
ATOM     25  N   UNL     1     -12.012  -5.194  -0.097  0.00  0.00    -0.315 N 
ATOM     26  C   UNL     1     -11.261  -6.006   0.673  0.00  0.00    +0.218 C 
ATOM     27  O   UNL     1     -10.832  -5.607   1.735  0.00  0.00    -0.275 OA
ATOM     28  H   UNL     1     -12.419  -5.536  -0.909  0.00  0.00    +0.149 HD
BRANCH  25  29
ATOM     29  C   UNL     1     -12.213  -3.796   0.290  0.00  0.00    +0.107 C 
BRANCH  29  33
ATOM     30  N   UNL     1     -13.605  -1.239  -2.841  0.00  0.00    +0.380 N 
ATOM     31  C   UNL     1     -14.097  -0.949  -1.489  0.00  0.00    -0.079 C 
ATOM     32  C   UNL     1     -13.186  -1.616  -0.456  0.00  0.00    -0.014 C 
ATOM     33  C   UNL     1     -13.184  -3.130  -0.688  0.00  0.00    +0.003 C 
ATOM     34  C   UNL     1     -12.740  -3.417  -2.125  0.00  0.00    -0.014 C 
ATOM     35  C   UNL     1     -13.668  -2.683  -3.095  0.00  0.00    -0.079 C 
ATOM     36  H   UNL     1     -12.650  -0.925  -2.923  0.00  0.00    -0.082 HD
BRANCH  30  37
ATOM     37  C   UNL     1     -14.437  -0.533  -3.825  0.00  0.00    -0.079 C 
BRANCH  37  38
ATOM     38  C   UNL     1     -14.275   0.977  -3.640  0.00  0.00    -0.019 C 
BRANCH  38  40
ATOM     39  C   UNL     1     -14.979   3.222  -4.480  0.00  0.00    +0.004 C 
ATOM     40  C   UNL     1     -15.142   1.712  -4.664  0.00  0.00    -0.005 C 
ENDBRANCH  38  40
ENDBRANCH  37  38
ENDBRANCH  30  37
ENDBRANCH  29  33
ENDBRANCH  25  29
ENDBRANCH   1  26
TORSDOF 8
