REMARK  Name = ZINC03205881
REMARK  10 active torsions:
REMARK  status: ('A' for Active; 'I' for Inactive)
REMARK    1  A    between atoms: C_1  and  C_2
REMARK    2  A    between atoms: C_2  and  C_4
REMARK    3  A    between atoms: C_8  and  C_10
REMARK    4  A    between atoms: C_10  and  C_11
REMARK    5  A    between atoms: C_10  and  C_12
REMARK    6  A    between atoms: C_10  and  N_13
REMARK    7  A    between atoms: N_16  and  N_17
REMARK    8  A    between atoms: N_17  and  P_18
REMARK    9  A    between atoms: C_21  and  C_31
REMARK   10  A    between atoms: C_23  and  C_25
REMARK                            x       y       z     vdW  Elec       q    Type
REMARK                         _______ _______ _______ _____ _____    ______ ____
ROOT
ATOM      1  N   UNL     1       1.162   1.664   0.019  0.00  0.00    -0.180 NA
ATOM      2  H   UNL     1       1.670   1.613  -0.851  0.00  0.00    +0.153 HD
ENDROOT
BRANCH   1   3
ATOM      3  P   UNL     1       2.105   1.116   1.301  0.00  0.00    +0.214 P 
ATOM      4  O   UNL     1       2.427  -0.318   1.124  0.00  0.00    -0.294 OA
ATOM      5  C   UNL     1       1.234   1.379   2.886  0.00  0.00    +0.107 C 
ATOM      6  C   UNL     1       1.699   2.380   3.648  0.00  0.00    +0.140 C 
ATOM      7  O   UNL     1       2.719   3.174   3.316  0.00  0.00    -0.454 OA
ATOM      8  C   UNL     1       3.699   2.975   2.431  0.00  0.00    +0.140 C 
ATOM      9  C   UNL     1       3.642   2.099   1.421  0.00  0.00    +0.107 C 
BRANCH   8  10
ATOM     10  C   UNL     1       4.933   3.780   2.576  0.00  0.00    +0.017 A 
ATOM     11  C   UNL     1       5.990   3.609   1.682  0.00  0.00    +0.011 A 
ATOM     12  C   UNL     1       7.136   4.365   1.820  0.00  0.00    +0.001 A 
ATOM     13  C   UNL     1       7.242   5.284   2.848  0.00  0.00    +0.000 A 
ATOM     14  C   UNL     1       6.199   5.455   3.741  0.00  0.00    +0.001 A 
ATOM     15  C   UNL     1       5.046   4.708   3.611  0.00  0.00    +0.011 A 
ENDBRANCH   8  10
BRANCH   6  16
ATOM     16  C   UNL     1       1.034   2.620   4.949  0.00  0.00    +0.017 A 
ATOM     17  C   UNL     1      -0.041   1.824   5.343  0.00  0.00    +0.011 A 
ATOM     18  C   UNL     1      -0.653   2.050   6.559  0.00  0.00    +0.001 A 
ATOM     19  C   UNL     1      -0.210   3.069   7.381  0.00  0.00    +0.000 A 
ATOM     20  C   UNL     1       0.853   3.866   6.994  0.00  0.00    +0.001 A 
ATOM     21  C   UNL     1       1.477   3.647   5.782  0.00  0.00    +0.011 A 
ENDBRANCH   6  16
ENDBRANCH   1   3
BRANCH   1  25
ATOM     22  N   UNL     1      -1.206   2.971   0.030  0.00  0.00    -0.289 N 
ATOM     23  C   UNL     1      -1.187   1.626  -0.055  0.00  0.00    +0.314 C 
ATOM     24  O   UNL     1      -2.231   1.007  -0.128  0.00  0.00    -0.251 OA
ATOM     25  N   UNL     1      -0.011   0.968  -0.058  0.00  0.00    -0.228 N 
ATOM     26  H   UNL     1      -0.373   3.465   0.089  0.00  0.00    +0.151 HD
ATOM     27  H   UNL     1       0.003  -0.001  -0.119  0.00  0.00    +0.171 HD
BRANCH  22  28
ATOM     28  C   UNL     1      -2.484   3.687   0.034  0.00  0.00    +0.056 C 
ATOM     29  C   UNL     1      -3.227   3.410  -1.275  0.00  0.00    +0.036 C 
ATOM     30  C   UNL     1      -3.333   3.208   1.214  0.00  0.00    +0.036 C 
BRANCH  28  35
ATOM     31  C   UNL     1      -0.834   6.987   0.873  0.00  0.00    -0.022 A 
ATOM     32  C   UNL     1      -1.781   7.894   0.396  0.00  0.00    +0.008 A 
ATOM     33  C   UNL     1      -2.941   7.431  -0.190  0.00  0.00    +0.001 A 
ATOM     34  C   UNL     1      -3.163   6.071  -0.311  0.00  0.00    +0.006 A 
ATOM     35  C   UNL     1      -2.231   5.166   0.165  0.00  0.00    -0.024 A 
ATOM     36  C   UNL     1      -1.067   5.616   0.753  0.00  0.00    +0.014 A 
BRANCH  31  38
ATOM     37  C   UNL     1       0.350   8.244   2.797  0.00  0.00    +0.044 C 
ATOM     38  C   UNL     1       0.411   7.476   1.502  0.00  0.00    -0.050 C 
ATOM     39  C   UNL     1       1.582   7.239   0.926  0.00  0.00    +0.012 C 
ENDBRANCH  31  38
ENDBRANCH  28  35
ENDBRANCH  22  28
ENDBRANCH   1  25
TORSDOF 7
