REMARK  Name = ZINC18244324
REMARK  9 active torsions:
REMARK  status: ('A' for Active; 'I' for Inactive)
REMARK    1  A    between atoms: C_1  and  C_2
REMARK    2  A    between atoms: N_4  and  C_21
REMARK    3  A    between atoms: C_8  and  C_9
REMARK    4  A    between atoms: C_8  and  N_10
REMARK    5  A    between atoms: N_10  and  C_11
REMARK    6  A    between atoms: C_11  and  C_12
REMARK    7  A    between atoms: C_12  and  S_13
REMARK    8  A    between atoms: S_13  and  C_14
REMARK    9  A    between atoms: C_24  and  N_27
REMARK                            x       y       z     vdW  Elec       q    Type
REMARK                         _______ _______ _______ _____ _____    ______ ____
ROOT
ATOM      1  C   UNL     1       8.269   3.789  -0.084  0.00  0.00    +0.068 C 
ATOM      2  C   UNL     1       9.606   3.102  -0.195  0.00  0.00    +0.070 C 
ATOM      3  N   UNL     1      10.734   3.665  -0.502  0.00  0.00    -0.176 NA
ATOM      4  N   UNL     1      11.777   2.738  -0.514  0.00  0.00    -0.156 N 
ATOM      5  C   UNL     1      11.312   1.514  -0.195  0.00  0.00    +0.274 C 
ATOM      6  O   UNL     1      11.959   0.483  -0.110  0.00  0.00    -0.268 OA
ATOM      7  C   UNL     1       9.870   1.672   0.028  0.00  0.00    +0.078 C 
ATOM      8  C   UNL     1       8.957   0.691   0.377  0.00  0.00    +0.015 C 
ATOM      9  C   UNL     1       9.383  -0.754   0.413  0.00  0.00    +0.061 C 
ENDROOT
BRANCH   4  10
ATOM     10  C   UNL     1      13.113   3.038  -0.810  0.00  0.00    +0.060 A 
ATOM     11  C   UNL     1      14.072   2.034  -0.787  0.00  0.00    +0.028 A 
ATOM     12  C   UNL     1      15.388   2.331  -1.083  0.00  0.00    +0.034 A 
ATOM     13  C   UNL     1      15.752   3.629  -1.393  0.00  0.00    +0.126 A 
ATOM     14  C   UNL     1      14.800   4.632  -1.412  0.00  0.00    +0.034 A 
ATOM     15  C   UNL     1      13.482   4.340  -1.121  0.00  0.00    +0.028 A 
BRANCH  13  16
ATOM     16  N   UNL     1      17.164   3.945  -1.705  0.00  0.00    +0.056 N 
ATOM     17  O   UNL     1      17.486   5.088  -1.978  0.00  0.00    -0.126 OA
ATOM     18  O   UNL     1      18.004   3.063  -1.689  0.00  0.00    -0.126 OA
ENDBRANCH  13  16
ENDBRANCH   4  10
BRANCH   8  19
ATOM     19  N   UNL     1       7.689   1.029   0.684  0.00  0.00    -0.346 N 
ATOM     20  H   UNL     1       7.403   2.089   0.752  0.00  0.00    +0.146 HD
BRANCH  19  21
ATOM     21  C   UNL     1       6.691  -0.016   0.927  0.00  0.00    +0.112 C 
BRANCH  21  22
ATOM     22  C   UNL     1       5.343   0.631   1.253  0.00  0.00    +0.093 C 
BRANCH  22  23
ATOM     23  S   UNL     1       4.108  -0.663   1.555  0.00  0.00    -0.124 S 
BRANCH  23  24
ATOM     24  C   UNL     1       2.633   0.231   1.911  0.00  0.00    +0.008 A 
ATOM     25  C   UNL     1       1.457  -0.452   2.197  0.00  0.00    +0.016 A 
ATOM     26  C   UNL     1       0.302   0.252   2.477  0.00  0.00    +0.021 A 
ATOM     27  C   UNL     1       0.315   1.636   2.473  0.00  0.00    +0.041 A 
ATOM     28  C   UNL     1       1.484   2.319   2.188  0.00  0.00    +0.021 A 
ATOM     29  C   UNL     1       2.643   1.621   1.908  0.00  0.00    +0.016 A 
ATOM     30 CL   UNL     1      -1.141   2.517   2.818  0.00  0.00    -0.084 Cl
ENDBRANCH  23  24
ENDBRANCH  22  23
ENDBRANCH  21  22
ENDBRANCH  19  21
ENDBRANCH   8  19
TORSDOF 7
