REMARK  Name = ZINC19964594
REMARK  4 active torsions:
REMARK  status: ('A' for Active; 'I' for Inactive)
REMARK    1  A    between atoms: C_1  and  C_2
REMARK    2  A    between atoms: C_5  and  C_20
REMARK    3  A    between atoms: C_6  and  N_8
REMARK    4  A    between atoms: N_8  and  C_9
REMARK                            x       y       z     vdW  Elec       q    Type
REMARK                         _______ _______ _______ _____ _____    ______ ____
ROOT
ATOM      1  C   UNL     1       0.048  -2.074   3.664  0.00  0.00    +0.190 C 
ATOM      2  C   UNL     1      -0.490  -2.952   4.770  0.00  0.00    +0.003 A 
ATOM      3  C   UNL     1      -1.707  -3.565   4.971  0.00  0.00    +0.008 A 
ATOM      4  C   UNL     1      -1.916  -4.327   6.107  0.00  0.00    +0.000 A 
ATOM      5  C   UNL     1      -0.902  -4.471   7.036  0.00  0.00    +0.002 A 
ATOM      6  C   UNL     1       0.318  -3.858   6.837  0.00  0.00    +0.023 A 
ATOM      7  C   UNL     1       0.536  -3.088   5.696  0.00  0.00    +0.039 A 
ATOM      8  N   UNL     1       1.663  -2.380   5.275  0.00  0.00    -0.283 N 
ATOM      9  C   UNL     1       1.463  -1.756   4.098  0.00  0.00    +0.242 C 
ATOM     10  O   UNL     1       2.264  -1.072   3.498  0.00  0.00    -0.273 OA
ATOM     11  H   UNL     1       2.494  -2.341   5.773  0.00  0.00    +0.155 HD
ENDROOT
BRANCH   1  12
ATOM     12  N   UNL     1       0.051  -2.796   2.390  0.00  0.00    -0.329 N 
ATOM     13  H   UNL     1       0.064  -3.766   2.383  0.00  0.00    +0.147 HD
BRANCH  12  19
ATOM     14  C   UNL     1      -0.018   1.503   0.010  0.00  0.00    +0.044 C 
ATOM     15  C   UNL     1       0.002  -0.004   0.002  0.00  0.00    -0.049 A 
ATOM     16  C   UNL     1       0.006  -0.688  -1.200  0.00  0.00    +0.004 A 
ATOM     17  C   UNL     1       0.024  -2.071  -1.212  0.00  0.00    +0.005 A 
ATOM     18  C   UNL     1       0.039  -2.773  -0.023  0.00  0.00    -0.030 A 
ATOM     19  C   UNL     1       0.036  -2.089   1.186  0.00  0.00    +0.031 A 
ATOM     20  C   UNL     1       0.023  -0.700   1.194  0.00  0.00    +0.026 A 
ATOM     21  C   UNL     1       0.059  -4.280  -0.037  0.00  0.00    +0.045 C 
ENDBRANCH  12  19
ENDBRANCH   1  12
TORSDOF 2
