REMARK  Name = ZINC31808074
REMARK  6 active torsions:
REMARK  status: ('A' for Active; 'I' for Inactive)
REMARK    1  A    between atoms: C_1  and  O_2
REMARK    2  A    between atoms: O_2  and  C_3
REMARK    3  A    between atoms: C_3  and  C_5
REMARK    4  A    between atoms: C_5  and  C_6
REMARK    5  A    between atoms: C_6  and  N_7
REMARK    6  A    between atoms: C_19  and  C_21
REMARK                            x       y       z     vdW  Elec       q    Type
REMARK                         _______ _______ _______ _____ _____    ______ ____
ROOT
ATOM      1  N   UNL     1       2.502  -3.924   4.182  0.00  0.00    -0.299 N 
ATOM      2  C   UNL     1       2.040  -4.770   3.240  0.00  0.00    +0.303 C 
ATOM      3  O   UNL     1       1.418  -4.340   2.289  0.00  0.00    -0.253 OA
ATOM      4  N   UNL     1       2.267  -6.094   3.354  0.00  0.00    -0.273 N 
ATOM      5  C   UNL     1       1.874  -7.021   2.283  0.00  0.00    +0.116 C 
ATOM      6  C   UNL     1       3.132  -7.669   1.691  0.00  0.00    +0.076 C 
ATOM      7  C   UNL     1       4.031  -8.107   2.820  0.00  0.00    +0.066 A 
ATOM      8  C   UNL     1       3.939  -7.653   4.088  0.00  0.00    +0.064 A 
ATOM      9  N   UNL     1       4.914  -8.269   4.809  0.00  0.00    -0.346 N 
ATOM     10  H   UNL     1       5.100  -8.145   5.753  0.00  0.00    +0.167 HD
ATOM     11  C   UNL     1       5.575  -9.089   3.959  0.00  0.00    +0.197 A 
ATOM     12  N   UNL     1       5.039  -8.984   2.771  0.00  0.00    -0.240 NA
ATOM     13  C   UNL     1       2.921  -6.649   4.554  0.00  0.00    +0.159 C 
ATOM     14  H   UNL     1       2.934  -4.272   4.978  0.00  0.00    +0.150 HD
ENDROOT
BRANCH  13  15
ATOM     15  C   UNL     1       1.898  -7.329   5.428  0.00  0.00    +0.014 A 
ATOM     16  C   UNL     1       1.812  -8.708   5.446  0.00  0.00    +0.010 A 
ATOM     17  C   UNL     1       0.875  -9.332   6.247  0.00  0.00    +0.016 A 
ATOM     18  C   UNL     1       0.021  -8.577   7.032  0.00  0.00    +0.021 A 
ATOM     19  C   UNL     1       0.105  -7.197   7.014  0.00  0.00    +0.054 A 
ATOM     20  C   UNL     1       1.048  -6.572   6.216  0.00  0.00    +0.130 A 
ATOM     21  F   UNL     1       1.135  -5.224   6.203  0.00  0.00    -0.205 F 
ATOM     22 BR   UNL     1      -1.261  -9.433   8.127  0.00  0.00    -0.050 Br
ENDBRANCH  13  15
BRANCH   1  23
ATOM     23  C   UNL     1       2.353  -2.477   4.003  0.00  0.00    +0.117 C 
BRANCH  23  24
ATOM     24  C   UNL     1       2.958  -1.750   5.206  0.00  0.00    +0.139 C 
BRANCH  24  25
ATOM     25  C   UNL     1       2.804  -0.262   5.022  0.00  0.00    +0.308 C 
ATOM     26  O   UNL     1       2.267   0.172   4.031  0.00  0.00    -0.251 OA
BRANCH  25  28
ATOM     27  C   UNL     1       3.086   1.978   5.720  0.00  0.00    +0.280 C 
ATOM     28  O   UNL     1       3.265   0.581   5.960  0.00  0.00    -0.468 OA
ENDBRANCH  25  28
ENDBRANCH  24  25
ENDBRANCH  23  24
ENDBRANCH   1  23
TORSDOF 5
