REMARK  Name = ZINC04154775
REMARK  5 active torsions:
REMARK  status: ('A' for Active; 'I' for Inactive)
REMARK    1  A    between atoms: C_1  and  C_2
REMARK    2  A    between atoms: C_4  and  C_19
REMARK    3  A    between atoms: N_8  and  N_9
REMARK    4  A    between atoms: C_10  and  C_11
REMARK    5  A    between atoms: C_16  and  O_17
REMARK                            x       y       z     vdW  Elec       q    Type
REMARK                         _______ _______ _______ _____ _____    ______ ____
ROOT
ATOM      1  C   UNL     1      -0.018   1.503   0.010  0.00  0.00    +0.066 C 
ATOM      2  C   UNL     1       0.002  -0.004   0.002  0.00  0.00    +0.044 A 
ATOM      3  C   UNL     1       0.006  -0.697  -1.196  0.00  0.00    +0.051 A 
ATOM      4  C   UNL     1       0.025  -2.094  -1.157  0.00  0.00    +0.076 A 
ATOM      5  N   UNL     1       0.039  -2.706   0.024  0.00  0.00    -0.213 NA
ATOM      6  C   UNL     1       0.035  -2.005   1.147  0.00  0.00    +0.236 A 
ATOM      7  N   UNL     1       0.022  -0.679   1.140  0.00  0.00    -0.218 NA
ATOM      8  N   UNL     1       0.049  -2.672   2.360  0.00  0.00    -0.205 N 
ATOM      9  H   UNL     1       0.062  -3.642   2.379  0.00  0.00    +0.177 HD
ENDROOT
BRANCH   4  10
ATOM     10  C   UNL     1       0.029  -2.882  -2.414  0.00  0.00    +0.001 A 
ATOM     11  C   UNL     1       0.020  -2.232  -3.647  0.00  0.00    +0.010 A 
ATOM     12  C   UNL     1       0.024  -2.970  -4.813  0.00  0.00    +0.001 A 
ATOM     13  C   UNL     1       0.037  -4.353  -4.759  0.00  0.00    +0.000 A 
ATOM     14  C   UNL     1       0.046  -5.003  -3.538  0.00  0.00    +0.001 A 
ATOM     15  C   UNL     1       0.049  -4.274  -2.366  0.00  0.00    +0.010 A 
ENDBRANCH   4  10
BRANCH   8  16
ATOM     16  N   UNL     1       0.045  -1.948   3.559  0.00  0.00    -0.187 NA
ATOM     17  C   UNL     1       0.059  -2.574   4.696  0.00  0.00    +0.142 C 
BRANCH  17  18
ATOM     18  C   UNL     1       0.054  -1.812   5.957  0.00  0.00    +0.037 A 
ATOM     19  C   UNL     1       0.075  -2.482   7.182  0.00  0.00    +0.028 A 
ATOM     20  C   UNL     1       0.070  -1.762   8.360  0.00  0.00    +0.019 A 
ATOM     21  C   UNL     1       0.046  -0.377   8.331  0.00  0.00    +0.019 A 
ATOM     22  C   UNL     1       0.025   0.296   7.124  0.00  0.00    +0.047 A 
ATOM     23  C   UNL     1       0.035  -0.411   5.933  0.00  0.00    +0.126 A 
ATOM     24 BR   UNL     1       0.098  -2.669  10.018  0.00  0.00    -0.050 Br
BRANCH  23  25
ATOM     25  O   UNL     1       0.021   0.251   4.747  0.00  0.00    -0.506 OA
ATOM     26  H   UNL     1      -0.867   0.431   4.408  0.00  0.00    +0.292 HD
ENDBRANCH  23  25
ENDBRANCH  17  18
ENDBRANCH   8  16
TORSDOF 4
