REMARK  Name = ZINC33033467
REMARK  11 active torsions:
REMARK  status: ('A' for Active; 'I' for Inactive)
REMARK    1  A    between atoms: C_1  and  C_2
REMARK    2  A    between atoms: C_2  and  C_3
REMARK    3  A    between atoms: C_6  and  S_9
REMARK    4  A    between atoms: S_9  and  N_12
REMARK    5  A    between atoms: N_12  and  C_13
REMARK    6  A    between atoms: C_15  and  C_25
REMARK    7  A    between atoms: C_18  and  N_19
REMARK    8  A    between atoms: N_27  and  C_28
REMARK    9  A    between atoms: N_27  and  C_31
REMARK   10  A    between atoms: C_28  and  C_29
REMARK   11  A    between atoms: C_31  and  C_32
REMARK                            x       y       z     vdW  Elec       q    Type
REMARK                         _______ _______ _______ _____ _____    ______ ____
ROOT
ATOM      1  C   UNL     1       3.594  -4.343   0.673  0.00  0.00    +0.070 A 
ATOM      2  C   UNL     1       2.665  -3.477   1.218  0.00  0.00    +0.039 A 
ATOM      3  C   UNL     1       1.620  -2.990   0.428  0.00  0.00    +0.039 A 
ATOM      4  C   UNL     1       1.515  -3.384  -0.909  0.00  0.00    +0.015 A 
ATOM      5  C   UNL     1       2.446  -4.243  -1.450  0.00  0.00    +0.026 A 
ATOM      6  C   UNL     1       3.486  -4.729  -0.666  0.00  0.00    +0.052 A 
ENDROOT
BRANCH   6   7
ATOM      7  N   UNL     1       4.423  -5.601  -1.216  0.00  0.00    -0.332 N 
ATOM      8  C   UNL     1       3.992  -6.069  -2.541  0.00  0.00    +0.086 C 
ATOM      9  C   UNL     1       5.006  -7.084  -3.075  0.00  0.00    -0.063 C 
ATOM     10  N   UNL     1       6.333  -6.456  -3.146  0.00  0.00    +0.381 N 
ATOM     11  C   UNL     1       6.763  -5.989  -1.821  0.00  0.00    -0.063 C 
ATOM     12  C   UNL     1       5.750  -4.974  -1.288  0.00  0.00    +0.086 C 
ATOM     13  H   UNL     1       7.065  -7.188  -3.518  0.00  0.00    -0.086 HD
ATOM     14  H   UNL     1       6.295  -5.595  -3.830  0.00  0.00    -0.086 HD
ENDBRANCH   6   7
BRANCH   3  15
ATOM     15  C   UNL     1       0.626  -2.065   1.005  0.00  0.00    +0.247 C 
ATOM     16  O   UNL     1       0.814  -0.865   0.960  0.00  0.00    -0.270 OA
ATOM     17  N   UNL     1      -0.491  -2.551   1.583  0.00  0.00    -0.290 N 
BRANCH  17  18
ATOM     18  C   UNL     1      -1.513  -1.632   2.089  0.00  0.00    +0.135 C 
BRANCH  18  19
ATOM     19  C   UNL     1      -1.219  -1.295   3.528  0.00  0.00    -0.016 C 
ATOM     20  C   UNL     1      -1.103  -0.044   3.897  0.00  0.00    +0.005 C 
ENDBRANCH  18  19
ENDBRANCH  17  18
BRANCH  17  21
ATOM     21  C   UNL     1      -0.682  -3.999   1.705  0.00  0.00    +0.135 C 
BRANCH  21  22
ATOM     22  C   UNL     1      -1.756  -4.446   0.748  0.00  0.00    -0.016 C 
ATOM     23  C   UNL     1      -1.507  -5.397  -0.118  0.00  0.00    +0.005 C 
ENDBRANCH  21  22
ENDBRANCH  17  21
ENDBRANCH   3  15
BRANCH   1  24
ATOM     24  N   UNL     1       4.642  -4.833   1.462  0.00  0.00    -0.214 N 
ATOM     25  H   UNL     1       5.685  -4.668   1.154  0.00  0.00    +0.174 HD
BRANCH  24  26
ATOM     26  S   UNL     1       4.311  -5.662   2.857  0.00  0.00    +0.072 S 
ATOM     27  O   UNL     1       5.559  -6.110   3.369  0.00  0.00    -0.150 OA
ATOM     28  O   UNL     1       3.425  -4.848   3.612  0.00  0.00    -0.150 OA
BRANCH  26  32
ATOM     29  C   UNL     1       1.986  -9.368   1.693  0.00  0.00    -0.048 A 
ATOM     30  C   UNL     1       3.367  -9.409   1.753  0.00  0.00    +0.005 A 
ATOM     31  C   UNL     1       4.077  -8.277   2.108  0.00  0.00    +0.029 A 
ATOM     32  C   UNL     1       3.406  -7.105   2.403  0.00  0.00    +0.109 A 
ATOM     33  C   UNL     1       2.026  -7.066   2.348  0.00  0.00    +0.029 A 
ATOM     34  C   UNL     1       1.316  -8.196   1.988  0.00  0.00    +0.005 A 
BRANCH  29  36
ATOM     35  C   UNL     1       0.879 -11.411   2.559  0.00  0.00    +0.009 C 
ATOM     36  C   UNL     1       1.213 -10.601   1.304  0.00  0.00    +0.032 C 
ENDBRANCH  29  36
ENDBRANCH  26  32
ENDBRANCH  24  26
ENDBRANCH   1  24
TORSDOF 10
