REMARK  Name = ZINC09559545
REMARK  7 active torsions:
REMARK  status: ('A' for Active; 'I' for Inactive)
REMARK    1  A    between atoms: C_6  and  C_7
REMARK    2  A    between atoms: C_7  and  N_8
REMARK    3  A    between atoms: C_9  and  C_11
REMARK    4  A    between atoms: C_14  and  C_17
REMARK    5  A    between atoms: C_17  and  N_18
REMARK    6  A    between atoms: N_18  and  S_19
REMARK    7  A    between atoms: S_19  and  C_22
REMARK                            x       y       z     vdW  Elec       q    Type
REMARK                         _______ _______ _______ _____ _____    ______ ____
ROOT
ATOM      1  C   UNL     1      -1.330   1.944   0.019  0.00  0.00    +0.075 C 
ATOM      2  C   UNL     1      -1.417   2.816   1.273  0.00  0.00    +0.013 C 
ATOM      3  C   UNL     1      -2.752   3.563   1.284  0.00  0.00    +0.005 C 
ATOM      4  C   UNL     1      -3.901   2.553   1.284  0.00  0.00    +0.005 C 
ATOM      5  C   UNL     1      -3.814   1.681   0.029  0.00  0.00    +0.005 C 
ATOM      6  C   UNL     1      -2.479   0.934   0.019  0.00  0.00    +0.013 C 
ENDROOT
BRANCH   1   8
ATOM      7  N   UNL     1       1.143   1.898   0.001  0.00  0.00    -0.311 N 
ATOM      8  C   UNL     1      -0.014   1.209   0.009  0.00  0.00    +0.216 C 
ATOM      9  O   UNL     1       0.002  -0.004   0.002  0.00  0.00    -0.276 OA
ATOM     10  H   UNL     1       1.130   2.868   0.007  0.00  0.00    +0.149 HD
BRANCH   7  11
ATOM     11  C   UNL     1       2.422   1.183  -0.015  0.00  0.00    +0.139 C 
BRANCH  11  17
ATOM     12  C   UNL     1       4.064   2.635  -1.220  0.00  0.00    +0.009 A 
ATOM     13  C   UNL     1       5.099   3.552  -1.231  0.00  0.00    +0.050 A 
ATOM     14  C   UNL     1       5.636   4.005  -0.037  0.00  0.00    +0.166 A 
ATOM     15  C   UNL     1       5.125   3.541   1.173  0.00  0.00    +0.167 A 
ATOM     16  C   UNL     1       4.084   2.627   1.176  0.00  0.00    +0.054 A 
ATOM     17  C   UNL     1       3.554   2.178  -0.020  0.00  0.00    -0.027 A 
ATOM     18  O   UNL     1       5.814   4.131   2.193  0.00  0.00    -0.453 OA
ATOM     19  C   UNL     1       7.018   4.647   1.595  0.00  0.00    +0.466 C 
ATOM     20  O   UNL     1       6.644   4.887   0.226  0.00  0.00    -0.453 OA
ENDBRANCH  11  17
ENDBRANCH   7  11
ENDBRANCH   1   8
BRANCH   4  21
ATOM     21  C   UNL     1      -5.236   3.300   1.294  0.00  0.00    +0.109 C 
BRANCH  21  22
ATOM     22  N   UNL     1      -5.372   4.041   2.551  0.00  0.00    -0.189 NA
ATOM     23  H   UNL     1      -4.788   3.839   3.298  0.00  0.00    +0.148 HD
BRANCH  22  24
ATOM     24  S   UNL     1      -6.522   5.224   2.695  0.00  0.00    +0.065 S 
ATOM     25  O   UNL     1      -6.421   5.729   4.019  0.00  0.00    -0.153 OA
ATOM     26  O   UNL     1      -6.394   6.056   1.550  0.00  0.00    -0.153 OA
BRANCH  24  27
ATOM     27  C   UNL     1      -8.095   4.439   2.574  0.00  0.00    +0.143 A 
ATOM     28  C   UNL     1      -8.867   3.920   3.559  0.00  0.00    +0.037 A 
ATOM     29  C   UNL     1     -10.080   3.345   3.227  0.00  0.00    +0.025 A 
ATOM     30  C   UNL     1     -10.460   3.317   1.926  0.00  0.00    +0.057 A 
ATOM     31  S   UNL     1      -9.086   4.127   1.123  0.00  0.00    -0.062 S 
ATOM     32 BR   UNL     1     -12.039   2.610   1.161  0.00  0.00    -0.043 Br
ENDBRANCH  24  27
ENDBRANCH  22  24
ENDBRANCH  21  22
ENDBRANCH   4  21
TORSDOF 7
