REMARK  Name = ZINC20874594
REMARK  8 active torsions:
REMARK  status: ('A' for Active; 'I' for Inactive)
REMARK    1  A    between atoms: C_1  and  C_2
REMARK    2  A    between atoms: C_5  and  C_8
REMARK    3  A    between atoms: C_8  and  O_9
REMARK    4  A    between atoms: O_9  and  C_10
REMARK    5  A    between atoms: C_15  and  C_16
REMARK    6  A    between atoms: C_16  and  N_17
REMARK    7  A    between atoms: N_17  and  C_18
REMARK    8  A    between atoms: C_18  and  C_19
REMARK                            x       y       z     vdW  Elec       q    Type
REMARK                         _______ _______ _______ _____ _____    ______ ____
ROOT
ATOM      1  C   UNL     1      -5.190   0.719   3.615  0.00  0.00    +0.122 A 
ATOM      2  C   UNL     1      -5.555   0.487   4.933  0.00  0.00    +0.047 A 
ATOM      3  C   UNL     1      -5.297  -0.738   5.515  0.00  0.00    +0.019 A 
ATOM      4  C   UNL     1      -4.680  -1.737   4.782  0.00  0.00    +0.018 A 
ATOM      5  C   UNL     1      -4.322  -1.510   3.466  0.00  0.00    +0.020 A 
ATOM      6  C   UNL     1      -4.577  -0.285   2.880  0.00  0.00    -0.022 A 
ATOM      7 BR   UNL     1      -4.328  -3.414   5.582  0.00  0.00    -0.050 Br
ENDROOT
BRANCH   1   8
ATOM      8  O   UNL     1      -5.437   1.927   3.042  0.00  0.00    -0.487 OA
BRANCH   8   9
ATOM      9  C   UNL     1      -6.071   2.914   3.858  0.00  0.00    +0.264 C 
BRANCH   9  14
ATOM     10  C   UNL     1      -6.808   7.759   0.797  0.00  0.00    +0.044 C 
ATOM     11  C   UNL     1      -6.616   6.496   1.595  0.00  0.00    -0.050 A 
ATOM     12  C   UNL     1      -7.600   5.525   1.601  0.00  0.00    +0.004 A 
ATOM     13  C   UNL     1      -7.424   4.366   2.333  0.00  0.00    +0.007 A 
ATOM     14  C   UNL     1      -6.263   4.178   3.059  0.00  0.00    -0.010 A 
ATOM     15  C   UNL     1      -5.281   5.150   3.058  0.00  0.00    +0.007 A 
ATOM     16  C   UNL     1      -5.455   6.307   2.322  0.00  0.00    +0.004 A 
ENDBRANCH   9  14
ENDBRANCH   8   9
ENDBRANCH   1   8
BRANCH   6  17
ATOM     17  C   UNL     1      -4.186  -0.039   1.446  0.00  0.00    -0.043 C 
BRANCH  17  18
ATOM     18  N   UNL     1      -2.926   0.716   1.405  0.00  0.00    +0.384 N 
ATOM     19  H   UNL     1      -3.059   1.679   1.919  0.00  0.00    -0.085 HD
ATOM     20  H   UNL     1      -2.136   0.138   1.907  0.00  0.00    -0.085 HD
BRANCH  18  21
ATOM     21  C   UNL     1      -2.513   0.975   0.019  0.00  0.00    -0.046 C 
BRANCH  21  22
ATOM     22  C   UNL     1      -1.220   1.749   0.017  0.00  0.00    -0.061 A 
ATOM     23  C   UNL     1      -0.013   1.076   0.008  0.00  0.00    +0.005 A 
ATOM     24  C   UNL     1       1.176   1.782   0.000  0.00  0.00    +0.050 A 
ATOM     25  C   UNL     1       1.160   3.167   0.008  0.00  0.00    +0.166 A 
ATOM     26  C   UNL     1      -0.057   3.845   0.022  0.00  0.00    +0.166 A 
ATOM     27  C   UNL     1      -1.244   3.131   0.031  0.00  0.00    +0.051 A 
ATOM     28  O   UNL     1       0.192   5.188   0.026  0.00  0.00    -0.453 OA
ATOM     29  C   UNL     1       1.561   5.326  -0.398  0.00  0.00    +0.466 C 
ATOM     30  O   UNL     1       2.171   4.084   0.002  0.00  0.00    -0.453 OA
ENDBRANCH  21  22
ENDBRANCH  18  21
ENDBRANCH  17  18
ENDBRANCH   6  17
TORSDOF 7
