REMARK  Name = ZINC39365045
REMARK  6 active torsions:
REMARK  status: ('A' for Active; 'I' for Inactive)
REMARK    1  A    between atoms: C_1  and  N_2
REMARK    2  A    between atoms: N_2  and  C_3
REMARK    3  A    between atoms: C_3  and  N_5
REMARK    4  A    between atoms: C_6  and  C_30
REMARK    5  A    between atoms: C_9  and  C_11
REMARK    6  A    between atoms: C_13  and  C_24
REMARK                            x       y       z     vdW  Elec       q    Type
REMARK                         _______ _______ _______ _____ _____    ______ ____
ROOT
ATOM      1  C   UNL     1       0.851  -5.205  -0.051  0.00  0.00    +0.152 C 
ATOM      2  C   UNL     1       2.175  -4.493  -0.249  0.00  0.00    -0.014 C 
ATOM      3  C   UNL     1       3.138  -4.654   0.752  0.00  0.00    +0.002 A 
ATOM      4  C   UNL     1       4.397  -4.026   0.648  0.00  0.00    +0.030 A 
ATOM      5  C   UNL     1       5.316  -4.199   1.637  0.00  0.00    +0.042 A 
ATOM      6  C   UNL     1       5.040  -4.986   2.753  0.00  0.00    +0.022 A 
ATOM      7  C   UNL     1       3.842  -5.616   2.909  0.00  0.00    +0.025 A 
ATOM      8  C   UNL     1       2.845  -5.482   1.927  0.00  0.00    +0.041 A 
ATOM      9  N   UNL     1       1.670  -6.102   2.082  0.00  0.00    -0.284 N 
ATOM     10  C   UNL     1       0.686  -6.025   1.208  0.00  0.00    +0.230 C 
ATOM     11  O   UNL     1      -0.357  -6.617   1.416  0.00  0.00    -0.274 OA
ATOM     12 CL   UNL     1       6.864  -3.424   1.504  0.00  0.00    -0.084 Cl
ATOM     13  H   UNL     1       1.535  -6.636   2.880  0.00  0.00    +0.155 HD
ENDROOT
BRANCH   2  14
ATOM     14  C   UNL     1       2.426  -3.700  -1.397  0.00  0.00    -0.020 A 
ATOM     15  C   UNL     1       2.679  -2.325  -1.266  0.00  0.00    +0.008 A 
ATOM     16  C   UNL     1       2.921  -1.564  -2.387  0.00  0.00    +0.001 A 
ATOM     17  C   UNL     1       2.915  -2.150  -3.643  0.00  0.00    +0.000 A 
ATOM     18  C   UNL     1       2.666  -3.506  -3.784  0.00  0.00    +0.001 A 
ATOM     19  C   UNL     1       2.428  -4.286  -2.674  0.00  0.00    +0.008 A 
ENDBRANCH   2  14
BRANCH   1  23
ATOM     20  N   UNL     1      -1.223  -2.153  -0.094  0.00  0.00    -0.197 N 
ATOM     21  C   UNL     1      -2.377  -3.067  -0.114  0.00  0.00    +0.136 C 
ATOM     22  C   UNL     1      -1.723  -4.463  -0.100  0.00  0.00    +0.083 C 
ATOM     23  C   UNL     1      -0.240  -4.167  -0.073  0.00  0.00    +0.055 C 
ATOM     24  N   UNL     1      -0.054  -2.911  -0.077  0.00  0.00    -0.185 NA
BRANCH  21  25
ATOM     25  C   UNL     1      -3.236  -2.866   1.108  0.00  0.00    -0.025 A 
ATOM     26  C   UNL     1      -2.647  -2.613   2.333  0.00  0.00    +0.005 A 
ATOM     27  C   UNL     1      -3.434  -2.429   3.454  0.00  0.00    +0.000 A 
ATOM     28  C   UNL     1      -4.811  -2.497   3.350  0.00  0.00    +0.000 A 
ATOM     29  C   UNL     1      -5.400  -2.749   2.125  0.00  0.00    +0.000 A 
ATOM     30  C   UNL     1      -4.613  -2.929   1.004  0.00  0.00    +0.005 A 
ENDBRANCH  21  25
BRANCH  20  31
ATOM     31  C   UNL     1      -1.287  -0.807  -0.097  0.00  0.00    +0.153 C 
ATOM     32  S   UNL     1      -2.808  -0.022  -0.120  0.00  0.00    -0.017 S 
BRANCH  31  34
ATOM     33  C   UNL     1      -0.222   1.385  -0.087  0.00  0.00    +0.127 C 
ATOM     34  N   UNL     1      -0.153  -0.079  -0.083  0.00  0.00    -0.328 N 
ATOM     35  H   UNL     1       0.709  -0.523  -0.070  0.00  0.00    +0.147 HD
ENDBRANCH  31  34
ENDBRANCH  20  31
ENDBRANCH   1  23
TORSDOF 5
