REMARK  Name = ZINC00898881
REMARK  12 active torsions:
REMARK  status: ('A' for Active; 'I' for Inactive)
REMARK    1  A    between atoms: C_1  and  C_2
REMARK    2  A    between atoms: C_2  and  C_31
REMARK    3  A    between atoms: C_3  and  C_4
REMARK    4  A    between atoms: C_4  and  C_5
REMARK    5  A    between atoms: C_6  and  O_30
REMARK    6  A    between atoms: C_7  and  C_25
REMARK    7  A    between atoms: C_10  and  O_11
REMARK    8  A    between atoms: C_15  and  C_18
REMARK    9  A    between atoms: C_21  and  O_24
REMARK   10  A    between atoms: C_25  and  C_26
REMARK   11  A    between atoms: C_27  and  C_28
REMARK   12  A    between atoms: C_27  and  C_29
REMARK                            x       y       z     vdW  Elec       q    Type
REMARK                         _______ _______ _______ _____ _____    ______ ____
ROOT
ATOM      1  C   UNL     1      -1.251   0.641   3.361  0.00  0.00    +0.040 A 
ATOM      2  C   UNL     1      -2.635   0.746   3.297  0.00  0.00    +0.131 A 
ATOM      3  C   UNL     1      -3.439   0.067   4.204  0.00  0.00    +0.041 A 
ATOM      4  C   UNL     1      -2.868  -0.724   5.185  0.00  0.00    +0.142 A 
ATOM      5  C   UNL     1      -1.467  -0.827   5.257  0.00  0.00    +0.101 A 
ATOM      6  C   UNL     1      -0.659  -0.147   4.331  0.00  0.00    +0.138 A 
ATOM      7  C   UNL     1      -0.866  -1.654   6.309  0.00  0.00    +0.174 C 
ATOM      8  O   UNL     1       0.322  -1.607   6.557  0.00  0.00    -0.292 OA
ATOM      9  C   UNL     1      -1.805  -2.570   7.072  0.00  0.00    +0.129 C 
ATOM     10  C   UNL     1      -3.104  -1.788   7.315  0.00  0.00    +0.211 C 
ATOM     11  O   UNL     1      -3.657  -1.390   6.061  0.00  0.00    -0.483 OA
ENDROOT
BRANCH  10  12
ATOM     12  C   UNL     1      -4.090  -2.665   8.044  0.00  0.00    -0.007 A 
ATOM     13  C   UNL     1      -4.822  -3.608   7.347  0.00  0.00    +0.011 A 
ATOM     14  C   UNL     1      -5.726  -4.412   8.013  0.00  0.00    +0.046 A 
ATOM     15  C   UNL     1      -5.900  -4.273   9.382  0.00  0.00    +0.117 A 
ATOM     16  C   UNL     1      -5.164  -3.326  10.079  0.00  0.00    +0.046 A 
ATOM     17  C   UNL     1      -4.257  -2.528   9.410  0.00  0.00    +0.011 A 
BRANCH  15  18
ATOM     18  O   UNL     1      -6.789  -5.063  10.039  0.00  0.00    -0.507 OA
ATOM     19  H   UNL     1      -6.412  -5.889  10.371  0.00  0.00    +0.292 HD
ENDBRANCH  15  18
ENDBRANCH  10  12
BRANCH   6  20
ATOM     20  O   UNL     1       0.691  -0.257   4.392  0.00  0.00    -0.506 OA
ATOM     21  H   UNL     1       1.115   0.406   4.954  0.00  0.00    +0.292 HD
ENDBRANCH   6  20
BRANCH   2  22
ATOM     22  O   UNL     1      -3.207   1.520   2.341  0.00  0.00    -0.506 OA
ATOM     23  H   UNL     1      -3.400   1.050   1.518  0.00  0.00    +0.292 HD
ENDBRANCH   2  22
BRANCH   1  24
ATOM     24  C   UNL     1      -0.394   1.382   2.367  0.00  0.00    +0.069 C 
BRANCH  24  27
ATOM     25  C   UNL     1      -1.115   2.301  -0.200  0.00  0.00    +0.038 C 
ATOM     26  C   UNL     1      -0.545   0.916  -0.025  0.00  0.00    -0.079 C 
ATOM     27  C   UNL     1      -0.158   0.512   1.159  0.00  0.00    -0.023 C 
ATOM     28  C   UNL     1      -0.422  -0.003  -1.213  0.00  0.00    +0.038 C 
ENDBRANCH  24  27
ENDBRANCH   1  24
BRANCH   3  29
ATOM     29  C   UNL     1      -4.939   0.192   4.118  0.00  0.00    +0.069 C 
BRANCH  29  30
ATOM     30  C   UNL     1      -5.482  -0.884   3.213  0.00  0.00    -0.023 C 
ATOM     31  C   UNL     1      -6.367  -1.736   3.667  0.00  0.00    -0.079 C 
ATOM     32  C   UNL     1      -6.820  -1.659   5.103  0.00  0.00    +0.038 C 
ATOM     33  C   UNL     1      -6.934  -2.792   2.754  0.00  0.00    +0.038 C 
ENDBRANCH  29  30
ENDBRANCH   3  29
TORSDOF 8
