REMARK  Name = ZINC59168947
REMARK  4 active torsions:
REMARK  status: ('A' for Active; 'I' for Inactive)
REMARK    1  A    between atoms: C_4  and  C_7
REMARK    2  A    between atoms: C_7  and  C_8
REMARK    3  A    between atoms: C_14  and  C_16
REMARK    4  A    between atoms: C_19  and  O_22
REMARK                            x       y       z     vdW  Elec       q    Type
REMARK                         _______ _______ _______ _____ _____    ______ ____
ROOT
ATOM      1  C   UNL     1       4.164  -0.959   1.377  0.00  0.00    +0.160 A 
ATOM      2  N   UNL     1       4.905  -0.165   2.098  0.00  0.00    -0.131 NA
ATOM      3  N   UNL     1       5.106  -0.681   3.260  0.00  0.00    -0.120 NA
ATOM      4  C   UNL     1       4.502  -1.829   3.332  0.00  0.00    +0.218 A 
ATOM      5  N   UNL     1       3.863  -2.070   2.139  0.00  0.00    -0.190 N 
ATOM      6  N   UNL     1       3.157  -3.261   2.044  0.00  0.00    -0.156 NA
ATOM      7  C   UNL     1       3.108  -4.102   3.046  0.00  0.00    +0.132 A 
ATOM      8  S   UNL     1       4.099  -3.275   4.280  0.00  0.00    -0.026 S 
ENDROOT
BRANCH   7   9
ATOM      9  C   UNL     1       2.415  -5.406   3.132  0.00  0.00    +0.009 A 
ATOM     10  C   UNL     1       1.694  -5.888   2.038  0.00  0.00    +0.014 A 
ATOM     11  C   UNL     1       1.050  -7.104   2.122  0.00  0.00    +0.046 A 
ATOM     12  C   UNL     1       1.118  -7.849   3.292  0.00  0.00    +0.117 A 
ATOM     13  C   UNL     1       1.834  -7.372   4.382  0.00  0.00    +0.046 A 
ATOM     14  C   UNL     1       2.486  -6.160   4.304  0.00  0.00    +0.014 A 
BRANCH  12  15
ATOM     15  O   UNL     1       0.482  -9.047   3.371  0.00  0.00    -0.507 OA
ATOM     16  H   UNL     1       1.023  -9.799   3.094  0.00  0.00    +0.292 HD
ENDBRANCH  12  15
ENDBRANCH   7   9
BRANCH   1  17
ATOM     17  C   UNL     1       3.711  -0.707  -0.038  0.00  0.00    +0.113 C 
BRANCH  17  21
ATOM     18  C   UNL     1      -0.017   1.378   0.010  0.00  0.00    +0.000 A 
ATOM     19  C   UNL     1       1.171   2.086   0.002  0.00  0.00    +0.000 A 
ATOM     20  C   UNL     1       2.377   1.411  -0.013  0.00  0.00    +0.004 A 
ATOM     21  C   UNL     1       2.396   0.029  -0.020  0.00  0.00    -0.040 A 
ATOM     22  C   UNL     1       1.208  -0.679  -0.012  0.00  0.00    +0.004 A 
ATOM     23  C   UNL     1       0.002  -0.004   0.002  0.00  0.00    +0.000 A 
ENDBRANCH  17  21
ENDBRANCH   1  17
TORSDOF 4
