REMARK  Name = ZINC52586353
REMARK  8 active torsions:
REMARK  status: ('A' for Active; 'I' for Inactive)
REMARK    1  A    between atoms: C_1  and  C_2
REMARK    2  A    between atoms: C_7  and  C_9
REMARK    3  A    between atoms: C_7  and  N_25
REMARK    4  A    between atoms: C_9  and  N_10
REMARK    5  A    between atoms: C_16  and  C_19
REMARK    6  A    between atoms: N_21  and  C_22
REMARK    7  A    between atoms: N_25  and  C_26
REMARK    8  A    between atoms: N_25  and  C_27
REMARK                            x       y       z     vdW  Elec       q    Type
REMARK                         _______ _______ _______ _____ _____    ______ ____
ROOT
ATOM      1  N   UNL     1       1.266  -4.225   2.404  0.00  0.00    -0.301 N 
ATOM      2  C   UNL     1       1.716  -5.065   3.357  0.00  0.00    +0.302 C 
ATOM      3  O   UNL     1       2.387  -4.638   4.277  0.00  0.00    -0.253 OA
ATOM      4  N   UNL     1       1.423  -6.379   3.290  0.00  0.00    -0.286 N 
ATOM      5  C   UNL     1       0.720  -6.931   2.124  0.00  0.00    +0.110 C 
ATOM      6  C   UNL     1      -0.513  -7.698   2.610  0.00  0.00    +0.032 C 
ATOM      7  C   UNL     1      -0.084  -8.747   3.639  0.00  0.00    +0.078 C 
ATOM      8  C   UNL     1       0.557  -8.051   4.842  0.00  0.00    +0.032 C 
ATOM      9  C   UNL     1       1.807  -7.288   4.378  0.00  0.00    +0.110 C 
ATOM     10  H   UNL     1       0.799  -4.575   1.629  0.00  0.00    +0.150 HD
ENDROOT
BRANCH   7  11
ATOM     11  C   UNL     1      -1.290  -9.527   4.094  0.00  0.00    +0.216 C 
ATOM     12  O   UNL     1      -2.385  -9.270   3.640  0.00  0.00    -0.276 OA
ATOM     13  N   UNL     1      -1.153 -10.510   5.005  0.00  0.00    -0.312 N 
ATOM     14  H   UNL     1      -0.277 -10.716   5.368  0.00  0.00    +0.149 HD
BRANCH  13  15
ATOM     15  C   UNL     1      -2.325 -11.268   5.448  0.00  0.00    +0.073 C 
ATOM     16  C   UNL     1      -2.461 -11.550   6.945  0.00  0.00    +0.024 C 
ATOM     17  C   UNL     1      -2.091 -12.682   5.985  0.00  0.00    +0.024 C 
ENDBRANCH  13  15
ENDBRANCH   7  11
BRANCH   1  18
ATOM     18  C   UNL     1       1.480  -2.782   2.539  0.00  0.00    +0.094 C 
BRANCH  18  24
ATOM     19  C   UNL     1       1.280  -2.150  -2.413  0.00  0.00    +0.007 C 
ATOM     20  C   UNL     1       0.665  -1.735  -1.075  0.00  0.00    -0.015 C 
ATOM     21  C   UNL     1      -0.820  -2.100  -1.062  0.00  0.00    +0.003 C 
ATOM     22  C   UNL     1      -1.436  -1.686   0.276  0.00  0.00    -0.001 C 
ATOM     23  C   UNL     1      -0.720  -2.417   1.414  0.00  0.00    -0.010 C 
ATOM     24  C   UNL     1       0.765  -2.051   1.401  0.00  0.00    -0.050 C 
ATOM     25  C   UNL     1       1.380  -2.466   0.063  0.00  0.00    -0.007 C 
BRANCH  24  26
ATOM     26  N   UNL     1       0.914  -0.601   1.580  0.00  0.00    +0.381 N 
ATOM     27  C   UNL     1       0.386  -0.213   2.895  0.00  0.00    -0.096 C 
ATOM     28  C   UNL     1       2.336  -0.241   1.498  0.00  0.00    -0.096 C 
ATOM     29  H   UNL     1       0.403  -0.118   0.857  0.00  0.00    -0.082 HD
ENDBRANCH  24  26
ENDBRANCH  18  24
ENDBRANCH   1  18
TORSDOF 5
