REMARK  Name = ZINC08815773
REMARK  8 active torsions:
REMARK  status: ('A' for Active; 'I' for Inactive)
REMARK    1  A    between atoms: C_1  and  C_2
REMARK    2  A    between atoms: C_5  and  N_9
REMARK    3  A    between atoms: C_7  and  C_8
REMARK    4  A    between atoms: C_10  and  C_12
REMARK    5  A    between atoms: C_12  and  N_13
REMARK    6  A    between atoms: C_17  and  C_18
REMARK    7  A    between atoms: C_21  and  C_23
REMARK    8  A    between atoms: C_26  and  C_29
REMARK                            x       y       z     vdW  Elec       q    Type
REMARK                         _______ _______ _______ _____ _____    ______ ____
ROOT
ATOM      1  N   UNL     1      -2.349   5.586   0.357  0.00  0.00    -0.219 N 
ATOM      2  C   UNL     1      -2.201   6.132   1.552  0.00  0.00    +0.261 C 
ATOM      3  O   UNL     1      -2.299   5.474   2.572  0.00  0.00    -0.269 OA
ATOM      4  C   UNL     1      -1.907   7.575   1.589  0.00  0.00    +0.083 C 
ATOM      5  C   UNL     1      -1.704   8.394   2.661  0.00  0.00    +0.066 C 
ATOM      6  S   UNL     1      -1.896   7.960  -0.157  0.00  0.00    -0.026 S 
ATOM      7  C   UNL     1      -2.246   6.319  -0.770  0.00  0.00    +0.286 C 
ATOM      8  O   UNL     1      -2.363   5.953  -1.924  0.00  0.00    -0.262 OA
ENDROOT
BRANCH   5   9
ATOM      9  C   UNL     1      -1.606   7.846   3.959  0.00  0.00    +0.130 A 
ATOM     10  C   UNL     1      -1.304   8.547   5.113  0.00  0.00    +0.050 A 
ATOM     11  C   UNL     1      -1.314   7.622   6.161  0.00  0.00    +0.050 A 
ATOM     12  C   UNL     1      -1.612   6.395   5.611  0.00  0.00    +0.136 A 
ATOM     13  O   UNL     1      -1.784   6.550   4.285  0.00  0.00    -0.455 OA
BRANCH  12  14
ATOM     14  C   UNL     1      -1.724   5.125   6.351  0.00  0.00    +0.017 A 
ATOM     15  C   UNL     1      -1.515   5.101   7.734  0.00  0.00    +0.013 A 
ATOM     16  C   UNL     1      -1.625   3.925   8.421  0.00  0.00    +0.019 A 
ATOM     17  C   UNL     1      -1.934   2.744   7.739  0.00  0.00    +0.052 A 
ATOM     18  C   UNL     1      -2.137   2.767   6.356  0.00  0.00    +0.019 A 
ATOM     19  C   UNL     1      -2.033   3.943   5.670  0.00  0.00    +0.013 A 
BRANCH  17  20
ATOM     20  C   UNL     1      -2.042   1.510   8.458  0.00  0.00    +0.099 C 
ATOM     21  N   UNL     1      -2.129   0.531   9.028  0.00  0.00    -0.191 NA
ENDBRANCH  17  20
ENDBRANCH  12  14
ENDBRANCH   5   9
BRANCH   1  22
ATOM     22  C   UNL     1      -2.638   4.153   0.255  0.00  0.00    +0.213 C 
BRANCH  22  24
ATOM     23  N   UNL     1      -1.365   2.041   0.067  0.00  0.00    -0.284 N 
ATOM     24  C   UNL     1      -1.345   3.385   0.168  0.00  0.00    +0.235 C 
ATOM     25  O   UNL     1      -0.286   3.976   0.189  0.00  0.00    -0.274 OA
ATOM     26  H   UNL     1      -2.211   1.573  -0.015  0.00  0.00    +0.155 HD
BRANCH  23  31
ATOM     27  C   UNL     1       3.494  -0.888   0.103  0.00  0.00    +0.044 C 
ATOM     28  C   UNL     1       2.203  -0.109   0.095  0.00  0.00    -0.047 A 
ATOM     29  C   UNL     1       2.151   1.133  -0.510  0.00  0.00    +0.005 A 
ATOM     30  C   UNL     1       0.971   1.850  -0.519  0.00  0.00    +0.023 A 
ATOM     31  C   UNL     1      -0.165   1.321   0.080  0.00  0.00    +0.034 A 
ATOM     32  C   UNL     1      -0.110   0.073   0.686  0.00  0.00    +0.027 A 
ATOM     33  C   UNL     1       1.074  -0.639   0.692  0.00  0.00    -0.046 A 
ATOM     34  C   UNL     1       1.135  -1.993   1.349  0.00  0.00    +0.044 C 
ENDBRANCH  23  31
ENDBRANCH  22  24
ENDBRANCH   1  22
TORSDOF 6
