REMARK  Name = ZINC06154841
REMARK  5 active torsions:
REMARK  status: ('A' for Active; 'I' for Inactive)
REMARK    1  A    between atoms: C_11  and  C_14
REMARK    2  A    between atoms: C_14  and  C_15
REMARK    3  A    between atoms: C_15  and  O_17
REMARK    4  A    between atoms: O_17  and  C_18
REMARK    5  A    between atoms: C_18  and  C_19
REMARK                            x       y       z     vdW  Elec       q    Type
REMARK                         _______ _______ _______ _____ _____    ______ ____
ROOT
ATOM      1  C   UNL     1       2.928   6.015  -1.409  0.00  0.00    +0.312 C 
ATOM      2  O   UNL     1       2.131   6.030  -2.317  0.00  0.00    -0.250 OA
ENDROOT
BRANCH   1   3
ATOM      3  C   UNL     1       2.457   6.189   0.011  0.00  0.00    +0.159 C 
BRANCH   3  14
ATOM      4  C   UNL     1      -0.013   1.076   0.008  0.00  0.00    +0.001 A 
ATOM      5  C   UNL     1       1.189   1.778   0.000  0.00  0.00    +0.001 A 
ATOM      6  C   UNL     1       1.202   3.142   0.007  0.00  0.00    +0.009 A 
ATOM      7  C   UNL     1      -0.006   3.847   0.023  0.00  0.00    -0.007 A 
ATOM      8  C   UNL     1      -1.230   3.135   0.031  0.00  0.00    -0.017 A 
ATOM      9  C   UNL     1      -1.207   1.731   0.017  0.00  0.00    +0.008 A 
ATOM     10  C   UNL     1      -2.445   3.846   0.045  0.00  0.00    +0.012 A 
ATOM     11  C   UNL     1      -2.465   5.202   0.052  0.00  0.00    +0.047 A 
ATOM     12  C   UNL     1      -1.285   5.954   0.045  0.00  0.00    +0.136 A 
ATOM     13  C   UNL     1      -0.047   5.304   0.030  0.00  0.00    +0.032 A 
ATOM     14  C   UNL     1       0.960   6.363   0.026  0.00  0.00    +0.009 A 
ATOM     15  C   UNL     1       0.282   7.522   0.038  0.00  0.00    +0.200 A 
ATOM     16  O   UNL     1      -1.039   7.280   0.050  0.00  0.00    -0.463 OA
ENDBRANCH   3  14
ENDBRANCH   1   3
BRANCH   1  17
ATOM     17  O   UNL     1       4.234   5.842  -1.667  0.00  0.00    -0.455 OA
BRANCH  17  18
ATOM     18  C   UNL     1       4.616   5.681  -3.059  0.00  0.00    +0.328 C 
BRANCH  18  19
ATOM     19  C   UNL     1       6.109   5.501  -3.152  0.00  0.00    +0.258 C 
ATOM     20  O   UNL     1       6.785   5.508  -2.145  0.00  0.00    -0.271 OA
ATOM     21  N   UNL     1       6.694   5.333  -4.355  0.00  0.00    -0.258 N 
ATOM     22  C   UNL     1       5.897   5.321  -5.591  0.00  0.00    +0.209 C 
ATOM     23  C   UNL     1       6.405   4.224  -6.492  0.00  0.00    +0.235 C 
ATOM     24  O   UNL     1       5.643   3.684  -7.266  0.00  0.00    -0.274 OA
ATOM     25  N   UNL     1       7.694   3.837  -6.449  0.00  0.00    -0.283 N 
ATOM     26  C   UNL     1       8.582   4.409  -5.532  0.00  0.00    +0.055 A 
ATOM     27  C   UNL     1       8.083   5.169  -4.468  0.00  0.00    +0.058 A 
ATOM     28  C   UNL     1       8.947   5.740  -3.552  0.00  0.00    +0.025 A 
ATOM     29  C   UNL     1      10.313   5.564  -3.694  0.00  0.00    +0.002 A 
ATOM     30  C   UNL     1      10.812   4.821  -4.747  0.00  0.00    +0.002 A 
ATOM     31  C   UNL     1       9.950   4.234  -5.666  0.00  0.00    +0.025 A 
ATOM     32  H   UNL     1       8.010   3.154  -7.061  0.00  0.00    +0.155 HD
ENDBRANCH  18  19
ENDBRANCH  17  18
ENDBRANCH   1  17
TORSDOF 5
