REMARK  Name = ZINC33669911
REMARK  6 active torsions:
REMARK  status: ('A' for Active; 'I' for Inactive)
REMARK    1  A    between atoms: C_2  and  C_3
REMARK    2  A    between atoms: C_3  and  N_4
REMARK    3  A    between atoms: C_7  and  C_12
REMARK    4  A    between atoms: N_21  and  C_23
REMARK    5  A    between atoms: N_26  and  C_29
REMARK    6  A    between atoms: C_29  and  C_30
REMARK                            x       y       z     vdW  Elec       q    Type
REMARK                         _______ _______ _______ _____ _____    ______ ____
ROOT
ATOM      1  N   UNL     1       6.568   4.892  -8.361  0.00  0.00    -0.253 N 
ATOM      2  C   UNL     1       5.814   4.832  -7.224  0.00  0.00    +0.043 C 
ATOM      3  C   UNL     1       4.543   5.281  -7.204  0.00  0.00    +0.058 C 
ATOM      4  C   UNL     1       3.979   5.857  -8.488  0.00  0.00    +0.142 C 
ATOM      5  N   UNL     1       4.872   5.878  -9.658  0.00  0.00    -0.288 N 
ATOM      6  C   UNL     1       6.122   5.390  -9.521  0.00  0.00    +0.307 C 
ATOM      7  O   UNL     1       6.866   5.403 -10.481  0.00  0.00    -0.252 OA
ATOM      8  C   UNL     1       3.981   5.109  -5.922  0.00  0.00    +0.247 C 
ATOM      9  O   UNL     1       2.846   5.427  -5.620  0.00  0.00    -0.270 OA
ATOM     10  N   UNL     1       4.864   4.546  -5.077  0.00  0.00    -0.289 N 
ATOM     11  C   UNL     1       6.108   4.327  -5.829  0.00  0.00    +0.159 C 
ATOM     12  H   UNL     1       4.515   6.285 -10.616  0.00  0.00    +0.151 HD
ENDROOT
BRANCH   4  13
ATOM     13  C   UNL     1       3.544   7.273  -8.210  0.00  0.00    -0.020 A 
ATOM     14  C   UNL     1       2.209   7.553  -7.983  0.00  0.00    +0.006 A 
ATOM     15  C   UNL     1       1.808   8.852  -7.729  0.00  0.00    +0.003 A 
ATOM     16  C   UNL     1       2.742   9.871  -7.700  0.00  0.00    +0.038 A 
ATOM     17  C   UNL     1       4.079   9.591  -7.927  0.00  0.00    +0.124 A 
ATOM     18  C   UNL     1       4.479   8.289  -8.177  0.00  0.00    +0.044 A 
ATOM     19  F   UNL     1       4.992  10.586  -7.900  0.00  0.00    -0.205 F 
ENDBRANCH   4  13
BRANCH  10  20
ATOM     20  C   UNL     1       4.631   4.220  -3.668  0.00  0.00    +0.073 C 
ATOM     21  C   UNL     1       4.283   5.496  -2.897  0.00  0.00    +0.004 C 
ATOM     22  C   UNL     1       3.981   5.140  -1.440  0.00  0.00    -0.077 C 
ATOM     23  N   UNL     1       2.859   4.194  -1.388  0.00  0.00    +0.382 N 
ATOM     24  C   UNL     1       3.187   2.942  -2.081  0.00  0.00    -0.077 C 
ATOM     25  C   UNL     1       3.466   3.232  -3.558  0.00  0.00    +0.004 C 
ATOM     26  H   UNL     1       2.008   4.654  -1.913  0.00  0.00    -0.081 HD
BRANCH  23  27
ATOM     27  C   UNL     1       2.451   3.937  -0.001  0.00  0.00    -0.043 C 
BRANCH  27  28
ATOM     28  C   UNL     1       1.156   3.165   0.008  0.00  0.00    -0.064 A 
ATOM     29  C   UNL     1       1.175   1.783   0.000  0.00  0.00    +0.002 A 
ATOM     30  C   UNL     1      -0.013   1.076   0.008  0.00  0.00    +0.000 A 
ATOM     31  C   UNL     1      -1.219   1.751   0.017  0.00  0.00    +0.000 A 
ATOM     32  C   UNL     1      -1.238   3.133   0.030  0.00  0.00    +0.000 A 
ATOM     33  C   UNL     1      -0.050   3.840   0.023  0.00  0.00    +0.002 A 
ENDBRANCH  27  28
ENDBRANCH  23  27
ENDBRANCH  10  20
BRANCH   1  34
ATOM     34  C   UNL     1       7.942   4.385  -8.308  0.00  0.00    +0.141 C 
BRANCH  34  36
ATOM     35  C   UNL     1       9.669   5.357  -6.883  0.00  0.00    +0.005 C 
ATOM     36  C   UNL     1       8.875   5.501  -7.914  0.00  0.00    -0.015 C 
ENDBRANCH  34  36
ENDBRANCH   1  34
TORSDOF 6
