REMARK  Name = ZINC06946907
REMARK  11 active torsions:
REMARK  status: ('A' for Active; 'I' for Inactive)
REMARK    1  A    between atoms: C_1  and  C_2
REMARK    2  A    between atoms: C_5  and  N_8
REMARK    3  A    between atoms: C_9  and  C_11
REMARK    4  A    between atoms: C_11  and  C_12
REMARK    5  A    between atoms: C_14  and  C_17
REMARK    6  A    between atoms: C_17  and  N_18
REMARK    7  A    between atoms: N_18  and  C_19
REMARK    8  A    between atoms: N_18  and  C_20
REMARK    9  A    between atoms: C_20  and  C_21
REMARK   10  A    between atoms: N_23  and  C_24
REMARK   11  A    between atoms: C_27  and  C_30
REMARK                            x       y       z     vdW  Elec       q    Type
REMARK                         _______ _______ _______ _____ _____    ______ ____
ROOT
ATOM      1  C   UNL     1       1.036  -6.758   3.127  0.00  0.00    +0.087 A 
ATOM      2  N   UNL     1      -0.027  -7.129   3.796  0.00  0.00    -0.250 NA
ATOM      3  C   UNL     1       0.069  -7.647   5.004  0.00  0.00    +0.032 A 
ATOM      4  C   UNL     1       1.319  -7.778   5.520  0.00  0.00    +0.068 A 
ATOM      5  S   UNL     1       2.299  -7.128   4.176  0.00  0.00    -0.080 S 
ENDROOT
BRANCH   1   6
ATOM      6  C   UNL     1       1.110  -6.153   1.748  0.00  0.00    +0.159 C 
BRANCH   6   8
ATOM      7  N   UNL     1       1.095  -3.894   0.741  0.00  0.00    -0.285 N 
ATOM      8  C   UNL     1       1.045  -4.652   1.855  0.00  0.00    +0.224 C 
ATOM      9  O   UNL     1       0.948  -4.124   2.942  0.00  0.00    -0.275 OA
ATOM     10  H   UNL     1       1.098  -4.316  -0.133  0.00  0.00    +0.155 HD
BRANCH   7  15
ATOM     11  C   UNL     1       1.291   1.760   1.160  0.00  0.00    +0.044 C 
ATOM     12  C   UNL     1       1.239   0.258   1.049  0.00  0.00    -0.050 A 
ATOM     13  C   UNL     1       1.845  -0.527   2.013  0.00  0.00    +0.005 A 
ATOM     14  C   UNL     1       1.799  -1.904   1.913  0.00  0.00    +0.023 A 
ATOM     15  C   UNL     1       1.143  -2.500   0.844  0.00  0.00    +0.033 A 
ATOM     16  C   UNL     1       0.535  -1.709  -0.122  0.00  0.00    +0.023 A 
ATOM     17  C   UNL     1       0.580  -0.333  -0.014  0.00  0.00    +0.005 A 
ENDBRANCH   7  15
ENDBRANCH   6   8
ENDBRANCH   1   6
BRANCH   3  18
ATOM     18  C   UNL     1      -1.151  -8.074   5.778  0.00  0.00    -0.022 C 
BRANCH  18  19
ATOM     19  N   UNL     1      -1.712  -6.915   6.487  0.00  0.00    +0.387 N 
ATOM     20  C   UNL     1      -0.754  -6.449   7.498  0.00  0.00    -0.095 C 
ATOM     21  H   UNL     1      -1.893  -6.173   5.827  0.00  0.00    -0.081 HD
BRANCH  19  22
ATOM     22  C   UNL     1      -2.967  -7.304   7.144  0.00  0.00    +0.019 C 
BRANCH  22  23
ATOM     23  C   UNL     1      -3.605  -6.089   7.766  0.00  0.00    +0.201 C 
ATOM     24  O   UNL     1      -3.067  -5.006   7.672  0.00  0.00    -0.278 OA
ATOM     25  N   UNL     1      -4.773  -6.205   8.428  0.00  0.00    -0.287 N 
ATOM     26  H   UNL     1      -5.166  -7.081   8.568  0.00  0.00    +0.155 HD
BRANCH  25  27
ATOM     27  C   UNL     1      -5.420  -5.063   8.913  0.00  0.00    +0.033 A 
ATOM     28  C   UNL     1      -6.150  -5.125  10.092  0.00  0.00    +0.023 A 
ATOM     29  C   UNL     1      -6.787  -3.995  10.568  0.00  0.00    +0.005 A 
ATOM     30  C   UNL     1      -6.699  -2.804   9.871  0.00  0.00    -0.050 A 
ATOM     31  C   UNL     1      -5.973  -2.740   8.696  0.00  0.00    +0.005 A 
ATOM     32  C   UNL     1      -5.328  -3.864   8.218  0.00  0.00    +0.023 A 
ATOM     33  C   UNL     1      -7.395  -1.574  10.393  0.00  0.00    +0.044 C 
ENDBRANCH  25  27
ENDBRANCH  22  23
ENDBRANCH  19  22
ENDBRANCH  18  19
ENDBRANCH   3  18
TORSDOF 8
