REMARK  Name = ZINC61717497
REMARK  5 active torsions:
REMARK  status: ('A' for Active; 'I' for Inactive)
REMARK    1  A    between atoms: C_1  and  C_2
REMARK    2  A    between atoms: C_2  and  C_3
REMARK    3  A    between atoms: C_2  and  C_4
REMARK    4  A    between atoms: C_7  and  C_10
REMARK    5  A    between atoms: N_21  and  C_22
REMARK                            x       y       z     vdW  Elec       q    Type
REMARK                         _______ _______ _______ _____ _____    ______ ____
ROOT
ATOM      1  C   UNL     1       2.797  -1.919   4.683  0.00  0.00    +0.068 C 
ATOM      2  C   UNL     1       2.071  -1.445   5.951  0.00  0.00    +0.109 C 
ATOM      3  C   UNL     1       2.483  -2.271   7.137  0.00  0.00    +0.219 C 
ATOM      4  O   UNL     1       2.611  -1.718   8.209  0.00  0.00    -0.275 OA
ATOM      5  N   UNL     1       2.716  -3.594   7.068  0.00  0.00    -0.270 N 
ATOM      6  C   UNL     1       2.777  -4.209   5.791  0.00  0.00    +0.138 A 
ATOM      7  C   UNL     1       2.812  -3.408   4.685  0.00  0.00    +0.041 A 
ATOM      8  S   UNL     1       2.877  -4.577   3.363  0.00  0.00    -0.055 S 
ATOM      9  C   UNL     1       2.881  -5.976   4.304  0.00  0.00    +0.160 A 
ATOM     10  N   UNL     1       2.824  -5.512   5.538  0.00  0.00    -0.210 NA
ATOM     11  N   UNL     1       2.930  -7.295   3.884  0.00  0.00    -0.326 N 
ATOM     12  C   UNL     1       2.924  -8.379   4.869  0.00  0.00    +0.127 C 
ATOM     13  H   UNL     1       2.839  -4.117   7.876  0.00  0.00    +0.156 HD
ATOM     14  H   UNL     1       2.968  -7.502   2.937  0.00  0.00    +0.148 HD
ENDROOT
BRANCH   1  18
ATOM     15  C   UNL     1       0.731  -0.503   1.223  0.00  0.00    -0.045 A 
ATOM     16  C   UNL     1       2.050  -0.148   1.434  0.00  0.00    +0.004 A 
ATOM     17  C   UNL     1       2.719  -0.606   2.554  0.00  0.00    +0.004 A 
ATOM     18  C   UNL     1       2.068  -1.419   3.463  0.00  0.00    -0.039 A 
ATOM     19  C   UNL     1       0.749  -1.773   3.252  0.00  0.00    +0.004 A 
ATOM     20  C   UNL     1       0.079  -1.312   2.135  0.00  0.00    +0.004 A 
BRANCH  15  22
ATOM     21  C   UNL     1      -0.019   1.526   0.010  0.00  0.00    +0.012 C 
ATOM     22  C   UNL     1       0.002  -0.004   0.002  0.00  0.00    +0.013 C 
ATOM     23  C   UNL     1       0.718  -0.497  -1.257  0.00  0.00    +0.012 C 
ENDBRANCH  15  22
ENDBRANCH   1  18
TORSDOF 2
