REMARK  Name = ZINC20868713
REMARK  12 active torsions:
REMARK  status: ('A' for Active; 'I' for Inactive)
REMARK    1  A    between atoms: C_1  and  C_2
REMARK    2  A    between atoms: C_2  and  C_3
REMARK    3  A    between atoms: C_3  and  C_4
REMARK    4  A    between atoms: C_3  and  C_5
REMARK    5  A    between atoms: C_3  and  C_6
REMARK    6  A    between atoms: C_13  and  N_17
REMARK    7  A    between atoms: C_14  and  C_15
REMARK    8  A    between atoms: C_18  and  C_20
REMARK    9  A    between atoms: C_20  and  S_21
REMARK   10  A    between atoms: S_21  and  C_22
REMARK   11  A    between atoms: C_25  and  C_28
REMARK   12  A    between atoms: N_26  and  N_27
REMARK                            x       y       z     vdW  Elec       q    Type
REMARK                         _______ _______ _______ _____ _____    ______ ____
ROOT
ATOM      1  N   UNL     1       2.703  -7.888   0.370  0.00  0.00    -0.278 N 
ATOM      2  C   UNL     1       3.026  -8.164   1.649  0.00  0.00    +0.228 C 
ATOM      3  O   UNL     1       3.014  -7.282   2.482  0.00  0.00    -0.275 OA
ATOM      4  H   UNL     1       2.714  -8.688  -0.385  0.00  0.00    +0.155 HD
ENDROOT
BRANCH   1  11
ATOM      5  C   UNL     1       0.739  -2.027  -1.265  0.00  0.00    -0.000 C 
ATOM      6  C   UNL     1       1.455  -2.524  -2.524  0.00  0.00    +0.009 C 
ATOM      7  C   UNL     1       1.267  -4.035  -2.668  0.00  0.00    +0.037 C 
ATOM      8  C   UNL     1       1.677  -4.707  -1.364  0.00  0.00    -0.018 A 
ATOM      9  C   UNL     1       1.766  -4.000  -0.215  0.00  0.00    -0.004 A 
ATOM     10  S   UNL     1       2.267  -5.181   1.005  0.00  0.00    -0.077 S 
ATOM     11  C   UNL     1       2.356  -6.594   0.005  0.00  0.00    +0.090 A 
ATOM     12  C   UNL     1       1.997  -6.119  -1.247  0.00  0.00    +0.084 A 
ATOM     13  C   UNL     1       1.496  -2.539  -0.031  0.00  0.00    +0.047 C 
BRANCH   5  14
ATOM     14  C   UNL     1       0.718  -0.497  -1.257  0.00  0.00    -0.032 C 
ATOM     15  C   UNL     1      -0.022   0.009  -2.496  0.00  0.00    +0.011 C 
ATOM     16  C   UNL     1       2.154   0.032  -1.268  0.00  0.00    +0.011 C 
BRANCH  14  18
ATOM     17  C   UNL     1      -0.019   1.526   0.010  0.00  0.00    +0.004 C 
ATOM     18  C   UNL     1       0.002  -0.004   0.002  0.00  0.00    +0.003 C 
ENDBRANCH  14  18
ENDBRANCH   5  14
BRANCH  12  19
ATOM     19  C   UNL     1       1.944  -6.988  -2.384  0.00  0.00    +0.102 C 
ATOM     20  N   UNL     1       1.902  -7.678  -3.285  0.00  0.00    -0.191 NA
ENDBRANCH  12  19
ENDBRANCH   1  11
BRANCH   2  21
ATOM     21  C   UNL     1       3.402  -9.568   2.045  0.00  0.00    +0.173 C 
BRANCH  21  22
ATOM     22  S   UNL     1       3.779  -9.616   3.815  0.00  0.00    -0.075 S 
BRANCH  22  23
ATOM     23  C   UNL     1       4.175 -11.323   3.998  0.00  0.00    +0.209 A 
ATOM     24  N   UNL     1       4.163 -12.233   3.051  0.00  0.00    -0.121 NA
ATOM     25  N   UNL     1       4.507 -13.372   3.536  0.00  0.00    -0.123 NA
ATOM     26  C   UNL     1       4.748 -13.261   4.812  0.00  0.00    +0.255 A 
ATOM     27  N   UNL     1       4.545 -11.951   5.152  0.00  0.00    -0.220 N 
BRANCH  26  28
ATOM     28  C   UNL     1       5.173 -14.369   5.740  0.00  0.00    +0.454 C 
ATOM     29  F   UNL     1       5.602 -15.468   4.989  0.00  0.00    -0.163 F 
ATOM     30  F   UNL     1       6.220 -13.921   6.553  0.00  0.00    -0.163 F 
ATOM     31  F   UNL     1       4.090 -14.746   6.542  0.00  0.00    -0.163 F 
ENDBRANCH  26  28
BRANCH  27  32
ATOM     32  N   UNL     1       4.685 -11.389   6.389  0.00  0.00    -0.295 N 
ATOM     33  H   UNL     1       4.992 -12.010   7.243  0.00  0.00    +0.163 HD
ATOM     34  H   UNL     1       4.490 -10.316   6.530  0.00  0.00    +0.163 HD
ENDBRANCH  27  32
ENDBRANCH  22  23
ENDBRANCH  21  22
ENDBRANCH   2  21
TORSDOF 9
