REMARK  Name = ZINC41770184
REMARK  3 active torsions:
REMARK  status: ('A' for Active; 'I' for Inactive)
REMARK    1  A    between atoms: C_7  and  C_11
REMARK    2  A    between atoms: C_7  and  N_14
REMARK    3  A    between atoms: N_14  and  C_15
REMARK                            x       y       z     vdW  Elec       q    Type
REMARK                         _______ _______ _______ _____ _____    ______ ____
ROOT
ATOM      1  C   UNL     1      -0.037   1.365  -0.013  0.00  0.00    +0.001 A 
ATOM      2  C   UNL     1       1.145   2.083  -0.008  0.00  0.00    +0.004 A 
ATOM      3  C   UNL     1       2.354   1.419  -0.009  0.00  0.00    +0.046 A 
ATOM      4  C   UNL     1       2.390   0.028  -0.013  0.00  0.00    +0.126 A 
ATOM      5  C   UNL     1       1.206  -0.688  -0.014  0.00  0.00    +0.028 A 
ATOM      6  C   UNL     1      -0.005  -0.016  -0.017  0.00  0.00    +0.010 A 
ATOM      7  C   UNL     1       1.199  -2.196  -0.007  0.00  0.00    +0.166 C 
ATOM      8  C   UNL     1       2.570  -2.719  -0.442  0.00  0.00    +0.083 C 
ATOM      9  C   UNL     1       3.647  -1.968   0.351  0.00  0.00    +0.232 C 
ATOM     10  O   UNL     1       3.600  -0.590  -0.019  0.00  0.00    -0.492 OA
ENDROOT
BRANCH   7  11
ATOM     11  C   UNL     1       0.145  -2.697  -0.961  0.00  0.00    +0.384 C 
ATOM     12  O   UNL     1       0.206  -2.407  -2.144  0.00  0.00    -0.244 OA
ATOM     13  O   UNL     1      -0.768  -3.392  -0.550  0.00  0.00    -0.244 OA
ENDBRANCH   7  11
BRANCH   7  14
ATOM     14  N   UNL     1       0.900  -2.676   1.344  0.00  0.00    -0.324 N 
ATOM     15  H   UNL     1       0.823  -2.045   2.077  0.00  0.00    +0.147 HD
BRANCH  14  16
ATOM     16  C   UNL     1       0.726  -4.042   1.577  0.00  0.00    +0.041 A 
ATOM     17  C   UNL     1       0.932  -4.955   0.551  0.00  0.00    +0.024 A 
ATOM     18  C   UNL     1       0.760  -6.305   0.785  0.00  0.00    +0.002 A 
ATOM     19  C   UNL     1       0.383  -6.749   2.040  0.00  0.00    +0.001 A 
ATOM     20  C   UNL     1       0.176  -5.843   3.064  0.00  0.00    +0.016 A 
ATOM     21  C   UNL     1       0.352  -4.491   2.838  0.00  0.00    +0.034 A 
ATOM     22  I   UNL     1       0.047  -3.119   4.392  0.00  0.00    -0.042 I 
ENDBRANCH  14  16
ENDBRANCH   7  14
TORSDOF 3
