REMARK  Name = ZINC63970730
REMARK  7 active torsions:
REMARK  status: ('A' for Active; 'I' for Inactive)
REMARK    1  A    between atoms: C_7  and  C_10
REMARK    2  A    between atoms: C_16  and  C_18
REMARK    3  A    between atoms: N_20  and  C_21
REMARK    4  A    between atoms: C_21  and  C_22
REMARK    5  A    between atoms: C_22  and  C_23
REMARK    6  A    between atoms: C_26  and  S_29
REMARK    7  A    between atoms: S_29  and  N_32
REMARK                            x       y       z     vdW  Elec       q    Type
REMARK                         _______ _______ _______ _____ _____    ______ ____
ROOT
ATOM      1  C   UNL     1      -0.705  -5.592   0.964  0.00  0.00    +0.234 C 
ATOM      2  O   UNL     1      -0.596  -4.735   1.815  0.00  0.00    -0.274 OA
ATOM      3  N   UNL     1      -1.631  -6.562   1.098  0.00  0.00    -0.313 N 
ATOM      4  H   UNL     1      -1.718  -7.247   0.418  0.00  0.00    +0.149 HD
ENDROOT
BRANCH   1  11
ATOM      5  C   UNL     1       0.622  -3.174  -0.021  0.00  0.00    +0.246 C 
ATOM      6  O   UNL     1      -0.573  -2.977   0.095  0.00  0.00    -0.270 OA
ATOM      7  N   UNL     1       1.090  -4.433  -0.135  0.00  0.00    -0.276 N 
ATOM      8  C   UNL     1       2.540  -4.725  -0.148  0.00  0.00    +0.178 C 
ATOM      9  S   UNL     1       2.553  -6.495   0.380  0.00  0.00    -0.139 S 
ATOM     10  C   UNL     1       0.914  -6.941  -0.349  0.00  0.00    +0.102 C 
ATOM     11  C   UNL     1       0.196  -5.573  -0.244  0.00  0.00    +0.173 C 
BRANCH   5  18
ATOM     12  C   UNL     1      -0.021   1.346  -0.033  0.00  0.00    +0.001 A 
ATOM     13  C   UNL     1       1.153   2.117  -0.051  0.00  0.00    +0.002 A 
ATOM     14  C   UNL     1       2.380   1.552  -0.064  0.00  0.00    +0.026 A 
ATOM     15  C   UNL     1       2.492   0.085  -0.059  0.00  0.00    +0.043 A 
ATOM     16  N   UNL     1       3.526  -0.709  -0.069  0.00  0.00    -0.380 N 
ATOM     17  C   UNL     1       3.065  -2.101  -0.057  0.00  0.00    +0.154 C 
ATOM     18  C   UNL     1       1.554  -2.041  -0.038  0.00  0.00    +0.043 C 
ATOM     19  C   UNL     1       1.234  -0.701  -0.040  0.00  0.00    +0.008 A 
ATOM     20  C   UNL     1      -0.001  -0.005  -0.027  0.00  0.00    +0.010 A 
ATOM     21  H   UNL     1       4.453  -0.424  -0.083  0.00  0.00    +0.160 HD
ENDBRANCH   5  18
ENDBRANCH   1  11
BRANCH   3  22
ATOM     22  C   UNL     1      -2.507  -6.580   2.272  0.00  0.00    +0.109 C 
BRANCH  22  23
ATOM     23  C   UNL     1      -3.459  -7.775   2.180  0.00  0.00    +0.054 C 
BRANCH  23  24
ATOM     24  C   UNL     1      -4.360  -7.794   3.388  0.00  0.00    -0.046 A 
ATOM     25  C   UNL     1      -3.975  -8.477   4.526  0.00  0.00    +0.005 A 
ATOM     26  C   UNL     1      -4.801  -8.494   5.634  0.00  0.00    +0.029 A 
ATOM     27  C   UNL     1      -6.013  -7.828   5.604  0.00  0.00    +0.105 A 
ATOM     28  C   UNL     1      -6.397  -7.144   4.466  0.00  0.00    +0.029 A 
ATOM     29  C   UNL     1      -5.568  -7.123   3.359  0.00  0.00    +0.005 A 
BRANCH  27  30
ATOM     30  S   UNL     1      -7.066  -7.852   7.016  0.00  0.00    +0.056 S 
ATOM     31  O   UNL     1      -8.384  -7.609   6.543  0.00  0.00    -0.153 OA
ATOM     32  O   UNL     1      -6.725  -9.014   7.758  0.00  0.00    -0.153 OA
BRANCH  30  33
ATOM     33  N   UNL     1      -6.655  -6.552   7.956  0.00  0.00    -0.204 NA
ATOM     34  H   UNL     1      -5.943  -5.955   7.674  0.00  0.00    +0.144 HD
ATOM     35  H   UNL     1      -7.125  -6.387   8.788  0.00  0.00    +0.144 HD
ENDBRANCH  30  33
ENDBRANCH  27  30
ENDBRANCH  23  24
ENDBRANCH  22  23
ENDBRANCH   3  22
TORSDOF 7
