REMARK  Name = ZINC54797827
REMARK  4 active torsions:
REMARK  status: ('A' for Active; 'I' for Inactive)
REMARK    1  A    between atoms: C_1  and  C_2
REMARK    2  A    between atoms: C_4  and  S_8
REMARK    3  A    between atoms: C_5  and  C_7
REMARK    4  A    between atoms: S_8  and  N_11
REMARK                            x       y       z     vdW  Elec       q    Type
REMARK                         _______ _______ _______ _____ _____    ______ ____
ROOT
ATOM      1  S   UNL     1      -2.104  -3.392  -0.008  0.00  0.00    +0.062 S 
ATOM      2  O   UNL     1      -1.813  -4.339   1.011  0.00  0.00    -0.153 OA
ATOM      3  O   UNL     1      -3.308  -2.638  -0.025  0.00  0.00    -0.153 OA
ENDROOT
BRANCH   1   4
ATOM      4  N   UNL     1      -2.038  -4.210  -1.446  0.00  0.00    -0.175 NA
ATOM      5  C   UNL     1      -2.774  -3.678  -2.591  0.00  0.00    +0.119 C 
ATOM      6  C   UNL     1      -3.864  -4.673  -3.007  0.00  0.00    +0.113 C 
ATOM      7  C   UNL     1      -3.229  -5.768  -3.833  0.00  0.00    +0.214 C 
ATOM      8  O   UNL     1      -3.444  -5.824  -5.025  0.00  0.00    -0.276 OA
ATOM      9  N   UNL     1      -2.432  -6.674  -3.259  0.00  0.00    -0.314 N 
ATOM     10  C   UNL     1      -2.162  -6.626  -1.815  0.00  0.00    +0.121 C 
ATOM     11  C   UNL     1      -1.241  -5.432  -1.523  0.00  0.00    +0.128 C 
ATOM     12  H   UNL     1      -2.026  -7.369  -3.800  0.00  0.00    +0.149 HD
ENDBRANCH   1   4
BRANCH   1  16
ATOM     13  C   UNL     1      -0.018   1.503   0.010  0.00  0.00    +0.051 C 
ATOM     14  C   UNL     1       0.002  -0.004   0.002  0.00  0.00    -0.011 A 
ATOM     15  C   UNL     1      -1.039  -0.872   0.002  0.00  0.00    +0.039 A 
ATOM     16  C   UNL     1      -0.780  -2.230  -0.007  0.00  0.00    +0.116 A 
ATOM     17  C   UNL     1       0.507  -2.653  -0.016  0.00  0.00    +0.013 A 
ATOM     18  S   UNL     1       1.404  -1.109  -0.018  0.00  0.00    -0.097 S 
ATOM     19  C   UNL     1       1.043  -4.062  -0.027  0.00  0.00    +0.053 C 
ENDBRANCH   1  16
TORSDOF 2
