REMARK  Name = ZINC26123874
REMARK  14 active torsions:
REMARK  status: ('A' for Active; 'I' for Inactive)
REMARK    1  A    between atoms: C_1  and  C_2
REMARK    2  A    between atoms: C_8  and  N_10
REMARK    3  A    between atoms: C_11  and  C_13
REMARK    4  A    between atoms: C_13  and  C_15
REMARK    5  A    between atoms: C_13  and  S_16
REMARK    6  A    between atoms: S_16  and  C_17
REMARK    7  A    between atoms: C_20  and  C_23
REMARK    8  A    between atoms: N_21  and  N_22
REMARK    9  A    between atoms: C_23  and  O_24
REMARK   10  A    between atoms: O_24  and  C_25
REMARK   11  A    between atoms: C_28  and  C_31
REMARK   12  A    between atoms: C_31  and  C_32
REMARK   13  A    between atoms: C_31  and  C_33
REMARK   14  A    between atoms: C_31  and  C_34
REMARK                            x       y       z     vdW  Elec       q    Type
REMARK                         _______ _______ _______ _____ _____    ______ ____
ROOT
ATOM      1  C   UNL     1      -0.510  -2.098  -0.315  0.00  0.00    +0.209 A 
ATOM      2  N   UNL     1       0.630  -2.003   0.330  0.00  0.00    -0.121 NA
ATOM      3  N   UNL     1       0.929  -0.766   0.509  0.00  0.00    -0.128 NA
ATOM      4  C   UNL     1       0.002  -0.004   0.002  0.00  0.00    +0.189 A 
ATOM      5  N   UNL     1      -0.946  -0.824  -0.544  0.00  0.00    -0.225 N 
ENDROOT
BRANCH   5   6
ATOM      6  N   UNL     1      -2.092  -0.448  -1.186  0.00  0.00    -0.295 N 
ATOM      7  H   UNL     1      -2.329   0.619  -1.306  0.00  0.00    +0.163 HD
ATOM      8  H   UNL     1      -2.777  -1.212  -1.582  0.00  0.00    +0.163 HD
ENDBRANCH   5   6
BRANCH   1   9
ATOM      9  S   UNL     1      -1.323  -3.586  -0.793  0.00  0.00    -0.072 S 
BRANCH   9  10
ATOM     10  C   UNL     1      -0.152  -4.806  -0.148  0.00  0.00    +0.137 C 
ATOM     11  C   UNL     1       1.176  -4.684  -0.898  0.00  0.00    +0.029 C 
BRANCH  10  13
ATOM     12  N   UNL     1      -0.314  -7.197   0.464  0.00  0.00    -0.311 N 
ATOM     13  C   UNL     1      -0.712  -6.191  -0.340  0.00  0.00    +0.226 C 
ATOM     14  O   UNL     1      -1.521  -6.401  -1.219  0.00  0.00    -0.275 OA
ATOM     15  H   UNL     1       0.420  -7.006   1.261  0.00  0.00    +0.149 HD
BRANCH  12  22
ATOM     16  C   UNL     1      -1.584  -8.582   2.667  0.00  0.00    +0.009 C 
ATOM     17  C   UNL     1      -0.775  -9.315   1.595  0.00  0.00    +0.006 C 
ATOM     18  C   UNL     1      -1.344 -10.722   1.400  0.00  0.00    +0.005 C 
ATOM     19  C   UNL     1      -0.535 -11.455   0.328  0.00  0.00    +0.000 C 
ATOM     20  C   UNL     1      -0.619 -10.684  -0.991  0.00  0.00    +0.002 C 
ATOM     21  C   UNL     1      -0.050  -9.277  -0.795  0.00  0.00    +0.022 C 
ATOM     22  C   UNL     1      -0.859  -8.544   0.277  0.00  0.00    +0.076 C 
ENDBRANCH  12  22
ENDBRANCH  10  13
ENDBRANCH   9  10
ENDBRANCH   1   9
BRANCH   4  23
ATOM     23  C   UNL     1      -0.018   1.503   0.010  0.00  0.00    +0.306 C 
BRANCH  23  24
ATOM     24  O   UNL     1      -0.687   1.964   1.186  0.00  0.00    -0.484 OA
BRANCH  24  25
ATOM     25  C   UNL     1      -0.793   3.309   1.349  0.00  0.00    +0.121 A 
ATOM     26  C   UNL     1      -0.259   4.167   0.399  0.00  0.00    +0.046 A 
ATOM     27  C   UNL     1      -0.373   5.534   0.563  0.00  0.00    +0.008 A 
ATOM     28  C   UNL     1      -1.008   6.047   1.679  0.00  0.00    -0.042 A 
ATOM     29  C   UNL     1      -1.537   5.193   2.630  0.00  0.00    +0.008 A 
ATOM     30  C   UNL     1      -1.430   3.825   2.467  0.00  0.00    +0.046 A 
BRANCH  28  31
ATOM     31  C   UNL     1      -1.126   7.538   1.859  0.00  0.00    -0.013 C 
ATOM     32  C   UNL     1      -0.428   7.952   3.157  0.00  0.00    +0.015 C 
ATOM     33  C   UNL     1      -0.465   8.249   0.676  0.00  0.00    +0.015 C 
ATOM     34  C   UNL     1      -2.604   7.929   1.928  0.00  0.00    +0.015 C 
ENDBRANCH  28  31
ENDBRANCH  24  25
ENDBRANCH  23  24
ENDBRANCH   4  23
TORSDOF 9
