REMARK  Name = ZINC33537967
REMARK  12 active torsions:
REMARK  status: ('A' for Active; 'I' for Inactive)
REMARK    1  A    between atoms: C_1  and  C_2
REMARK    2  A    between atoms: C_2  and  C_4
REMARK    3  A    between atoms: C_2  and  N_17
REMARK    4  A    between atoms: N_14  and  C_15
REMARK    5  A    between atoms: N_17  and  C_18
REMARK    6  A    between atoms: C_18  and  C_19
REMARK    7  A    between atoms: C_19  and  C_20
REMARK    8  A    between atoms: C_20  and  C_21
REMARK    9  A    between atoms: C_21  and  C_22
REMARK   10  A    between atoms: C_22  and  C_23
REMARK   11  A    between atoms: C_23  and  N_24
REMARK   12  A    between atoms: C_25  and  C_27
REMARK                            x       y       z     vdW  Elec       q    Type
REMARK                         _______ _______ _______ _____ _____    ______ ____
ROOT
ATOM      1  N   UNL     1       2.953   2.830  -0.088  0.00  0.00    -0.288 N 
ATOM      2  C   UNL     1       2.152   1.747  -0.038  0.00  0.00    +0.247 C 
ATOM      3  O   UNL     1       2.548   0.721   0.480  0.00  0.00    -0.270 OA
ENDROOT
BRANCH   2   4
ATOM      4  C   UNL     1       0.792   1.807  -0.613  0.00  0.00    +0.038 A 
ATOM      5  C   UNL     1       0.069   3.001  -0.579  0.00  0.00    +0.014 A 
ATOM      6  C   UNL     1      -1.200   3.052  -1.118  0.00  0.00    +0.022 A 
ATOM      7  C   UNL     1      -1.757   1.922  -1.692  0.00  0.00    +0.059 A 
ATOM      8  C   UNL     1      -1.045   0.734  -1.730  0.00  0.00    +0.060 A 
ATOM      9  C   UNL     1       0.226   0.671  -1.194  0.00  0.00    +0.034 A 
ATOM     10 CL   UNL     1      -1.752  -0.678  -2.451  0.00  0.00    -0.082 Cl
ATOM     11 CL   UNL     1      -3.355   1.994  -2.368  0.00  0.00    -0.082 Cl
ENDBRANCH   2   4
BRANCH   1  13
ATOM     12  C   UNL     1       1.459   4.276   1.199  0.00  0.00    +0.036 C 
ATOM     13  C   UNL     1       2.374   4.173  -0.023  0.00  0.00    +0.139 C 
BRANCH  13  14
ATOM     14  C   UNL     1       1.573   4.436  -1.273  0.00  0.00    +0.133 A 
ATOM     15  N   UNL     1       1.554   3.523  -2.196  0.00  0.00    -0.232 NA
ATOM     16  C   UNL     1       0.853   3.688  -3.345  0.00  0.00    +0.080 A 
ATOM     17  C   UNL     1       0.826   2.705  -4.336  0.00  0.00    +0.048 A 
ATOM     18  C   UNL     1       0.102   2.922  -5.488  0.00  0.00    +0.043 A 
ATOM     19  C   UNL     1      -0.602   4.106  -5.675  0.00  0.00    +0.021 A 
ATOM     20  C   UNL     1      -0.591   5.082  -4.717  0.00  0.00    +0.017 A 
ATOM     21  C   UNL     1       0.134   4.888  -3.543  0.00  0.00    +0.065 A 
ATOM     22  C   UNL     1       0.181   5.904  -2.481  0.00  0.00    +0.262 A 
ATOM     23  O   UNL     1      -0.414   6.960  -2.589  0.00  0.00    -0.267 OA
ATOM     24  N   UNL     1       0.913   5.619  -1.379  0.00  0.00    -0.298 N 
ATOM     25  C   UNL     1       0.995   6.595  -0.290  0.00  0.00    +0.154 C 
ATOM     26 CL   UNL     1       0.068   1.701  -6.722  0.00  0.00    -0.083 Cl
ENDBRANCH  13  14
ENDBRANCH   1  13
BRANCH   1  27
ATOM     27  C   UNL     1       4.404   2.662  -0.207  0.00  0.00    +0.109 C 
BRANCH  27  28
ATOM     28  C   UNL     1       4.793   2.623  -1.686  0.00  0.00    +0.019 C 
BRANCH  28  29
ATOM     29  C   UNL     1       6.308   2.449  -1.810  0.00  0.00    +0.001 C 
BRANCH  29  30
ATOM     30  C   UNL     1       6.697   2.410  -3.289  0.00  0.00    -0.002 C 
BRANCH  30  31
ATOM     31  C   UNL     1       8.212   2.235  -3.413  0.00  0.00    -0.020 C 
BRANCH  31  32
ATOM     32  C   UNL     1       8.602   2.196  -4.893  0.00  0.00    -0.086 C 
BRANCH  32  33
ATOM     33  N   UNL     1      10.056   2.029  -5.012  0.00  0.00    +0.378 N 
ATOM     34  H   UNL     1      10.336   2.001  -6.075  0.00  0.00    -0.090 HD
ATOM     35  H   UNL     1      10.358   1.088  -4.528  0.00  0.00    -0.090 HD
ATOM     36  H   UNL     1      10.564   2.872  -4.521  0.00  0.00    -0.090 HD
ENDBRANCH  32  33
ENDBRANCH  31  32
ENDBRANCH  30  31
ENDBRANCH  29  30
ENDBRANCH  28  29
ENDBRANCH  27  28
ENDBRANCH   1  27
TORSDOF 10
