REMARK  Name = ZINC13729267
REMARK  5 active torsions:
REMARK  status: ('A' for Active; 'I' for Inactive)
REMARK    1  A    between atoms: C_5  and  C_7
REMARK    2  A    between atoms: C_10  and  C_12
REMARK    3  A    between atoms: C_12  and  N_13
REMARK    4  A    between atoms: N_13  and  C_14
REMARK    5  A    between atoms: C_23  and  O_26
REMARK                            x       y       z     vdW  Elec       q    Type
REMARK                         _______ _______ _______ _____ _____    ______ ____
ROOT
ATOM      1  N   UNL     1       1.161  -5.832   2.329  0.00  0.00    +0.388 N 
ATOM      2  H   UNL     1       2.160  -6.072   1.936  0.00  0.00    -0.084 HD
ATOM      3  H   UNL     1       1.237  -4.994   3.038  0.00  0.00    -0.084 HD
ENDROOT
BRANCH   1   4
ATOM      4  C   UNL     1       0.641  -7.006   3.042  0.00  0.00    -0.065 C 
ATOM      5  C   UNL     1      -0.745  -6.688   3.606  0.00  0.00    -0.009 C 
ATOM      6  C   UNL     1      -1.287  -7.911   4.348  0.00  0.00    -0.009 C 
ATOM      7  C   UNL     1      -1.389  -9.091   3.380  0.00  0.00    +0.007 C 
ATOM      8  C   UNL     1      -0.003  -9.410   2.816  0.00  0.00    -0.009 C 
ATOM      9  C   UNL     1       0.539  -8.187   2.073  0.00  0.00    -0.009 C 
ATOM     10  C   UNL     1       0.943  -9.771   3.962  0.00  0.00    +0.038 C 
ATOM     11  C   UNL     1       1.046  -8.591   4.930  0.00  0.00    +0.065 C 
ATOM     12  C   UNL     1      -0.341  -8.272   5.494  0.00  0.00    +0.038 C 
ATOM     13  C   UNL     1       1.587  -7.368   4.188  0.00  0.00    +0.022 C 
BRANCH  11  14
ATOM     14  O   UNL     1       1.929  -8.928   6.001  0.00  0.00    -0.389 OA
ATOM     15  H   UNL     1       2.129  -8.199   6.800  0.00  0.00    +0.210 HD
ENDBRANCH  11  14
ENDBRANCH   1   4
BRANCH   1  16
ATOM     16  C   UNL     1       0.276  -5.455   1.219  0.00  0.00    -0.006 C 
BRANCH  16  20
ATOM     17  C   UNL     1       1.252  -2.160  -0.022  0.00  0.00    +0.136 A 
ATOM     18  C   UNL     1       1.962  -2.939  -0.880  0.00  0.00    +0.050 A 
ATOM     19  C   UNL     1       1.698  -4.277  -0.526  0.00  0.00    +0.043 A 
ATOM     20  C   UNL     1       0.841  -4.249   0.513  0.00  0.00    +0.089 A 
ATOM     21  O   UNL     1       0.574  -2.968   0.815  0.00  0.00    -0.462 OA
BRANCH  17  26
ATOM     22  C   UNL     1       2.383   1.421  -0.013  0.00  0.00    +0.001 A 
ATOM     23  C   UNL     1       1.170   2.087   0.002  0.00  0.00    +0.001 A 
ATOM     24  C   UNL     1      -0.017   1.377   0.010  0.00  0.00    +0.021 A 
ATOM     25  C   UNL     1       0.002  -0.004   0.002  0.00  0.00    +0.052 A 
ATOM     26  C   UNL     1       1.223  -0.682  -0.013  0.00  0.00    +0.036 A 
ATOM     27  C   UNL     1       2.416   0.042  -0.021  0.00  0.00    +0.013 A 
ATOM     28 CL   UNL     1      -1.488  -0.895   0.011  0.00  0.00    -0.083 Cl
ENDBRANCH  17  26
ENDBRANCH  16  20
ENDBRANCH   1  16
TORSDOF 5
