REMARK  Name = ZINC13499163
REMARK  12 active torsions:
REMARK  status: ('A' for Active; 'I' for Inactive)
REMARK    1  A    between atoms: C_1  and  C_2
REMARK    2  A    between atoms: C_7  and  C_15
REMARK    3  A    between atoms: C_13  and  C_14
REMARK    4  A    between atoms: C_15  and  N_72
REMARK    5  A    between atoms: C_16  and  N_72
REMARK    6  A    between atoms: C_22  and  C_24
REMARK    7  A    between atoms: C_22  and  C_35
REMARK    8  A    between atoms: C_22  and  N_72
REMARK    9  A    between atoms: N_28  and  C_29
REMARK   10  A    between atoms: C_29  and  C_30
REMARK   11  A    between atoms: C_35  and  C_36
REMARK   12  A    between atoms: C_35  and  C_37
REMARK                            x       y       z     vdW  Elec       q    Type
REMARK                         _______ _______ _______ _____ _____    ______ ____
ROOT
ATOM      1  N   UNL     1      -1.992   1.109   0.888  0.00  0.00    +0.391 N 
ATOM      2  H   UNL     1      -2.622   1.792   1.326  0.00  0.00    -0.080 HD
ENDROOT
BRANCH   1   3
ATOM      3  C   UNL     1      -2.418   0.892  -0.511  0.00  0.00    -0.067 C 
ATOM      4  C   UNL     1      -1.385   0.049  -1.261  0.00  0.00    -0.015 C 
ATOM      5  C   UNL     1      -1.847  -0.157  -2.705  0.00  0.00    -0.002 C 
ATOM      6  C   UNL     1      -1.993   1.202  -3.393  0.00  0.00    -0.000 C 
ATOM      7  C   UNL     1      -3.026   2.045  -2.643  0.00  0.00    -0.002 C 
ATOM      8  C   UNL     1      -2.564   2.251  -1.199  0.00  0.00    -0.015 C 
ENDBRANCH   1   3
BRANCH   1   9
ATOM      9  C   UNL     1      -2.063  -0.161   1.640  0.00  0.00    -0.036 C 
BRANCH   9  16
ATOM     10  C   UNL     1      -9.578  -2.835   1.673  0.00  0.00    +0.044 C 
ATOM     11  C   UNL     1      -8.128  -2.470   1.482  0.00  0.00    -0.046 A 
ATOM     12  C   UNL     1      -7.403  -3.053   0.452  0.00  0.00    +0.004 A 
ATOM     13  C   UNL     1      -6.088  -2.736   0.262  0.00  0.00    +0.010 A 
ATOM     14  C   UNL     1      -5.466  -1.815   1.112  0.00  0.00    -0.001 A 
ATOM     15  C   UNL     1      -4.058  -1.453   0.937  0.00  0.00    +0.017 A 
ATOM     16  C   UNL     1      -3.509  -0.556   1.793  0.00  0.00    +0.001 A 
ATOM     17  C   UNL     1      -4.286   0.005   2.829  0.00  0.00    +0.251 A 
ATOM     18  O   UNL     1      -3.771   0.806   3.590  0.00  0.00    -0.268 OA
ATOM     19  N   UNL     1      -5.580  -0.317   2.994  0.00  0.00    -0.322 N 
ATOM     20  H   UNL     1      -6.086   0.091   3.715  0.00  0.00    +0.169 HD
ATOM     21  C   UNL     1      -6.198  -1.222   2.158  0.00  0.00    +0.052 A 
ATOM     22  C   UNL     1      -7.536  -1.560   2.332  0.00  0.00    -0.024 A 
ATOM     23  C   UNL     1      -8.336  -0.935   3.446  0.00  0.00    +0.046 C 
ENDBRANCH   9  16
ENDBRANCH   1   9
BRANCH   1  24
ATOM     24  C   UNL     1      -0.613   1.639   0.919  0.00  0.00    +0.006 C 
BRANCH  24  25
ATOM     25  C   UNL     1       0.383   0.509   0.963  0.00  0.00    +0.139 A 
ATOM     26  N   UNL     1       0.368  -0.516   1.780  0.00  0.00    -0.115 NA
ATOM     27  N   UNL     1       1.382  -1.261   1.503  0.00  0.00    -0.023 NA
ATOM     28  N   UNL     1       2.049  -0.733   0.536  0.00  0.00    -0.044 NA
ATOM     29  N   UNL     1       1.465   0.359   0.176  0.00  0.00    -0.223 N 
BRANCH  29  30
ATOM     30  C   UNL     1       1.897   1.267  -0.889  0.00  0.00    +0.221 C 
BRANCH  30  31
ATOM     31  C   UNL     1       2.930   2.221  -0.348  0.00  0.00    +0.126 A 
ATOM     32  C   UNL     1       4.264   2.060  -0.418  0.00  0.00    +0.046 A 
ATOM     33  C   UNL     1       4.847   3.185   0.209  0.00  0.00    +0.041 A 
ATOM     34  C   UNL     1       3.834   3.963   0.632  0.00  0.00    +0.195 A 
ATOM     35  O   UNL     1       2.676   3.374   0.293  0.00  0.00    -0.466 OA
ENDBRANCH  30  31
ENDBRANCH  29  30
ENDBRANCH  24  25
BRANCH  24  36
ATOM     36  C   UNL     1      -0.453   2.509   2.168  0.00  0.00    -0.024 C 
ATOM     37  C   UNL     1      -0.722   1.664   3.415  0.00  0.00    +0.006 C 
ATOM     38  C   UNL     1      -1.450   3.668   2.113  0.00  0.00    +0.006 C 
ENDBRANCH  24  36
ENDBRANCH   1  24
TORSDOF 8
