REMARK  Name = ZINC22241216
REMARK  6 active torsions:
REMARK  status: ('A' for Active; 'I' for Inactive)
REMARK    1  A    between atoms: C_4  and  C_7
REMARK    2  A    between atoms: C_4  and  N_27
REMARK    3  A    between atoms: C_7  and  N_8
REMARK    4  A    between atoms: C_9  and  C_11
REMARK    5  A    between atoms: C_11  and  C_12
REMARK    6  A    between atoms: C_12  and  C_13
REMARK                            x       y       z     vdW  Elec       q    Type
REMARK                         _______ _______ _______ _____ _____    ______ ____
ROOT
ATOM      1  N   UNL     1      -0.397   1.283  -1.164  0.00  0.00    -0.317 N 
ATOM      2  C   UNL     1       0.251   0.906  -2.284  0.00  0.00    +0.213 C 
ATOM      3  O   UNL     1       1.271   0.253  -2.204  0.00  0.00    -0.276 OA
ATOM      4  H   UNL     1      -1.322   1.874  -1.237  0.00  0.00    +0.149 HD
ENDROOT
BRANCH   1   5
ATOM      5  C   UNL     1       0.129   0.905   0.150  0.00  0.00    +0.092 C 
BRANCH   5   9
ATOM      6  C   UNL     1       0.680   3.404   2.586  0.00  0.00    -0.000 C 
ATOM      7  C   UNL     1       1.028   1.922   2.746  0.00  0.00    -0.001 C 
ATOM      8  C   UNL     1      -0.244   1.083   2.614  0.00  0.00    -0.010 C 
ATOM      9  C   UNL     1      -0.867   1.315   1.236  0.00  0.00    -0.050 C 
ATOM     10  C   UNL     1      -1.215   2.796   1.076  0.00  0.00    -0.010 C 
ATOM     11  C   UNL     1       0.057   3.636   1.208  0.00  0.00    -0.001 C 
BRANCH   9  12
ATOM     12  N   UNL     1      -2.089   0.509   1.109  0.00  0.00    +0.384 N 
ATOM     13  C   UNL     1      -1.788  -0.924   1.222  0.00  0.00    -0.078 C 
ATOM     14  C   UNL     1      -3.094  -1.722   1.232  0.00  0.00    -0.019 C 
ATOM     15  C   UNL     1      -3.865  -1.444  -0.061  0.00  0.00    -0.004 C 
ATOM     16  C   UNL     1      -4.124   0.061  -0.180  0.00  0.00    -0.019 C 
ATOM     17  C   UNL     1      -2.788   0.806  -0.148  0.00  0.00    -0.078 C 
ATOM     18  H   UNL     1      -2.761   0.777   1.937  0.00  0.00    -0.081 HD
ENDBRANCH   9  12
ENDBRANCH   5   9
ENDBRANCH   1   5
BRANCH   2  19
ATOM     19  C   UNL     1      -0.290   1.294  -3.635  0.00  0.00    +0.103 C 
BRANCH  19  20
ATOM     20  C   UNL     1       0.627   0.745  -4.730  0.00  0.00    +0.083 C 
BRANCH  20  21
ATOM     21  C   UNL     1       0.086   1.134  -6.081  0.00  0.00    +0.111 A 
ATOM     22  N   UNL     1       0.753   0.752  -7.201  0.00  0.00    -0.310 N 
ATOM     23  H   UNL     1       1.681   0.168  -7.116  0.00  0.00    +0.170 HD
ATOM     24  C   UNL     1       0.302   1.074  -8.428  0.00  0.00    +0.260 A 
ATOM     25  O   UNL     1       0.907   0.721  -9.425  0.00  0.00    -0.267 OA
ATOM     26  C   UNL     1      -0.901   1.845  -8.540  0.00  0.00    +0.075 A 
ATOM     27  C   UNL     1      -1.568   2.311  -9.765  0.00  0.00    -0.023 A 
ATOM     28  C   UNL     1      -2.697   3.023  -9.608  0.00  0.00    -0.004 A 
ATOM     29  S   UNL     1      -2.940   3.118  -7.849  0.00  0.00    -0.073 S 
ATOM     30  C   UNL     1      -1.516   2.196  -7.332  0.00  0.00    +0.116 A 
ATOM     31  N   UNL     1      -1.013   1.837  -6.154  0.00  0.00    -0.227 NA
ATOM     32  C   UNL     1      -3.292   3.442 -10.926  0.00  0.00    +0.043 C 
ATOM     33  C   UNL     1      -2.613   2.525 -11.967  0.00  0.00    +0.010 C 
ATOM     34  C   UNL     1      -1.284   2.184 -11.264  0.00  0.00    +0.037 C 
ENDBRANCH  20  21
ENDBRANCH  19  20
ENDBRANCH   2  19
TORSDOF 6
