REMARK  Name = ZINC63354507
REMARK  9 active torsions:
REMARK  status: ('A' for Active; 'I' for Inactive)
REMARK    1  A    between atoms: C_1  and  C_2
REMARK    2  A    between atoms: C_5  and  C_8
REMARK    3  A    between atoms: N_10  and  C_11
REMARK    4  A    between atoms: C_11  and  C_24
REMARK    5  A    between atoms: C_12  and  C_13
REMARK    6  A    between atoms: N_16  and  C_23
REMARK    7  A    between atoms: N_26  and  C_27
REMARK    8  A    between atoms: C_27  and  C_28
REMARK    9  A    between atoms: C_28  and  C_29
REMARK                            x       y       z     vdW  Elec       q    Type
REMARK                         _______ _______ _______ _____ _____    ______ ____
ROOT
ATOM      1  C   UNL     1       0.065  -6.327   1.037  0.00  0.00    +0.093 C 
ATOM      2  C   UNL     1       0.232  -6.910  -0.152  0.00  0.00    +0.011 C 
ENDROOT
BRANCH   2   3
ATOM      3  C   UNL     1       0.351  -6.065  -1.395  0.00  0.00    +0.063 C 
ATOM      4  C   UNL     1       1.691  -6.334  -2.099  0.00  0.00    +0.117 C 
ATOM      5  N   UNL     1       1.333  -6.853  -3.422  0.00  0.00    -0.332 N 
ATOM      6  C   UNL     1      -0.056  -6.911  -3.554  0.00  0.00    +0.033 A 
ATOM      7  C   UNL     1      -0.699  -6.465  -2.407  0.00  0.00    -0.018 A 
ATOM      8  C   UNL     1      -2.079  -6.442  -2.338  0.00  0.00    +0.006 A 
ATOM      9  C   UNL     1      -2.835  -6.866  -3.415  0.00  0.00    +0.000 A 
ATOM     10  C   UNL     1      -2.207  -7.312  -4.563  0.00  0.00    +0.002 A 
ATOM     11  C   UNL     1      -0.824  -7.339  -4.638  0.00  0.00    +0.023 A 
ATOM     12  C   UNL     1       2.292  -7.252  -4.455  0.00  0.00    +0.129 C 
ENDBRANCH   2   3
BRANCH   1  15
ATOM     13  C   UNL     1       0.759  -4.194   1.833  0.00  0.00    +0.248 C 
ATOM     14  O   UNL     1       1.640  -4.732   2.475  0.00  0.00    -0.270 OA
ATOM     15  N   UNL     1      -0.107  -4.939   1.119  0.00  0.00    -0.278 N 
ATOM     16  H   UNL     1      -0.851  -4.515   0.662  0.00  0.00    +0.155 HD
BRANCH  13  21
ATOM     17  C   UNL     1       0.290   1.542   1.842  0.00  0.00    +0.044 C 
ATOM     18  C   UNL     1       0.413   0.040   1.840  0.00  0.00    -0.050 A 
ATOM     19  C   UNL     1       1.416  -0.570   2.571  0.00  0.00    +0.004 A 
ATOM     20  C   UNL     1       1.534  -1.945   2.574  0.00  0.00    +0.013 A 
ATOM     21  C   UNL     1       0.638  -2.720   1.836  0.00  0.00    +0.037 A 
ATOM     22  C   UNL     1      -0.372  -2.098   1.100  0.00  0.00    +0.013 A 
ATOM     23  C   UNL     1      -0.481  -0.723   1.110  0.00  0.00    +0.004 A 
ENDBRANCH  13  21
ENDBRANCH   1  15
BRANCH   1  24
ATOM     24  C   UNL     1       0.062  -7.144   2.266  0.00  0.00    +0.258 C 
ATOM     25  O   UNL     1      -0.089  -6.613   3.349  0.00  0.00    -0.269 OA
ATOM     26  N   UNL     1       0.228  -8.479   2.187  0.00  0.00    -0.310 N 
ATOM     27  H   UNL     1       0.349  -8.903   1.323  0.00  0.00    +0.149 HD
BRANCH  26  28
ATOM     28  C   UNL     1       0.226  -9.291   3.406  0.00  0.00    +0.109 C 
BRANCH  28  29
ATOM     29  C   UNL     1       0.431 -10.762   3.040  0.00  0.00    +0.052 C 
BRANCH  29  30
ATOM     30  C   UNL     1       0.429 -11.597   4.295  0.00  0.00    -0.040 C 
ATOM     31  C   UNL     1      -0.623 -12.257   4.830  0.00  0.00    -0.001 A 
ATOM     32  C   UNL     1      -2.027 -12.389   4.421  0.00  0.00    +0.010 A 
ATOM     33  C   UNL     1      -2.864 -13.134   5.179  0.00  0.00    +0.001 A 
ATOM     34  C   UNL     1      -2.425 -13.781   6.342  0.00  0.00    +0.002 A 
ATOM     35  C   UNL     1      -1.151 -13.707   6.782  0.00  0.00    +0.026 A 
ATOM     36  C   UNL     1      -0.185 -12.951   6.063  0.00  0.00    +0.043 A 
ATOM     37  N   UNL     1       1.088 -12.728   6.281  0.00  0.00    -0.380 N 
ATOM     38  C   UNL     1       1.604 -11.872   5.207  0.00  0.00    +0.144 C 
ATOM     39  H   UNL     1       1.604 -13.075   7.025  0.00  0.00    +0.160 HD
ENDBRANCH  29  30
ENDBRANCH  28  29
ENDBRANCH  26  28
ENDBRANCH   1  24
TORSDOF 7
