REMARK  Name = ZINC06894905
REMARK  5 active torsions:
REMARK  status: ('A' for Active; 'I' for Inactive)
REMARK    1  A    between atoms: C_1  and  C_2
REMARK    2  A    between atoms: C_7  and  N_12
REMARK    3  A    between atoms: C_9  and  C_11
REMARK    4  A    between atoms: C_13  and  C_15
REMARK    5  A    between atoms: N_30  and  C_33
REMARK                            x       y       z     vdW  Elec       q    Type
REMARK                         _______ _______ _______ _____ _____    ______ ____
ROOT
ATOM      1  C   UNL     1       3.745   1.447   0.644  0.00  0.00    +0.076 C 
ATOM      2  C   UNL     1       4.391   1.256  -0.756  0.00  0.00    -0.003 C 
ATOM      3  C   UNL     1       5.895   1.174  -0.400  0.00  0.00    -0.066 C 
ATOM      4  C   UNL     1       6.617   0.318  -1.452  0.00  0.00    -0.017 C 
ATOM      5  C   UNL     1       7.098  -0.938  -0.690  0.00  0.00    -0.020 C 
ATOM      6  C   UNL     1       6.137  -0.997   0.522  0.00  0.00    -0.077 C 
ATOM      7  C   UNL     1       4.645   0.598   1.554  0.00  0.00    +0.052 C 
ATOM      8  C   UNL     1       4.805   1.247   2.903  0.00  0.00    -0.027 A 
ATOM      9  C   UNL     1       5.322   2.456   3.313  0.00  0.00    +0.004 A 
ATOM     10  C   UNL     1       5.331   2.783   4.658  0.00  0.00    +0.000 A 
ATOM     11  C   UNL     1       4.822   1.893   5.586  0.00  0.00    +0.002 A 
ATOM     12  C   UNL     1       4.305   0.681   5.179  0.00  0.00    +0.024 A 
ATOM     13  C   UNL     1       4.292   0.344   3.827  0.00  0.00    +0.038 A 
ATOM     14  N   UNL     1       3.832  -0.803   3.177  0.00  0.00    -0.275 N 
ATOM     15  C   UNL     1       4.003  -0.735   1.844  0.00  0.00    +0.214 C 
ATOM     16  O   UNL     1       3.700  -1.583   1.032  0.00  0.00    -0.276 OA
ATOM     17  C   UNL     1       3.232  -1.948   3.866  0.00  0.00    +0.138 C 
ATOM     18  N   UNL     1       5.932   0.426   0.851  0.00  0.00    +0.394 N 
ATOM     19  H   UNL     1       6.699   0.764   1.444  0.00  0.00    -0.079 HD
ENDROOT
BRANCH   1  21
ATOM     20  N   UNL     1       1.478   1.312   1.623  0.00  0.00    -0.312 N 
ATOM     21  C   UNL     1       2.331   0.926   0.654  0.00  0.00    +0.216 C 
ATOM     22  O   UNL     1       1.962   0.158  -0.209  0.00  0.00    -0.276 OA
ATOM     23  H   UNL     1       1.773   1.926   2.313  0.00  0.00    +0.149 HD
BRANCH  20  29
ATOM     24  C   UNL     1      -3.138   2.254   3.123  0.00  0.00    +0.008 C 
ATOM     25  C   UNL     1      -2.235   1.265   2.384  0.00  0.00    -0.009 C 
ATOM     26  C   UNL     1      -2.274  -0.090   3.094  0.00  0.00    +0.003 C 
ATOM     27  C   UNL     1      -1.371  -1.079   2.354  0.00  0.00    +0.002 C 
ATOM     28  C   UNL     1       0.065  -0.550   2.344  0.00  0.00    +0.022 C 
ATOM     29  C   UNL     1       0.103   0.805   1.633  0.00  0.00    +0.076 C 
ATOM     30  C   UNL     1      -0.800   1.794   2.373  0.00  0.00    +0.009 C 
ATOM     31  C   UNL     1      -0.306   1.958   3.812  0.00  0.00    +0.009 C 
ENDBRANCH  20  29
ENDBRANCH   1  21
TORSDOF 2
