REMARK  Name = ZINC44386065
REMARK  2 active torsions:
REMARK  status: ('A' for Active; 'I' for Inactive)
REMARK    1  A    between atoms: C_4  and  C_7
REMARK    2  A    between atoms: C_4  and  C_9
REMARK                            x       y       z     vdW  Elec       q    Type
REMARK                         _______ _______ _______ _____ _____    ______ ____
ROOT
ATOM      1  C   UNL     1       2.859  -0.454  -2.507  0.00  0.00    +0.236 C 
ATOM      2  O   UNL     1       3.218   0.340  -3.352  0.00  0.00    -0.274 OA
ATOM      3  N   UNL     1       3.087  -1.771  -2.680  0.00  0.00    -0.292 N 
ATOM      4  C   UNL     1       2.550  -2.748  -1.722  0.00  0.00    +0.136 C 
ATOM      5  C   UNL     1       1.830  -3.838  -2.528  0.00  0.00    +0.179 C 
ATOM      6  O   UNL     1       2.745  -4.373  -3.484  0.00  0.00    -0.373 OA
ATOM      7  C   UNL     1       3.194  -3.458  -4.483  0.00  0.00    +0.139 C 
ATOM      8  C   UNL     1       3.864  -2.238  -3.823  0.00  0.00    +0.105 C 
ATOM      9  C   UNL     1       5.245  -2.747  -3.380  0.00  0.00    +0.025 C 
ATOM     10  C   UNL     1       5.569  -3.958  -4.275  0.00  0.00    +0.004 C 
ATOM     11  C   UNL     1       4.380  -4.130  -5.227  0.00  0.00    +0.033 C 
ENDROOT
BRANCH   1  15
ATOM     12  C   UNL     1       2.149   1.603   1.208  0.00  0.00    +0.000 C 
ATOM     13  C   UNL     1       2.227   0.075   1.232  0.00  0.00    +0.002 C 
ATOM     14  C   UNL     1       2.939  -0.419  -0.029  0.00  0.00    +0.031 C 
ATOM     15  C   UNL     1       2.158   0.033  -1.265  0.00  0.00    +0.133 C 
ATOM     16  C   UNL     1       2.080   1.560  -1.289  0.00  0.00    +0.031 C 
ATOM     17  C   UNL     1       1.368   2.054  -0.028  0.00  0.00    +0.002 C 
BRANCH  15  18
ATOM     18  C   UNL     1       0.798  -0.528  -1.218  0.00  0.00    +0.079 C 
ATOM     19  N   UNL     1      -0.252  -0.960  -1.182  0.00  0.00    -0.195 NA
ENDBRANCH  15  18
ENDBRANCH   1  15
TORSDOF 2
