REMARK  Name = ZINC35784393
REMARK  5 active torsions:
REMARK  status: ('A' for Active; 'I' for Inactive)
REMARK    1  A    between atoms: C_5  and  N_7
REMARK    2  A    between atoms: N_10  and  C_13
REMARK    3  A    between atoms: C_13  and  C_14
REMARK    4  A    between atoms: C_17  and  C_29
REMARK    5  A    between atoms: C_20  and  C_22
REMARK                            x       y       z     vdW  Elec       q    Type
REMARK                         _______ _______ _______ _____ _____    ______ ____
ROOT
ATOM      1  C   UNL     1       3.018  -6.662  -1.224  0.00  0.00    +0.219 C 
ATOM      2  O   UNL     1       2.087  -6.459  -1.975  0.00  0.00    -0.276 OA
ATOM      3  N   UNL     1       3.840  -7.709  -1.436  0.00  0.00    -0.187 N 
ATOM      4  C   UNL     1       3.726  -8.676  -2.539  0.00  0.00    +0.137 C 
ATOM      5  C   UNL     1       4.904  -9.641  -2.297  0.00  0.00    +0.087 C 
ATOM      6  C   UNL     1       5.569  -9.098  -1.052  0.00  0.00    +0.069 C 
ATOM      7  N   UNL     1       4.939  -8.049  -0.650  0.00  0.00    -0.181 NA
ENDROOT
BRANCH   4   8
ATOM      8  C   UNL     1       3.870  -7.982  -3.869  0.00  0.00    -0.021 A 
ATOM      9  C   UNL     1       4.788  -6.960  -4.019  0.00  0.00    +0.009 A 
ATOM     10  C   UNL     1       4.923  -6.320  -5.237  0.00  0.00    +0.050 A 
ATOM     11  C   UNL     1       4.138  -6.703  -6.312  0.00  0.00    +0.166 A 
ATOM     12  C   UNL     1       3.213  -7.734  -6.162  0.00  0.00    +0.167 A 
ATOM     13  C   UNL     1       3.087  -8.374  -4.939  0.00  0.00    +0.055 A 
ATOM     14  O   UNL     1       2.571  -7.920  -7.352  0.00  0.00    -0.453 OA
ATOM     15  C   UNL     1       2.821  -6.725  -8.115  0.00  0.00    +0.466 C 
ATOM     16  O   UNL     1       4.075  -6.244  -7.596  0.00  0.00    -0.453 OA
ENDBRANCH   4   8
BRANCH   6  17
ATOM     17  C   UNL     1       6.760  -9.677  -0.403  0.00  0.00    -0.002 A 
ATOM     18  C   UNL     1       7.369 -10.814  -0.939  0.00  0.00    +0.012 A 
ATOM     19  C   UNL     1       8.482 -11.351  -0.327  0.00  0.00    +0.039 A 
ATOM     20  C   UNL     1       8.997 -10.763   0.818  0.00  0.00    +0.123 A 
ATOM     21  C   UNL     1       8.398  -9.635   1.355  0.00  0.00    +0.039 A 
ATOM     22  C   UNL     1       7.288  -9.086   0.748  0.00  0.00    +0.012 A 
ATOM     23  F   UNL     1      10.088 -11.293   1.413  0.00  0.00    -0.205 F 
ENDBRANCH   6  17
BRANCH   1  24
ATOM     24  C   UNL     1       3.255  -5.744  -0.052  0.00  0.00    +0.021 C 
BRANCH  24  28
ATOM     25  N   UNL     1       1.236  -2.079  -0.021  0.00  0.00    -0.331 N 
ATOM     26  C   UNL     1       1.254  -2.842   1.236  0.00  0.00    +0.086 C 
ATOM     27  C   UNL     1       2.390  -3.869   1.165  0.00  0.00    -0.059 C 
ATOM     28  N   UNL     1       2.231  -4.691  -0.041  0.00  0.00    +0.387 N 
ATOM     29  C   UNL     1       2.378  -3.855  -1.239  0.00  0.00    -0.059 C 
ATOM     30  C   UNL     1       1.236  -2.828  -1.287  0.00  0.00    +0.086 C 
ATOM     31  H   UNL     1       1.315  -5.115  -0.039  0.00  0.00    -0.081 HD
BRANCH  25  36
ATOM     32  C   UNL     1      -0.017   1.377   0.010  0.00  0.00    +0.002 A 
ATOM     33  C   UNL     1       1.170   2.087   0.002  0.00  0.00    +0.003 A 
ATOM     34  C   UNL     1       2.380   1.418  -0.013  0.00  0.00    +0.040 A 
ATOM     35  C   UNL     1       2.406   0.035  -0.021  0.00  0.00    +0.144 A 
ATOM     36  C   UNL     1       1.214  -0.681  -0.013  0.00  0.00    +0.065 A 
ATOM     37  C   UNL     1       0.002  -0.004   0.002  0.00  0.00    +0.026 A 
ATOM     38  F   UNL     1       3.588  -0.619  -0.036  0.00  0.00    -0.204 F 
ENDBRANCH  25  36
ENDBRANCH  24  28
ENDBRANCH   1  24
TORSDOF 5
