REMARK  Name = ZINC14023599
REMARK  8 active torsions:
REMARK  status: ('A' for Active; 'I' for Inactive)
REMARK    1  A    between atoms: C_1  and  N_60
REMARK    2  A    between atoms: C_2  and  N_60
REMARK    3  A    between atoms: C_3  and  C_4
REMARK    4  A    between atoms: C_3  and  N_60
REMARK    5  A    between atoms: C_4  and  N_5
REMARK    6  A    between atoms: C_17  and  C_19
REMARK    7  A    between atoms: N_24  and  S_26
REMARK    8  A    between atoms: S_26  and  C_29
REMARK                            x       y       z     vdW  Elec       q    Type
REMARK                         _______ _______ _______ _____ _____    ______ ____
ROOT
ATOM      1  N   UNL     1      -1.167   1.774  -0.428  0.00  0.00    -0.252 N 
ATOM      2  C   UNL     1      -1.156   3.068  -0.925  0.00  0.00    +0.168 A 
ATOM      3  N   UNL     1      -0.129   3.847  -1.170  0.00  0.00    -0.221 NA
ATOM      4  C   UNL     1      -0.268   5.100  -1.659  0.00  0.00    +0.116 A 
ATOM      5  C   UNL     1       0.749   6.036  -1.965  0.00  0.00    +0.152 A 
ATOM      6  C   UNL     1       0.435   7.277  -2.458  0.00  0.00    +0.079 A 
ATOM      7  C   UNL     1      -0.884   7.658  -2.674  0.00  0.00    +0.127 A 
ATOM      8  C   UNL     1      -1.903   6.767  -2.386  0.00  0.00    +0.055 A 
ATOM      9  C   UNL     1      -1.596   5.522  -1.891  0.00  0.00    +0.046 A 
ATOM     10  S   UNL     1      -2.538   4.098  -1.401  0.00  0.00    -0.052 S 
ATOM     11  F   UNL     1      -1.169   8.886  -3.160  0.00  0.00    -0.205 F 
ATOM     12  F   UNL     1       2.044   5.704  -1.768  0.00  0.00    -0.203 F 
ATOM     13  C   UNL     1      -0.007   1.113  -0.245  0.00  0.00    +0.226 C 
ATOM     14  O   UNL     1      -0.020  -0.052   0.090  0.00  0.00    -0.275 OA
ENDROOT
BRANCH  13  15
ATOM     15  C   UNL     1       1.306   1.820  -0.463  0.00  0.00    +0.091 C 
ATOM     16  C   UNL     1       1.562   2.789   0.694  0.00  0.00    +0.015 C 
ATOM     17  C   UNL     1       2.879   3.532   0.457  0.00  0.00    +0.018 C 
ATOM     18  C   UNL     1       4.029   2.521   0.410  0.00  0.00    +0.109 C 
ATOM     19  N   UNL     1       3.721   1.502  -0.603  0.00  0.00    -0.176 NA
ATOM     20  C   UNL     1       2.438   0.790  -0.521  0.00  0.00    +0.122 C 
BRANCH  19  21
ATOM     21  S   UNL     1       4.800   1.161  -1.812  0.00  0.00    +0.061 S 
ATOM     22  O   UNL     1       4.047   0.610  -2.884  0.00  0.00    -0.153 OA
ATOM     23  O   UNL     1       5.614   2.314  -1.967  0.00  0.00    -0.153 OA
BRANCH  21  24
ATOM     24  C   UNL     1       5.853  -0.124  -1.224  0.00  0.00    +0.105 A 
ATOM     25  C   UNL     1       7.022   0.192  -0.558  0.00  0.00    +0.028 A 
ATOM     26  C   UNL     1       7.846  -0.816  -0.093  0.00  0.00    +0.002 A 
ATOM     27  C   UNL     1       7.505  -2.139  -0.302  0.00  0.00    +0.000 A 
ATOM     28  C   UNL     1       6.339  -2.455  -0.973  0.00  0.00    +0.002 A 
ATOM     29  C   UNL     1       5.512  -1.447  -1.434  0.00  0.00    +0.028 A 
ENDBRANCH  21  24
ENDBRANCH  19  21
ENDBRANCH  13  15
BRANCH   1  30
ATOM     30  C   UNL     1      -2.439   1.125  -0.103  0.00  0.00    +0.097 C 
BRANCH  30  31
ATOM     31  C   UNL     1      -2.762   1.348   1.376  0.00  0.00    -0.060 C 
BRANCH  31  34
ATOM     32  C   UNL     1      -3.929  -0.763   1.585  0.00  0.00    -0.097 C 
ATOM     33  C   UNL     1      -4.499   1.084   3.042  0.00  0.00    -0.097 C 
ATOM     34  N   UNL     1      -4.057   0.706   1.683  0.00  0.00    +0.377 N 
ATOM     35  H   UNL     1      -4.758   1.026   1.004  0.00  0.00    -0.083 HD
ENDBRANCH  31  34
ENDBRANCH  30  31
ENDBRANCH   1  30
TORSDOF 6
