REMARK  Name = ZINC11995733
REMARK  5 active torsions:
REMARK  status: ('A' for Active; 'I' for Inactive)
REMARK    1  A    between atoms: C_1  and  C_2
REMARK    2  A    between atoms: C_13  and  C_14
REMARK    3  A    between atoms: C_13  and  N_59
REMARK    4  A    between atoms: C_14  and  N_15
REMARK    5  A    between atoms: C_16  and  C_18
REMARK                            x       y       z     vdW  Elec       q    Type
REMARK                         _______ _______ _______ _____ _____    ______ ____
ROOT
ATOM      1  N   UNL     1      -6.718   3.647   1.212  0.00  0.00    -0.317 N 
ATOM      2  C   UNL     1      -5.393   3.488   1.024  0.00  0.00    +0.222 C 
ATOM      3  O   UNL     1      -4.606   4.167   1.648  0.00  0.00    -0.275 OA
ATOM      4  H   UNL     1      -7.348   3.104   0.713  0.00  0.00    +0.149 HD
ENDROOT
BRANCH   2   5
ATOM      5  C   UNL     1      -4.890   2.466   0.038  0.00  0.00    +0.122 C 
ATOM      6  C   UNL     1      -5.373   1.071   0.450  0.00  0.00    +0.019 C 
ATOM      7  C   UNL     1      -4.662   0.012  -0.397  0.00  0.00    +0.006 C 
ATOM      8  C   UNL     1      -3.184  -0.053   0.009  0.00  0.00    +0.037 C 
ATOM      9  C   UNL     1      -2.631   1.348   0.019  0.00  0.00    -0.018 A 
ATOM     10  C   UNL     1      -3.378   2.468   0.031  0.00  0.00    +0.032 A 
ATOM     11  N   UNL     1      -2.562   3.564   0.046  0.00  0.00    -0.357 N 
ATOM     12  H   UNL     1      -2.867   4.485   0.056  0.00  0.00    +0.166 HD
ATOM     13  C   UNL     1      -1.243   3.168   0.031  0.00  0.00    +0.047 A 
ATOM     14  C   UNL     1      -1.230   1.759   0.017  0.00  0.00    +0.003 A 
ATOM     15  C   UNL     1      -0.013   1.076   0.008  0.00  0.00    +0.010 A 
ATOM     16  C   UNL     1       1.160   1.777   0.001  0.00  0.00    +0.001 A 
ATOM     17  C   UNL     1       1.153   3.164   0.008  0.00  0.00    +0.002 A 
ATOM     18  C   UNL     1      -0.037   3.860   0.023  0.00  0.00    +0.026 A 
ENDBRANCH   2   5
BRANCH   1  19
ATOM     19  C   UNL     1      -7.208   4.641   2.171  0.00  0.00    +0.085 C 
BRANCH  19  20
ATOM     20  C   UNL     1      -8.738   4.619   2.192  0.00  0.00    -0.059 C 
BRANCH  20  32
ATOM     21  C   UNL     1     -12.614   5.828   4.883  0.00  0.00    +0.050 C 
ATOM     22  C   UNL     1     -11.151   6.195   4.624  0.00  0.00    +0.154 C 
ATOM     23  C   UNL     1     -10.654   5.434   3.413  0.00  0.00    -0.033 C 
ATOM     24  C   UNL     1      -8.905   6.976   2.712  0.00  0.00    -0.039 C 
ATOM     25  C   UNL     1      -8.737   7.859   3.933  0.00  0.00    -0.022 A 
ATOM     26  C   UNL     1      -7.495   8.364   4.259  0.00  0.00    +0.005 A 
ATOM     27  C   UNL     1      -7.358   9.183   5.366  0.00  0.00    +0.000 A 
ATOM     28  C   UNL     1      -8.461   9.496   6.138  0.00  0.00    +0.004 A 
ATOM     29  C   UNL     1      -9.704   8.986   5.815  0.00  0.00    +0.046 A 
ATOM     30  C   UNL     1      -9.840   8.156   4.711  0.00  0.00    +0.122 A 
ATOM     31  O   UNL     1     -11.050   7.608   4.412  0.00  0.00    -0.491 OA
ATOM     32  N   UNL     1      -9.204   5.603   3.183  0.00  0.00    +0.386 N 
ATOM     33  H   UNL     1      -8.708   5.443   4.068  0.00  0.00    -0.081 HD
ENDBRANCH  20  32
ENDBRANCH  19  20
ENDBRANCH   1  19
TORSDOF 4
