REMARK  Name = ZINC10232678
REMARK  2 active torsions:
REMARK  status: ('A' for Active; 'I' for Inactive)
REMARK    1  A    between atoms: C_4  and  C_7
REMARK    2  A    between atoms: C_14  and  C_15
REMARK                            x       y       z     vdW  Elec       q    Type
REMARK                         _______ _______ _______ _____ _____    ______ ____
ROOT
ATOM      1  C   UNL     1       3.297  -0.680   0.054  0.00  0.00    +0.176 C 
ATOM      2  C   UNL     1       3.616  -1.560   1.232  0.00  0.00    +0.036 A 
ATOM      3  C   UNL     1       3.521  -2.941   1.172  0.00  0.00    +0.110 A 
ATOM      4  C   UNL     1       3.833  -3.679   2.321  0.00  0.00    +0.310 A 
ATOM      5  N   UNL     1       4.209  -3.046   3.419  0.00  0.00    -0.104 NA
ATOM      6  N   UNL     1       4.301  -1.768   3.476  0.00  0.00    -0.145 NA
ATOM      7  C   UNL     1       4.024  -0.987   2.440  0.00  0.00    +0.101 A 
ATOM      8  O   UNL     1       3.748  -5.034   2.306  0.00  0.00    -0.262 OA
ATOM      9  N   UNL     1       3.132  -3.596  -0.000  0.00  0.00    -0.278 N 
ATOM     10  C   UNL     1       3.101  -2.844  -1.165  0.00  0.00    +0.240 A 
ATOM     11  N   UNL     1       3.182  -1.491  -1.152  0.00  0.00    -0.201 N 
ATOM     12  N   UNL     1       3.127  -1.104  -2.491  0.00  0.00    -0.042 NA
ATOM     13  N   UNL     1       3.016  -2.191  -3.184  0.00  0.00    -0.021 NA
ATOM     14  N   UNL     1       3.000  -3.216  -2.410  0.00  0.00    -0.092 NA
ATOM     15  H   UNL     1       2.895  -4.537   0.001  0.00  0.00    +0.155 HD
ENDROOT
BRANCH   7  16
ATOM     16  C   UNL     1       4.148   0.487   2.562  0.00  0.00    +0.003 A 
ATOM     17  C   UNL     1       3.560   1.151   3.637  0.00  0.00    +0.011 A 
ATOM     18  C   UNL     1       3.678   2.521   3.746  0.00  0.00    +0.020 A 
ATOM     19  C   UNL     1       4.379   3.236   2.790  0.00  0.00    +0.041 A 
ATOM     20  C   UNL     1       4.964   2.581   1.720  0.00  0.00    +0.020 A 
ATOM     21  C   UNL     1       4.857   1.210   1.605  0.00  0.00    +0.011 A 
ATOM     22 CL   UNL     1       4.523   4.961   2.933  0.00  0.00    -0.084 Cl
ENDBRANCH   7  16
BRANCH   1  26
ATOM     23  C   UNL     1      -0.397   1.348   0.757  0.00  0.00    +0.000 A 
ATOM     24  C   UNL     1       0.764   2.073   0.561  0.00  0.00    +0.000 A 
ATOM     25  C   UNL     1       1.959   1.417   0.334  0.00  0.00    +0.006 A 
ATOM     26  C   UNL     1       1.994   0.035   0.303  0.00  0.00    -0.018 A 
ATOM     27  C   UNL     1       0.834  -0.690   0.499  0.00  0.00    +0.006 A 
ATOM     28  C   UNL     1      -0.362  -0.034   0.725  0.00  0.00    +0.000 A 
ENDBRANCH   1  26
TORSDOF 2
