REMARK  Name = ZINC09722791
REMARK  7 active torsions:
REMARK  status: ('A' for Active; 'I' for Inactive)
REMARK    1  A    between atoms: C_11  and  C_13
REMARK    2  A    between atoms: C_13  and  C_14
REMARK    3  A    between atoms: C_14  and  C_15
REMARK    4  A    between atoms: N_17  and  C_18
REMARK    5  A    between atoms: C_18  and  C_19
REMARK    6  A    between atoms: C_19  and  C_21
REMARK    7  A    between atoms: C_19  and  N_56
REMARK                            x       y       z     vdW  Elec       q    Type
REMARK                         _______ _______ _______ _____ _____    ______ ____
ROOT
ATOM      1  C   UNL     1       3.141   6.604   1.211  0.00  0.00    +0.213 C 
ATOM      2  O   UNL     1       4.111   6.041   1.672  0.00  0.00    -0.276 OA
ATOM      3  N   UNL     1       3.266   7.837   0.680  0.00  0.00    -0.317 N 
ATOM      4  H   UNL     1       2.490   8.287   0.312  0.00  0.00    +0.149 HD
ENDROOT
BRANCH   1   5
ATOM      5  C   UNL     1       1.795   5.926   1.232  0.00  0.00    +0.103 C 
BRANCH   5   6
ATOM      6  C   UNL     1       1.928   4.548   1.884  0.00  0.00    +0.083 C 
BRANCH   6  17
ATOM      7  C   UNL     1      -4.191   2.774   1.385  0.00  0.00    +0.001 A 
ATOM      8  C   UNL     1      -4.011   4.043   0.850  0.00  0.00    +0.002 A 
ATOM      9  C   UNL     1      -2.768   4.636   0.846  0.00  0.00    +0.028 A 
ATOM     10  C   UNL     1      -1.675   3.956   1.387  0.00  0.00    +0.078 A 
ATOM     11  C   UNL     1      -1.861   2.664   1.924  0.00  0.00    +0.065 A 
ATOM     12  C   UNL     1      -3.128   2.083   1.924  0.00  0.00    +0.015 A 
ATOM     13  C   UNL     1      -0.691   1.977   2.491  0.00  0.00    +0.259 A 
ATOM     14  O   UNL     1      -0.783   0.864   2.974  0.00  0.00    -0.267 OA
ATOM     15  N   UNL     1       0.495   2.628   2.448  0.00  0.00    -0.310 N 
ATOM     16  H   UNL     1       1.289   2.205   2.809  0.00  0.00    +0.170 HD
ATOM     17  C   UNL     1       0.582   3.871   1.905  0.00  0.00    +0.111 A 
ATOM     18  N   UNL     1      -0.434   4.503   1.403  0.00  0.00    -0.234 NA
ENDBRANCH   6  17
ENDBRANCH   5   6
ENDBRANCH   1   5
BRANCH   3  19
ATOM     19  C   UNL     1       4.575   8.495   0.660  0.00  0.00    +0.093 C 
BRANCH  19  20
ATOM     20  C   UNL     1       4.441   9.873   0.008  0.00  0.00    -0.020 C 
BRANCH  20  21
ATOM     21  C   UNL     1       5.806  10.500  -0.124  0.00  0.00    -0.059 A 
ATOM     22  C   UNL     1       6.849   9.775  -0.668  0.00  0.00    +0.005 A 
ATOM     23  C   UNL     1       8.099  10.351  -0.796  0.00  0.00    +0.038 A 
ATOM     24  C   UNL     1       8.309  11.650  -0.368  0.00  0.00    +0.123 A 
ATOM     25  C   UNL     1       7.264  12.374   0.182  0.00  0.00    +0.038 A 
ATOM     26  C   UNL     1       6.014  11.798   0.303  0.00  0.00    +0.005 A 
ATOM     27  F   UNL     1       9.532  12.212  -0.486  0.00  0.00    -0.205 F 
ENDBRANCH  20  21
BRANCH  20  33
ATOM     28  C   UNL     1       4.687   8.913  -2.202  0.00  0.00    -0.049 C 
ATOM     29  C   UNL     1       3.994   8.739  -3.555  0.00  0.00    +0.141 C 
ATOM     30  O   UNL     1       3.718  10.026  -4.113  0.00  0.00    -0.383 OA
ATOM     31  C   UNL     1       2.892  10.848  -3.284  0.00  0.00    +0.141 C 
ATOM     32  C   UNL     1       3.574  11.043  -1.927  0.00  0.00    -0.049 C 
ATOM     33  N   UNL     1       3.813   9.716  -1.322  0.00  0.00    +0.388 N 
ATOM     34  H   UNL     1       2.915   9.232  -1.211  0.00  0.00    -0.081 HD
ENDBRANCH  20  33
ENDBRANCH  19  20
ENDBRANCH   3  19
TORSDOF 7
