REMARK  Name = ZINC56855152
REMARK  7 active torsions:
REMARK  status: ('A' for Active; 'I' for Inactive)
REMARK    1  A    between atoms: C_1  and  C_2
REMARK    2  A    between atoms: C_2  and  C_4
REMARK    3  A    between atoms: C_2  and  N_13
REMARK    4  A    between atoms: C_4  and  O_5
REMARK    5  A    between atoms: O_5  and  C_6
REMARK    6  A    between atoms: N_16  and  N_17
REMARK    7  A    between atoms: C_18  and  C_20
REMARK                            x       y       z     vdW  Elec       q    Type
REMARK                         _______ _______ _______ _____ _____    ______ ____
ROOT
ATOM      1  N   UNL     1      -1.372  -0.511   0.012  0.00  0.00    -0.292 N 
ATOM      2  C   UNL     1      -2.051  -0.643  -1.145  0.00  0.00    +0.316 C 
ATOM      3  O   UNL     1      -1.522  -0.341  -2.197  0.00  0.00    -0.251 OA
ATOM      4  N   UNL     1      -3.315  -1.109  -1.135  0.00  0.00    -0.218 N 
ATOM      5  H   UNL     1      -1.794  -0.752   0.852  0.00  0.00    +0.151 HD
ATOM      6  H   UNL     1      -3.804  -1.204  -1.968  0.00  0.00    +0.174 HD
ENDROOT
BRANCH   4   7
ATOM      7  N   UNL     1      -3.924  -1.457   0.078  0.00  0.00    -0.228 N 
ATOM      8  C   UNL     1      -5.189  -1.924   0.087  0.00  0.00    +0.276 C 
ATOM      9  O   UNL     1      -5.801  -2.043  -0.958  0.00  0.00    -0.267 OA
ATOM     10  H   UNL     1      -3.436  -1.363   0.910  0.00  0.00    +0.173 HD
BRANCH   8  11
ATOM     11  C   UNL     1      -5.826  -2.288   1.357  0.00  0.00    +0.104 A 
ATOM     12  C   UNL     1      -7.104  -2.781   1.515  0.00  0.00    +0.047 A 
ATOM     13  C   UNL     1      -7.298  -2.991   2.884  0.00  0.00    +0.036 A 
ATOM     14  C   UNL     1      -6.159  -2.630   3.525  0.00  0.00    +0.098 A 
ATOM     15  N   UNL     1      -5.256  -2.206   2.607  0.00  0.00    -0.356 N 
ATOM     16  H   UNL     1      -4.357  -1.895   2.799  0.00  0.00    +0.166 HD
ATOM     17 BR   UNL     1      -8.869  -3.658   3.697  0.00  0.00    -0.049 Br
ENDBRANCH   8  11
ENDBRANCH   4   7
BRANCH   1  19
ATOM     18  C   UNL     1      -0.019   1.526   0.010  0.00  0.00    +0.031 C 
ATOM     19  C   UNL     1       0.002  -0.004   0.002  0.00  0.00    +0.109 C 
BRANCH  19  20
ATOM     20  C   UNL     1       0.742  -0.511   1.242  0.00  0.00    +0.251 C 
BRANCH  20  21
ATOM     21  O   UNL     1       0.143   0.044   2.414  0.00  0.00    -0.487 OA
BRANCH  21  22
ATOM     22  C   UNL     1       0.685  -0.308   3.610  0.00  0.00    +0.156 A 
ATOM     23  C   UNL     1       1.774  -1.165   3.654  0.00  0.00    +0.048 A 
ATOM     24  C   UNL     1       2.324  -1.522   4.870  0.00  0.00    +0.004 A 
ATOM     25  C   UNL     1       1.789  -1.026   6.045  0.00  0.00    +0.003 A 
ATOM     26  C   UNL     1       0.703  -0.171   6.006  0.00  0.00    +0.042 A 
ATOM     27  C   UNL     1       0.153   0.195   4.790  0.00  0.00    +0.165 A 
ATOM     28  F   UNL     1      -0.904   1.035   4.752  0.00  0.00    -0.202 F 
ENDBRANCH  21  22
ENDBRANCH  20  21
ENDBRANCH  19  20
ENDBRANCH   1  19
TORSDOF 6
