REMARK  Name = ZINC39652546
REMARK  7 active torsions:
REMARK  status: ('A' for Active; 'I' for Inactive)
REMARK    1  A    between atoms: C_4  and  C_7
REMARK    2  A    between atoms: C_7  and  C_8
REMARK    3  A    between atoms: C_8  and  C_9
REMARK    4  A    between atoms: C_9  and  C_10
REMARK    5  A    between atoms: C_14  and  C_23
REMARK    6  A    between atoms: N_25  and  C_26
REMARK    7  A    between atoms: C_26  and  C_27
REMARK                            x       y       z     vdW  Elec       q    Type
REMARK                         _______ _______ _______ _____ _____    ______ ____
ROOT
ATOM      1  C   UNL     1       5.961  -2.003   2.955  0.00  0.00    +0.216 C 
ATOM      2  O   UNL     1       5.331  -1.587   3.904  0.00  0.00    -0.276 OA
ATOM      3  N   UNL     1       7.142  -2.623   3.150  0.00  0.00    -0.300 N 
ATOM      4  C   UNL     1       8.051  -3.188   2.125  0.00  0.00    +0.121 C 
ATOM      5  C   UNL     1       9.470  -2.836   2.626  0.00  0.00    +0.100 C 
ATOM      6  C   UNL     1       9.315  -2.647   4.144  0.00  0.00    -0.004 C 
ATOM      7  C   UNL     1       7.827  -2.889   4.437  0.00  0.00    +0.115 C 
ATOM      8  C   UNL     1       9.700  -1.225   4.542  0.00  0.00    -0.010 C 
ATOM      9  C   UNL     1       9.591  -1.078   6.062  0.00  0.00    -0.082 C 
ATOM     10  N   UNL     1      10.481  -2.048   6.713  0.00  0.00    +0.379 N 
ATOM     11  C   UNL     1      10.047  -3.415   6.400  0.00  0.00    -0.082 C 
ATOM     12  C   UNL     1      10.174  -3.660   4.894  0.00  0.00    -0.010 C 
ATOM     13  H   UNL     1      11.424  -1.912   6.383  0.00  0.00    -0.086 HD
ATOM     14  H   UNL     1      10.454  -1.909   7.712  0.00  0.00    -0.086 HD
ENDROOT
BRANCH   5  15
ATOM     15  C   UNL     1      10.425  -3.963   2.330  0.00  0.00    +0.218 C 
ATOM     16  O   UNL     1      10.024  -5.108   2.308  0.00  0.00    -0.275 OA
ATOM     17  N   UNL     1      11.725  -3.700   2.091  0.00  0.00    -0.311 N 
ATOM     18  H   UNL     1      12.046  -2.785   2.109  0.00  0.00    +0.149 HD
BRANCH  17  19
ATOM     19  C   UNL     1      12.654  -4.796   1.804  0.00  0.00    +0.142 C 
BRANCH  19  20
ATOM     20  C   UNL     1      14.035  -4.238   1.575  0.00  0.00    +0.005 A 
ATOM     21  C   UNL     1      14.505  -4.064   0.287  0.00  0.00    +0.009 A 
ATOM     22  C   UNL     1      15.771  -3.551   0.076  0.00  0.00    +0.016 A 
ATOM     23  C   UNL     1      16.570  -3.212   1.154  0.00  0.00    +0.021 A 
ATOM     24  C   UNL     1      16.101  -3.385   2.443  0.00  0.00    +0.054 A 
ATOM     25  C   UNL     1      14.830  -3.893   2.655  0.00  0.00    +0.129 A 
ATOM     26  F   UNL     1      14.369  -4.058   3.913  0.00  0.00    -0.205 F 
ATOM     27 BR   UNL     1      18.302  -2.511   0.864  0.00  0.00    -0.050 Br
ENDBRANCH  19  20
ENDBRANCH  17  19
ENDBRANCH   5  15
BRANCH   1  28
ATOM     28  C   UNL     1       5.425  -1.826   1.558  0.00  0.00    +0.096 C 
BRANCH  28  29
ATOM     29  C   UNL     1       4.081  -1.097   1.616  0.00  0.00    +0.014 C 
BRANCH  29  30
ATOM     30  C   UNL     1       3.536  -0.917   0.198  0.00  0.00    +0.035 C 
BRANCH  30  34
ATOM     31  C   UNL     1      -0.216   1.117   0.358  0.00  0.00    +0.000 A 
ATOM     32  C   UNL     1       0.957   1.840   0.249  0.00  0.00    +0.000 A 
ATOM     33  C   UNL     1       2.171   1.181   0.197  0.00  0.00    +0.003 A 
ATOM     34  C   UNL     1       2.212  -0.199   0.255  0.00  0.00    -0.047 A 
ATOM     35  C   UNL     1       1.039  -0.921   0.365  0.00  0.00    +0.003 A 
ATOM     36  C   UNL     1      -0.176  -0.263   0.415  0.00  0.00    +0.000 A 
ENDBRANCH  30  34
ENDBRANCH  29  30
ENDBRANCH  28  29
ENDBRANCH   1  28
TORSDOF 7
