REMARK  Name = ZINC63655363
REMARK  11 active torsions:
REMARK  status: ('A' for Active; 'I' for Inactive)
REMARK    1  A    between atoms: C_1  and  C_2
REMARK    2  A    between atoms: C_4  and  C_14
REMARK    3  A    between atoms: C_7  and  O_12
REMARK    4  A    between atoms: O_12  and  C_13
REMARK    5  A    between atoms: C_14  and  C_15
REMARK    6  A    between atoms: C_15  and  N_16
REMARK    7  A    between atoms: N_16  and  C_17
REMARK    8  A    between atoms: N_16  and  C_24
REMARK    9  A    between atoms: C_17  and  C_18
REMARK   10  A    between atoms: C_24  and  N_26
REMARK   11  A    between atoms: N_26  and  C_27
REMARK                            x       y       z     vdW  Elec       q    Type
REMARK                         _______ _______ _______ _____ _____    ______ ____
ROOT
ATOM      1  N   UNL     1       0.997  -0.729  -4.977  0.00  0.00    -0.308 N 
ENDROOT
BRANCH   1   2
ATOM      2  C   UNL     1       0.174  -1.589  -5.611  0.00  0.00    +0.133 C 
ATOM      3  S   UNL     1      -0.443  -2.953  -4.781  0.00  0.00    -0.019 S 
BRANCH   2   4
ATOM      4  N   UNL     1      -0.163  -1.374  -6.898  0.00  0.00    -0.324 N 
ATOM      5  H   UNL     1       0.187  -0.601  -7.369  0.00  0.00    +0.148 HD
BRANCH   4   6
ATOM      6  C   UNL     1      -1.057  -2.308  -7.587  0.00  0.00    +0.072 C 
ATOM      7  C   UNL     1      -0.242  -3.475  -8.148  0.00  0.00    +0.022 C 
ATOM      8  C   UNL     1      -1.176  -4.450  -8.867  0.00  0.00    +0.002 C 
ATOM      9  C   UNL     1      -1.885  -3.726 -10.013  0.00  0.00    +0.000 C 
ATOM     10  C   UNL     1      -2.700  -2.559  -9.452  0.00  0.00    +0.002 C 
ATOM     11  C   UNL     1      -1.766  -1.584  -8.733  0.00  0.00    +0.022 C 
ENDBRANCH   4   6
ENDBRANCH   2   4
ENDBRANCH   1   2
BRANCH   1  12
ATOM     12  C   UNL     1       1.363  -0.963  -3.578  0.00  0.00    +0.111 C 
BRANCH  12  13
ATOM     13  C   UNL     1       0.352  -0.269  -2.664  0.00  0.00    +0.052 C 
BRANCH  13  16
ATOM     14  C   UNL     1      -0.019   1.526   0.010  0.00  0.00    +0.035 C 
ATOM     15  C   UNL     1       0.002  -0.004   0.002  0.00  0.00    +0.103 C 
ATOM     16  C   UNL     1       0.729  -0.509  -1.224  0.00  0.00    -0.037 C 
ATOM     17  C   UNL     1       1.785  -1.220  -0.768  0.00  0.00    +0.003 A 
ATOM     18  C   UNL     1       2.858  -1.954  -1.447  0.00  0.00    +0.055 A 
ATOM     19  C   UNL     1       3.803  -2.586  -0.711  0.00  0.00    +0.121 A 
ATOM     20  C   UNL     1       3.796  -2.567   0.695  0.00  0.00    +0.047 A 
ATOM     21  C   UNL     1       2.851  -1.919   1.409  0.00  0.00    +0.029 A 
ATOM     22  C   UNL     1       1.779  -1.200   0.713  0.00  0.00    +0.043 A 
ATOM     23  N   UNL     1       0.758  -0.506   1.155  0.00  0.00    -0.378 N 
ATOM     24  H   UNL     1       0.540  -0.349   2.087  0.00  0.00    +0.160 HD
BRANCH  19  25
ATOM     25  O   UNL     1       4.792  -3.263  -1.353  0.00  0.00    -0.495 OA
ATOM     26  C   UNL     1       5.767  -3.915  -0.537  0.00  0.00    +0.277 C 
ENDBRANCH  19  25
ENDBRANCH  13  16
ENDBRANCH  12  13
ENDBRANCH   1  12
BRANCH   1  27
ATOM     27  C   UNL     1       1.525   0.438  -5.688  0.00  0.00    +0.142 C 
BRANCH  27  28
ATOM     28  C   UNL     1       2.828   0.075  -6.353  0.00  0.00    -0.027 A 
ATOM     29  C   UNL     1       4.032   0.227  -5.684  0.00  0.00    +0.025 A 
ATOM     30  C   UNL     1       5.207  -0.117  -6.325  0.00  0.00    +0.111 A 
ATOM     31  N   UNL     1       5.191  -0.584  -7.559  0.00  0.00    -0.263 NA
ATOM     32  C   UNL     1       4.064  -0.742  -8.225  0.00  0.00    +0.111 A 
ATOM     33  C   UNL     1       2.849  -0.425  -7.646  0.00  0.00    +0.025 A 
ENDBRANCH  27  28
ENDBRANCH   1  27
TORSDOF 9
