REMARK  Name = ZINC20704071
REMARK  4 active torsions:
REMARK  status: ('A' for Active; 'I' for Inactive)
REMARK    1  A    between atoms: C_4  and  N_7
REMARK    2  A    between atoms: C_8  and  C_10
REMARK    3  A    between atoms: C_17  and  C_26
REMARK    4  A    between atoms: C_30  and  N_32
REMARK                            x       y       z     vdW  Elec       q    Type
REMARK                         _______ _______ _______ _____ _____    ______ ____
ROOT
ATOM      1  C   UNL     1      -2.095   5.551   1.586  0.00  0.00    +0.058 A 
ATOM      2  C   UNL     1      -3.314   4.954   1.901  0.00  0.00    +0.015 A 
ATOM      3  C   UNL     1      -3.616   3.701   1.414  0.00  0.00    +0.001 A 
ATOM      4  C   UNL     1      -2.708   3.040   0.603  0.00  0.00    +0.006 A 
ATOM      5  C   UNL     1      -1.502   3.619   0.275  0.00  0.00    -0.019 A 
ATOM      6  C   UNL     1      -1.163   4.883   0.766  0.00  0.00    +0.044 A 
ATOM      7  N   UNL     1       0.037   5.523   0.506  0.00  0.00    -0.336 N 
ATOM      8  C   UNL     1       0.958   4.857  -0.429  0.00  0.00    +0.105 C 
ATOM      9  C   UNL     1       0.888   3.372  -0.141  0.00  0.00    +0.029 C 
ATOM     10  C   UNL     1      -0.535   2.925  -0.599  0.00  0.00    +0.049 C 
ATOM     11  C   UNL     1      -0.413   1.449  -0.687  0.00  0.00    -0.023 C 
ATOM     12  C   UNL     1       0.852   1.145  -0.956  0.00  0.00    -0.030 C 
ATOM     13  C   UNL     1       1.689   2.425  -1.040  0.00  0.00    +0.033 C 
ATOM     14  H   UNL     1       0.316   6.485   0.961  0.00  0.00    +0.147 HD
ENDROOT
BRANCH   8  15
ATOM     15  C   UNL     1       0.531   5.125  -1.849  0.00  0.00    -0.025 A 
ATOM     16  C   UNL     1      -0.789   5.426  -2.129  0.00  0.00    +0.007 A 
ATOM     17  C   UNL     1      -1.181   5.672  -3.431  0.00  0.00    +0.022 A 
ATOM     18  C   UNL     1      -0.252   5.617  -4.455  0.00  0.00    +0.071 A 
ATOM     19  C   UNL     1       1.068   5.316  -4.175  0.00  0.00    +0.145 A 
ATOM     20  C   UNL     1       1.460   5.076  -2.871  0.00  0.00    +0.039 A 
ATOM     21 CL   UNL     1      -0.744   5.926  -6.091  0.00  0.00    -0.081 Cl
BRANCH  19  22
ATOM     22  N   UNL     1       2.063   5.257  -5.269  0.00  0.00    +0.058 N 
ATOM     23  O   UNL     1       3.225   4.992  -5.022  0.00  0.00    -0.126 OA
ATOM     24  O   UNL     1       1.718   5.473  -6.417  0.00  0.00    -0.126 OA
ENDBRANCH  19  22
ENDBRANCH   8  15
BRANCH   1  26
ATOM     25  N   UNL     1      -2.667   7.535   2.896  0.00  0.00    -0.281 N 
ATOM     26  C   UNL     1      -1.778   6.891   2.112  0.00  0.00    +0.250 C 
ATOM     27  O   UNL     1      -0.716   7.416   1.840  0.00  0.00    -0.270 OA
ATOM     28  H   UNL     1      -3.594   7.030   3.205  0.00  0.00    +0.155 HD
BRANCH  25  32
ATOM     29  C   UNL     1      -1.901  11.434   4.145  0.00  0.00    +0.000 A 
ATOM     30  C   UNL     1      -3.196  11.043   3.860  0.00  0.00    +0.002 A 
ATOM     31  C   UNL     1      -3.453   9.751   3.445  0.00  0.00    +0.023 A 
ATOM     32  C   UNL     1      -2.409   8.844   3.315  0.00  0.00    +0.034 A 
ATOM     33  C   UNL     1      -1.110   9.238   3.608  0.00  0.00    +0.023 A 
ATOM     34  C   UNL     1      -0.859  10.533   4.016  0.00  0.00    +0.002 A 
ENDBRANCH  25  32
ENDBRANCH   1  26
TORSDOF 4
