REMARK  Name = ZINC08923435
REMARK  9 active torsions:
REMARK  status: ('A' for Active; 'I' for Inactive)
REMARK    1  A    between atoms: C_1  and  C_2
REMARK    2  A    between atoms: C_2  and  C_3
REMARK    3  A    between atoms: C_2  and  N_52
REMARK    4  A    between atoms: C_11  and  O_27
REMARK    5  A    between atoms: C_13  and  C_16
REMARK    6  A    between atoms: C_18  and  O_25
REMARK    7  A    between atoms: C_19  and  O_23
REMARK    8  A    between atoms: O_23  and  C_24
REMARK    9  A    between atoms: O_25  and  C_26
REMARK                            x       y       z     vdW  Elec       q    Type
REMARK                         _______ _______ _______ _____ _____    ______ ____
ROOT
ATOM      1  C   UNL     1       0.919  -0.516   1.030  0.00  0.00    -0.073 C 
ATOM      2  C   UNL     1       2.370  -0.252   0.619  0.00  0.00    +0.018 C 
ATOM      3  C   UNL     1       2.504   1.225   0.264  0.00  0.00    -0.027 A 
ATOM      4  C   UNL     1       1.396   1.958  -0.001  0.00  0.00    -0.021 A 
ATOM      5  S   UNL     1       2.002   3.587  -0.351  0.00  0.00    -0.080 S 
ATOM      6  C   UNL     1       3.677   3.295  -0.154  0.00  0.00    +0.080 A 
ATOM      7  C   UNL     1       3.765   1.936   0.180  0.00  0.00    +0.067 A 
ATOM      8  C   UNL     1       5.122   1.385   0.426  0.00  0.00    +0.220 C 
ATOM      9  N   UNL     1       6.147   2.127   0.108  0.00  0.00    -0.223 NA
ATOM     10  C   UNL     1       6.060   3.421  -0.558  0.00  0.00    +0.224 C 
ATOM     11  N   UNL     1       4.785   4.100  -0.261  0.00  0.00    -0.313 N 
ATOM     12  C   UNL     1      -0.018   1.471   0.010  0.00  0.00    -0.035 C 
ATOM     13  H   UNL     1       4.732   5.062  -0.149  0.00  0.00    +0.149 HD
ATOM     14  N   UNL     1       0.013  -0.011  -0.021  0.00  0.00    +0.384 N 
ATOM     15  H   UNL     1       0.359  -0.320  -0.938  0.00  0.00    -0.081 HD
ENDROOT
BRANCH  10  16
ATOM     16  C   UNL     1       6.175   3.216  -2.046  0.00  0.00    -0.001 A 
ATOM     17  C   UNL     1       6.878   2.134  -2.542  0.00  0.00    +0.056 A 
ATOM     18  C   UNL     1       6.984   1.944  -3.910  0.00  0.00    +0.163 A 
ATOM     19  C   UNL     1       6.381   2.844  -4.784  0.00  0.00    +0.175 A 
ATOM     20  C   UNL     1       5.677   3.927  -4.280  0.00  0.00    +0.063 A 
ATOM     21  C   UNL     1       5.571   4.108  -2.913  0.00  0.00    +0.026 A 
ATOM     22 BR   UNL     1       4.857   5.154  -5.463  0.00  0.00    -0.046 Br
BRANCH  19  23
ATOM     23  O   UNL     1       6.482   2.662  -6.128  0.00  0.00    -0.490 OA
ATOM     24  C   UNL     1       5.466   1.876  -6.754  0.00  0.00    +0.277 C 
ENDBRANCH  19  23
BRANCH  18  25
ATOM     25  O   UNL     1       7.675   0.880  -4.399  0.00  0.00    -0.491 OA
ATOM     26  C   UNL     1       8.267  -0.003  -3.444  0.00  0.00    +0.277 C 
ENDBRANCH  18  25
ENDBRANCH  10  16
BRANCH  14  28
ATOM     27  C   UNL     1      -1.906  -0.096   1.534  0.00  0.00    -0.014 C 
ATOM     28  C   UNL     1      -1.350  -0.550   0.183  0.00  0.00    -0.074 C 
ATOM     29  C   UNL     1      -2.259  -0.044  -0.939  0.00  0.00    -0.014 C 
ENDBRANCH  14  28
BRANCH   8  30
ATOM     30  O   UNL     1       5.290   0.155   0.963  0.00  0.00    -0.492 OA
ATOM     31  H   UNL     1       6.215  -0.101   1.079  0.00  0.00    +0.294 HD
ENDBRANCH   8  30
TORSDOF 5
