REMARK  Name = ZINC63161003
REMARK  10 active torsions:
REMARK  status: ('A' for Active; 'I' for Inactive)
REMARK    1  A    between atoms: C_1  and  S_2
REMARK    2  A    between atoms: S_2  and  N_5
REMARK    3  A    between atoms: N_5  and  C_6
REMARK    4  A    between atoms: C_6  and  C_7
REMARK    5  A    between atoms: C_7  and  C_8
REMARK    6  A    between atoms: C_11  and  C_14
REMARK    7  A    between atoms: N_16  and  C_17
REMARK    8  A    between atoms: C_17  and  C_18
REMARK    9  A    between atoms: C_18  and  C_20
REMARK   10  A    between atoms: C_18  and  C_25
REMARK                            x       y       z     vdW  Elec       q    Type
REMARK                         _______ _______ _______ _____ _____    ______ ____
ROOT
ATOM      1  C   UNL     1       8.341   0.521  -3.398  0.00  0.00    +0.244 C 
ATOM      2  O   UNL     1       8.656   1.444  -4.124  0.00  0.00    -0.270 OA
ATOM      3  N   UNL     1       9.291  -0.180  -2.749  0.00  0.00    -0.310 N 
ATOM      4  H   UNL     1       9.040  -0.916  -2.169  0.00  0.00    +0.149 HD
ENDROOT
BRANCH   1   8
ATOM      5  C   UNL     1       4.245  -0.494  -2.907  0.00  0.00    -0.046 A 
ATOM      6  C   UNL     1       4.600   0.557  -3.735  0.00  0.00    +0.004 A 
ATOM      7  C   UNL     1       5.929   0.892  -3.898  0.00  0.00    +0.013 A 
ATOM      8  C   UNL     1       6.915   0.168  -3.227  0.00  0.00    +0.037 A 
ATOM      9  C   UNL     1       6.551  -0.891  -2.394  0.00  0.00    +0.013 A 
ATOM     10  C   UNL     1       5.218  -1.212  -2.235  0.00  0.00    +0.004 A 
BRANCH   5  11
ATOM     11  C   UNL     1       2.792  -0.854  -2.733  0.00  0.00    +0.052 C 
BRANCH  11  12
ATOM     12  C   UNL     1       2.207  -0.061  -1.563  0.00  0.00    +0.110 C 
BRANCH  12  13
ATOM     13  N   UNL     1       0.795  -0.411  -1.394  0.00  0.00    -0.194 NA
ATOM     14  H   UNL     1       0.324  -0.881  -2.099  0.00  0.00    +0.148 HD
BRANCH  13  16
ATOM     15  C   UNL     1      -0.022   1.810   0.012  0.00  0.00    +0.214 C 
ATOM     16  S   UNL     1       0.002  -0.004   0.002  0.00  0.00    +0.027 S 
ATOM     17  O   UNL     1       0.835  -0.488   1.046  0.00  0.00    -0.158 OA
ATOM     18  O   UNL     1      -1.315  -0.510  -0.168  0.00  0.00    -0.158 OA
ENDBRANCH  13  16
ENDBRANCH  12  13
ENDBRANCH  11  12
ENDBRANCH   5  11
ENDBRANCH   1   8
BRANCH   3  19
ATOM     19  C   UNL     1      10.704   0.170  -2.918  0.00  0.00    +0.117 C 
BRANCH  19  20
ATOM     20  C   UNL     1      11.567  -0.774  -2.078  0.00  0.00    +0.071 C 
BRANCH  20  21
ATOM     21  C   UNL     1      13.008  -0.338  -2.155  0.00  0.00    -0.032 C 
ATOM     22  C   UNL     1      13.801   0.032  -1.124  0.00  0.00    -0.000 A 
ATOM     23  C   UNL     1      13.569   0.138   0.321  0.00  0.00    +0.010 A 
ATOM     24  C   UNL     1      14.581   0.548   1.120  0.00  0.00    +0.001 A 
ATOM     25  C   UNL     1      15.842   0.874   0.603  0.00  0.00    +0.002 A 
ATOM     26  C   UNL     1      16.131   0.802  -0.714  0.00  0.00    +0.026 A 
ATOM     27  C   UNL     1      15.142   0.382  -1.645  0.00  0.00    +0.043 A 
ATOM     28  N   UNL     1      15.176   0.233  -2.947  0.00  0.00    -0.380 N 
ATOM     29  C   UNL     1      13.861  -0.234  -3.400  0.00  0.00    +0.145 C 
ATOM     30  H   UNL     1      15.944   0.401  -3.516  0.00  0.00    +0.160 HD
ENDBRANCH  20  21
BRANCH  20  31
ATOM     31  C   UNL     1      11.438  -2.179  -2.608  0.00  0.00    -0.002 A 
ATOM     32  C   UNL     1      10.986  -3.290  -1.978  0.00  0.00    +0.012 A 
ATOM     33  C   UNL     1      10.955  -4.487  -2.670  0.00  0.00    +0.008 A 
ATOM     34  C   UNL     1      11.377  -4.513  -3.958  0.00  0.00    +0.045 A 
ATOM     35  S   UNL     1      11.833  -2.808  -4.231  0.00  0.00    -0.101 S 
ENDBRANCH  20  31
ENDBRANCH  19  20
ENDBRANCH   3  19
TORSDOF 9
