REMARK  Name = ZINC03220313
REMARK  8 active torsions:
REMARK  status: ('A' for Active; 'I' for Inactive)
REMARK    1  A    between atoms: C_1  and  C_2
REMARK    2  A    between atoms: C_2  and  C_4
REMARK    3  A    between atoms: C_2  and  S_17
REMARK    4  A    between atoms: N_6  and  C_7
REMARK    5  A    between atoms: C_10  and  N_13
REMARK    6  A    between atoms: C_14  and  C_16
REMARK    7  A    between atoms: S_17  and  C_18
REMARK    8  A    between atoms: N_31  and  C_32
REMARK                            x       y       z     vdW  Elec       q    Type
REMARK                         _______ _______ _______ _____ _____    ______ ____
ROOT
ATOM      1  C   UNL     1       0.928  12.287  -0.456  0.00  0.00    +0.174 A 
ATOM      2  N   UNL     1      -0.190  12.707   0.101  0.00  0.00    -0.216 NA
ATOM      3  C   UNL     1      -0.487  14.000   0.137  0.00  0.00    +0.117 A 
ATOM      4  C   UNL     1       0.356  14.977  -0.419  0.00  0.00    +0.076 A 
ATOM      5  C   UNL     1      -0.110  16.361  -0.309  0.00  0.00    -0.023 A 
ATOM      6  C   UNL     1      -1.290  16.562   0.311  0.00  0.00    -0.004 A 
ATOM      7  S   UNL     1      -1.847  14.945   0.777  0.00  0.00    -0.073 S 
ATOM      8  C   UNL     1      -1.978  17.871   0.551  0.00  0.00    +0.043 C 
ATOM      9  C   UNL     1      -0.966  19.001   0.312  0.00  0.00    +0.005 C 
ATOM     10  C   UNL     1      -0.240  18.740  -1.011  0.00  0.00    +0.005 C 
ATOM     11  C   UNL     1       0.690  17.536  -0.864  0.00  0.00    +0.037 C 
ATOM     12  C   UNL     1       1.559  14.492  -1.022  0.00  0.00    +0.263 A 
ATOM     13  O   UNL     1       2.352  15.266  -1.529  0.00  0.00    -0.267 OA
ATOM     14  N   UNL     1       1.804  13.168  -1.020  0.00  0.00    -0.284 N 
ENDROOT
BRANCH  14  15
ATOM     15  C   UNL     1       3.035  12.665  -1.635  0.00  0.00    +0.093 C 
ATOM     16  C   UNL     1       4.264  13.312  -0.965  0.00  0.00    +0.025 C 
ATOM     17  C   UNL     1       5.263  13.525  -2.130  0.00  0.00    +0.002 C 
ATOM     18  C   UNL     1       4.339  13.939  -3.302  0.00  0.00    +0.002 C 
ATOM     19  C   UNL     1       3.083  13.063  -3.121  0.00  0.00    +0.025 C 
ENDBRANCH  14  15
BRANCH   1  20
ATOM     20  S   UNL     1       1.294  10.563  -0.480  0.00  0.00    -0.075 S 
BRANCH  20  22
ATOM     21  C   UNL     1      -0.172  10.422   1.821  0.00  0.00    +0.029 C 
ATOM     22  C   UNL     1      -0.166   9.921   0.376  0.00  0.00    +0.137 C 
BRANCH  22  23
ATOM     23  C   UNL     1      -0.131   8.414   0.367  0.00  0.00    +0.230 C 
ATOM     24  O   UNL     1       0.929   7.833   0.268  0.00  0.00    -0.274 OA
ATOM     25  N   UNL     1      -1.277   7.713   0.470  0.00  0.00    -0.285 N 
ATOM     26  H   UNL     1      -2.117   8.175   0.617  0.00  0.00    +0.155 HD
BRANCH  25  27
ATOM     27  C   UNL     1      -1.255   6.316   0.364  0.00  0.00    +0.034 A 
ATOM     28  C   UNL     1      -2.312   5.649  -0.242  0.00  0.00    +0.025 A 
ATOM     29  C   UNL     1      -2.290   4.273  -0.347  0.00  0.00    +0.025 A 
ATOM     30  C   UNL     1      -1.212   3.555   0.154  0.00  0.00    +0.033 A 
ATOM     31  C   UNL     1      -0.158   4.222   0.766  0.00  0.00    +0.025 A 
ATOM     32  C   UNL     1      -0.177   5.598   0.865  0.00  0.00    +0.025 A 
BRANCH  30  33
ATOM     33  N   UNL     1      -1.190   2.159   0.048  0.00  0.00    -0.286 N 
ATOM     34  C   UNL     1      -0.013   1.503   0.029  0.00  0.00    +0.214 C 
ATOM     35  O   UNL     1       1.028   2.125  -0.005  0.00  0.00    -0.276 OA
ATOM     36  C   UNL     1       0.011  -0.004   0.044  0.00  0.00    +0.109 C 
ATOM     37  H   UNL     1      -2.022   1.664  -0.012  0.00  0.00    +0.155 HD
ENDBRANCH  30  33
ENDBRANCH  25  27
ENDBRANCH  22  23
ENDBRANCH  20  22
ENDBRANCH   1  20
TORSDOF 6
