REMARK  Name = ZINC36773275
REMARK  5 active torsions:
REMARK  status: ('A' for Active; 'I' for Inactive)
REMARK    1  A    between atoms: C_4  and  N_23
REMARK    2  A    between atoms: C_6  and  N_7
REMARK    3  A    between atoms: C_8  and  C_10
REMARK    4  A    between atoms: C_10  and  S_11
REMARK    5  A    between atoms: S_11  and  C_12
REMARK                            x       y       z     vdW  Elec       q    Type
REMARK                         _______ _______ _______ _____ _____    ______ ____
ROOT
ATOM      1  N   UNL     1      -1.200  -0.722   0.010  0.00  0.00    -0.285 N 
ATOM      2  C   UNL     1      -2.373  -0.069   0.126  0.00  0.00    +0.227 C 
ATOM      3  O   UNL     1      -2.395   1.143   0.133  0.00  0.00    -0.275 OA
ATOM      4  H   UNL     1      -1.188  -1.688  -0.073  0.00  0.00    +0.155 HD
ENDROOT
BRANCH   1  10
ATOM      5  C   UNL     1       0.122   1.155   0.762  0.00  0.00    +0.025 A 
ATOM      6  C   UNL     1       1.309   1.861   0.758  0.00  0.00    +0.024 A 
ATOM      7  C   UNL     1       2.379   1.413   0.004  0.00  0.00    +0.071 A 
ATOM      8  C   UNL     1       2.263   0.258  -0.749  0.00  0.00    +0.146 A 
ATOM      9  C   UNL     1       1.078  -0.452  -0.749  0.00  0.00    +0.057 A 
ATOM     10  C   UNL     1       0.002  -0.004   0.008  0.00  0.00    +0.036 A 
ATOM     11 CL   UNL     1       3.869   2.303   0.001  0.00  0.00    -0.081 Cl
BRANCH   8  12
ATOM     12  N   UNL     1       3.409  -0.218  -1.555  0.00  0.00    +0.058 N 
ATOM     13  O   UNL     1       3.308  -1.228  -2.213  0.00  0.00    -0.126 OA
ATOM     14  O   UNL     1       4.447   0.403  -1.556  0.00  0.00    -0.126 OA
ENDBRANCH   8  12
ENDBRANCH   1  10
BRANCH   2  15
ATOM     15  C   UNL     1      -3.659  -0.846   0.248  0.00  0.00    +0.173 C 
BRANCH  15  16
ATOM     16  S   UNL     1      -5.052   0.307   0.387  0.00  0.00    -0.076 S 
BRANCH  16  17
ATOM     17  C   UNL     1      -6.462  -0.742   0.520  0.00  0.00    +0.196 A 
ATOM     18  N   UNL     1      -6.457  -2.056   0.520  0.00  0.00    -0.122 NA
ATOM     19  N   UNL     1      -7.657  -2.506   0.634  0.00  0.00    -0.127 NA
ATOM     20  C   UNL     1      -8.505  -1.497   0.713  0.00  0.00    +0.180 A 
ATOM     21  N   UNL     1      -7.758  -0.340   0.647  0.00  0.00    -0.275 N 
ATOM     22  C   UNL     1      -8.368   0.883   0.711  0.00  0.00    +0.115 A 
ATOM     23  C   UNL     1      -9.708   0.973   0.841  0.00  0.00    +0.059 A 
ATOM     24  C   UNL     1     -10.497  -0.191   0.914  0.00  0.00    +0.045 A 
ATOM     25  C   UNL     1      -9.907  -1.414   0.846  0.00  0.00    +0.087 A 
ATOM     26 CL   UNL     1     -10.866  -2.858   0.936  0.00  0.00    -0.080 Cl
ATOM     27 CL   UNL     1     -10.464   2.534   0.921  0.00  0.00    -0.082 Cl
ENDBRANCH  16  17
ENDBRANCH  15  16
ENDBRANCH   2  15
TORSDOF 5
