REMARK  Name = ZINC59157070
REMARK  4 active torsions:
REMARK  status: ('A' for Active; 'I' for Inactive)
REMARK    1  A    between atoms: C_4  and  C_7
REMARK    2  A    between atoms: C_7  and  C_8
REMARK    3  A    between atoms: C_8  and  N_9
REMARK    4  A    between atoms: N_17  and  N_18
REMARK                            x       y       z     vdW  Elec       q    Type
REMARK                         _______ _______ _______ _____ _____    ______ ____
ROOT
ATOM      1  N   UNL     1       5.455  -1.697   1.129  0.00  0.00    -0.265 N 
ATOM      2  C   UNL     1       5.572  -3.063   1.362  0.00  0.00    +0.046 A 
ATOM      3  C   UNL     1       4.614  -4.064   1.481  0.00  0.00    +0.025 A 
ATOM      4  C   UNL     1       5.000  -5.368   1.716  0.00  0.00    +0.017 A 
ATOM      5  C   UNL     1       6.341  -5.696   1.837  0.00  0.00    +0.019 A 
ATOM      6  C   UNL     1       7.306  -4.715   1.722  0.00  0.00    +0.027 A 
ATOM      7  C   UNL     1       6.926  -3.399   1.484  0.00  0.00    +0.030 A 
ATOM      8  C   UNL     1       7.687  -2.139   1.313  0.00  0.00    +0.156 C 
ATOM      9  N   UNL     1       8.986  -1.980   1.350  0.00  0.00    -0.153 NA
ATOM     10  C   UNL     1       6.659  -1.101   1.084  0.00  0.00    +0.272 C 
ATOM     11  O   UNL     1       6.866   0.082   0.891  0.00  0.00    -0.268 OA
ATOM     12 BR   UNL     1       6.849  -7.489   2.162  0.00  0.00    -0.050 Br
ENDROOT
BRANCH   9  13
ATOM     13  N   UNL     1       9.826  -3.098   1.438  0.00  0.00    -0.126 N 
ATOM     14  C   UNL     1       9.999  -4.021   0.474  0.00  0.00    +0.366 A 
ATOM     15  O   UNL     1       9.457  -4.025  -0.613  0.00  0.00    -0.243 OA
ATOM     16  N   UNL     1      10.879  -4.941   0.920  0.00  0.00    -0.246 N 
ATOM     17  H   UNL     1      11.192  -5.721   0.436  0.00  0.00    +0.192 HD
ATOM     18  N   UNL     1      11.255  -4.556   2.216  0.00  0.00    -0.246 N 
ATOM     19  H   UNL     1      11.878  -5.020   2.797  0.00  0.00    +0.192 HD
ATOM     20  C   UNL     1      10.592  -3.417   2.498  0.00  0.00    +0.366 A 
ATOM     21  O   UNL     1      10.670  -2.786   3.534  0.00  0.00    -0.243 OA
ENDBRANCH   9  13
BRANCH   1  22
ATOM     22  C   UNL     1       4.181  -0.996   0.950  0.00  0.00    +0.118 C 
BRANCH  22  23
ATOM     23  C   UNL     1       3.804  -0.994  -0.533  0.00  0.00    +0.054 C 
BRANCH  23  27
ATOM     24  C   UNL     1       0.089   1.048  -1.057  0.00  0.00    +0.000 A 
ATOM     25  C   UNL     1       1.278   1.750  -1.119  0.00  0.00    +0.000 A 
ATOM     26  C   UNL     1       2.480   1.089  -0.950  0.00  0.00    +0.004 A 
ATOM     27  C   UNL     1       2.493  -0.274  -0.717  0.00  0.00    -0.046 A 
ATOM     28  C   UNL     1       1.304  -0.975  -0.654  0.00  0.00    +0.004 A 
ATOM     29  C   UNL     1       0.102  -0.315  -0.825  0.00  0.00    +0.000 A 
ENDBRANCH  23  27
ENDBRANCH  22  23
ENDBRANCH   1  22
TORSDOF 4
