REMARK  Name = ZINC57005882
REMARK  6 active torsions:
REMARK  status: ('A' for Active; 'I' for Inactive)
REMARK    1  A    between atoms: C_1  and  C_2
REMARK    2  A    between atoms: C_2  and  C_4
REMARK    3  A    between atoms: C_2  and  N_10
REMARK    4  A    between atoms: C_13  and  N_16
REMARK    5  A    between atoms: N_19  and  C_20
REMARK    6  A    between atoms: C_29  and  O_31
REMARK                            x       y       z     vdW  Elec       q    Type
REMARK                         _______ _______ _______ _____ _____    ______ ____
ROOT
ATOM      1  N   UNL     1       4.189  -1.193  -1.695  0.00  0.00    -0.298 N 
ATOM      2  C   UNL     1       5.141  -1.626  -2.546  0.00  0.00    +0.300 C 
ATOM      3  O   UNL     1       4.870  -1.814  -3.716  0.00  0.00    -0.253 OA
ATOM      4  N   UNL     1       6.392  -1.850  -2.099  0.00  0.00    -0.290 N 
ATOM      5  H   UNL     1       4.405  -1.043  -0.762  0.00  0.00    +0.150 HD
ATOM      6  H   UNL     1       6.608  -1.700  -1.166  0.00  0.00    +0.151 HD
ENDROOT
BRANCH   4   7
ATOM      7  C   UNL     1       7.427  -2.320  -3.024  0.00  0.00    +0.134 C 
ATOM      8  C   UNL     1       7.415  -3.832  -3.101  0.00  0.00    -0.021 A 
ATOM      9  C   UNL     1       6.569  -4.689  -3.785  0.00  0.00    +0.006 A 
ATOM     10  C   UNL     1       6.752  -6.056  -3.705  0.00  0.00    +0.000 A 
ATOM     11  C   UNL     1       7.782  -6.571  -2.940  0.00  0.00    +0.000 A 
ATOM     12  C   UNL     1       8.627  -5.718  -2.258  0.00  0.00    +0.004 A 
ATOM     13  C   UNL     1       8.445  -4.347  -2.336  0.00  0.00    -0.040 A 
ATOM     14  C   UNL     1       9.220  -3.216  -1.694  0.00  0.00    +0.069 C 
ATOM     15  C   UNL     1       8.828  -1.952  -2.492  0.00  0.00    +0.143 C 
BRANCH  15  16
ATOM     16  O   UNL     1       8.762  -0.809  -1.637  0.00  0.00    -0.389 OA
ATOM     17  H   UNL     1       9.618  -0.537  -1.277  0.00  0.00    +0.210 HD
ENDBRANCH  15  16
ENDBRANCH   4   7
BRANCH   1  21
ATOM     18  N   UNL     1       0.690  -0.478  -1.207  0.00  0.00    +0.385 N 
ATOM     19  C   UNL     1       0.834  -1.956  -1.177  0.00  0.00    -0.076 C 
ATOM     20  C   UNL     1       2.003  -2.253  -2.139  0.00  0.00    +0.002 C 
ATOM     21  C   UNL     1       2.829  -0.950  -2.181  0.00  0.00    +0.056 C 
ATOM     22  C   UNL     1       2.087   0.024  -1.240  0.00  0.00    -0.056 C 
ATOM     23  H   UNL     1       0.190  -0.187  -2.034  0.00  0.00    -0.081 HD
BRANCH  18  25
ATOM     24  C   UNL     1      -0.019   1.526   0.010  0.00  0.00    -0.008 C 
ATOM     25  C   UNL     1       0.002  -0.004   0.002  0.00  0.00    -0.041 C 
BRANCH  25  26
ATOM     26  C   UNL     1      -1.412  -0.526   0.013  0.00  0.00    -0.061 A 
ATOM     27  C   UNL     1      -2.141  -0.569  -1.161  0.00  0.00    +0.002 A 
ATOM     28  C   UNL     1      -3.438  -1.047  -1.151  0.00  0.00    +0.000 A 
ATOM     29  C   UNL     1      -4.005  -1.483   0.032  0.00  0.00    +0.000 A 
ATOM     30  C   UNL     1      -3.275  -1.441   1.205  0.00  0.00    +0.000 A 
ATOM     31  C   UNL     1      -1.977  -0.966   1.195  0.00  0.00    +0.002 A 
ENDBRANCH  25  26
ENDBRANCH  18  25
ENDBRANCH   1  21
TORSDOF 5
