REMARK  Name = ZINC39665487
REMARK  9 active torsions:
REMARK  status: ('A' for Active; 'I' for Inactive)
REMARK    1  A    between atoms: C_1  and  C_2
REMARK    2  A    between atoms: C_2  and  C_4
REMARK    3  A    between atoms: C_2  and  O_28
REMARK    4  A    between atoms: C_4  and  N_5
REMARK    5  A    between atoms: C_6  and  C_8
REMARK    6  A    between atoms: C_19  and  C_21
REMARK    7  A    between atoms: O_28  and  C_29
REMARK    8  A    between atoms: C_32  and  O_35
REMARK    9  A    between atoms: O_35  and  C_36
REMARK                            x       y       z     vdW  Elec       q    Type
REMARK                         _______ _______ _______ _____ _____    ______ ____
ROOT
ATOM      1  C   UNL     1      -2.353  -4.050   0.554  0.00  0.00    +0.100 C 
ATOM      2  C   UNL     1      -1.570  -4.301  -0.754  0.00  0.00    +0.121 C 
ATOM      3  N   UNL     1      -2.177  -5.527  -1.324  0.00  0.00    -0.296 N 
ATOM      4  C   UNL     1      -3.628  -5.377  -1.062  0.00  0.00    +0.115 C 
ATOM      5  C   UNL     1      -3.704  -4.757   0.347  0.00  0.00    -0.004 C 
ATOM      6  C   UNL     1      -4.845  -3.747   0.418  0.00  0.00    -0.010 C 
ATOM      7  C   UNL     1      -6.180  -4.481   0.269  0.00  0.00    -0.082 C 
ATOM      8  N   UNL     1      -6.315  -5.478   1.337  0.00  0.00    +0.379 N 
ATOM      9  C   UNL     1      -5.268  -6.498   1.206  0.00  0.00    -0.082 C 
ATOM     10  C   UNL     1      -3.894  -5.849   1.395  0.00  0.00    -0.010 C 
ATOM     11  C   UNL     1      -1.550  -6.548  -1.942  0.00  0.00    +0.248 C 
ATOM     12  O   UNL     1      -0.336  -6.568  -2.004  0.00  0.00    -0.270 OA
ATOM     13  H   UNL     1      -6.228  -5.022   2.234  0.00  0.00    -0.086 HD
ATOM     14  H   UNL     1      -7.221  -5.918   1.273  0.00  0.00    -0.086 HD
ENDROOT
BRANCH  11  15
ATOM     15  C   UNL     1      -2.339  -7.644  -2.542  0.00  0.00    +0.055 A 
ATOM     16  C   UNL     1      -3.565  -7.373  -3.153  0.00  0.00    +0.014 A 
ATOM     17  C   UNL     1      -4.296  -8.399  -3.712  0.00  0.00    +0.001 A 
ATOM     18  C   UNL     1      -3.818  -9.698  -3.670  0.00  0.00    +0.001 A 
ATOM     19  C   UNL     1      -2.605  -9.975  -3.066  0.00  0.00    +0.021 A 
ATOM     20  C   UNL     1      -1.859  -8.956  -2.507  0.00  0.00    +0.053 A 
ATOM     21 CL   UNL     1      -0.333  -9.304  -1.757  0.00  0.00    -0.083 Cl
ENDBRANCH  11  15
BRANCH   1  23
ATOM     22  N   UNL     1      -2.655  -2.078   2.016  0.00  0.00    -0.312 N 
ATOM     23  C   UNL     1      -2.561  -2.573   0.766  0.00  0.00    +0.218 C 
ATOM     24  O   UNL     1      -2.644  -1.829  -0.189  0.00  0.00    -0.275 OA
ATOM     25  H   UNL     1      -2.589  -2.672   2.779  0.00  0.00    +0.149 HD
BRANCH  22  26
ATOM     26  C   UNL     1      -2.857  -0.641   2.222  0.00  0.00    +0.148 C 
BRANCH  26  28
ATOM     27  C   UNL     1      -3.263   1.131   3.935  0.00  0.00    +0.053 C 
ATOM     28  C   UNL     1      -2.928  -0.346   3.721  0.00  0.00    +0.187 C 
BRANCH  28  29
ATOM     29  O   UNL     1      -1.667  -0.641   4.325  0.00  0.00    -0.488 OA
BRANCH  29  30
ATOM     30  C   UNL     1      -1.670  -0.921   5.656  0.00  0.00    +0.121 A 
ATOM     31  C   UNL     1      -0.475  -1.163   6.316  0.00  0.00    +0.049 A 
ATOM     32  C   UNL     1      -0.478  -1.447   7.668  0.00  0.00    +0.049 A 
ATOM     33  C   UNL     1      -1.677  -1.490   8.365  0.00  0.00    +0.120 A 
ATOM     34  C   UNL     1      -2.872  -1.247   7.705  0.00  0.00    +0.049 A 
ATOM     35  C   UNL     1      -2.868  -0.959   6.354  0.00  0.00    +0.049 A 
BRANCH  33  36
ATOM     36  O   UNL     1      -1.680  -1.770   9.695  0.00  0.00    -0.495 OA
ATOM     37  C   UNL     1      -2.950  -1.798  10.350  0.00  0.00    +0.277 C 
ENDBRANCH  33  36
ENDBRANCH  29  30
ENDBRANCH  28  29
ENDBRANCH  26  28
ENDBRANCH  22  26
ENDBRANCH   1  23
TORSDOF 7
