REMARK  Name = ZINC03309196
REMARK  5 active torsions:
REMARK  status: ('A' for Active; 'I' for Inactive)
REMARK    1  A    between atoms: C_1  and  C_2
REMARK    2  A    between atoms: C_5  and  C_28
REMARK    3  A    between atoms: C_6  and  C_8
REMARK    4  A    between atoms: C_10  and  C_18
REMARK    5  A    between atoms: N_20  and  C_21
REMARK                            x       y       z     vdW  Elec       q    Type
REMARK                         _______ _______ _______ _____ _____    ______ ____
ROOT
ATOM      1  C   UNL     1      -2.321   5.652   0.338  0.00  0.00    +0.122 C 
ATOM      2  C   UNL     1      -2.570   4.140   0.252  0.00  0.00    +0.143 C 
ATOM      3  C   UNL     1      -3.418   3.884  -0.978  0.00  0.00    +0.019 C 
ATOM      4  C   UNL     1      -4.494   3.124  -0.926  0.00  0.00    +0.029 C 
ATOM      5  N   UNL     1      -3.009   4.489  -2.172  0.00  0.00    -0.273 N 
ATOM      6  C   UNL     1      -2.231   5.586  -2.118  0.00  0.00    +0.304 C 
ATOM      7  O   UNL     1      -1.857   6.091  -3.159  0.00  0.00    -0.253 OA
ATOM      8  N   UNL     1      -1.853   6.142  -0.959  0.00  0.00    -0.291 N 
ATOM      9  H   UNL     1      -3.283   4.123  -3.027  0.00  0.00    +0.156 HD
ATOM     10  H   UNL     1      -1.245   6.898  -0.980  0.00  0.00    +0.151 HD
ENDROOT
BRANCH   1  16
ATOM     11  C   UNL     1      -6.474   8.088  -1.028  0.00  0.00    +0.044 C 
ATOM     12  C   UNL     1      -5.591   7.517   0.052  0.00  0.00    -0.050 A 
ATOM     13  C   UNL     1      -5.959   7.635   1.380  0.00  0.00    +0.003 A 
ATOM     14  C   UNL     1      -5.149   7.111   2.370  0.00  0.00    +0.004 A 
ATOM     15  C   UNL     1      -3.972   6.470   2.033  0.00  0.00    -0.045 A 
ATOM     16  C   UNL     1      -3.605   6.351   0.706  0.00  0.00    -0.023 A 
ATOM     17  C   UNL     1      -4.412   6.880  -0.284  0.00  0.00    +0.009 A 
ATOM     18  C   UNL     1      -3.089   5.899   3.113  0.00  0.00    +0.044 C 
ENDBRANCH   1  16
BRANCH   2  19
ATOM     19  C   UNL     1      -1.256   3.412   0.128  0.00  0.00    +0.228 C 
ATOM     20  O   UNL     1      -0.215   4.035   0.127  0.00  0.00    -0.275 OA
ATOM     21  N   UNL     1      -1.238   2.069   0.019  0.00  0.00    -0.285 N 
ATOM     22  H   UNL     1      -2.070   1.577  -0.057  0.00  0.00    +0.155 HD
BRANCH  21  23
ATOM     23  C   UNL     1      -0.017   1.384   0.015  0.00  0.00    +0.033 A 
ATOM     24  C   UNL     1       0.126   0.222  -0.732  0.00  0.00    +0.024 A 
ATOM     25  C   UNL     1       1.330  -0.455  -0.729  0.00  0.00    +0.017 A 
ATOM     26  C   UNL     1       2.393   0.023   0.017  0.00  0.00    +0.018 A 
ATOM     27  C   UNL     1       2.252   1.181   0.762  0.00  0.00    +0.017 A 
ATOM     28  C   UNL     1       1.051   1.862   0.763  0.00  0.00    +0.024 A 
ATOM     29 BR   UNL     1       4.039  -0.906   0.018  0.00  0.00    -0.050 Br
ENDBRANCH  21  23
ENDBRANCH   2  19
TORSDOF 3
