REMARK  Name = ZINC02361118
REMARK  8 active torsions:
REMARK  status: ('A' for Active; 'I' for Inactive)
REMARK    1  A    between atoms: C_1  and  C_2
REMARK    2  A    between atoms: C_9  and  N_31
REMARK    3  A    between atoms: C_10  and  C_13
REMARK    4  A    between atoms: N_17  and  C_21
REMARK    5  A    between atoms: C_21  and  C_22
REMARK    6  A    between atoms: N_31  and  C_32
REMARK    7  A    between atoms: C_32  and  C_33
REMARK    8  A    between atoms: C_32  and  C_34
REMARK                            x       y       z     vdW  Elec       q    Type
REMARK                         _______ _______ _______ _____ _____    ______ ____
ROOT
ATOM      1  C   UNL     1      -3.688   5.838   0.067  0.00  0.00    +0.037 C 
ATOM      2  C   UNL     1      -3.937   6.760   1.042  0.00  0.00    +0.077 C 
ATOM      3  C   UNL     1      -5.122   7.505   1.304  0.00  0.00    +0.259 C 
ATOM      4  O   UNL     1      -6.113   7.368   0.608  0.00  0.00    -0.269 OA
ATOM      5  N   UNL     1      -5.117   8.345   2.323  0.00  0.00    -0.251 N 
ATOM      6  C   UNL     1      -4.015   8.501   3.091  0.00  0.00    +0.121 C 
ATOM      7  S   UNL     1      -3.784   9.526   4.442  0.00  0.00    -0.027 S 
ATOM      8  S   UNL     1      -2.861   7.365   2.336  0.00  0.00    -0.061 S 
ENDROOT
BRANCH   1  18
ATOM      9  C   UNL     1       2.592   4.786  -0.797  0.00  0.00    +0.047 C 
ATOM     10  C   UNL     1       1.444   3.837  -0.567  0.00  0.00    -0.007 A 
ATOM     11  C   UNL     1       1.666   2.493  -0.514  0.00  0.00    +0.008 A 
ATOM     12  C   UNL     1       0.588   1.623  -0.299  0.00  0.00    +0.019 A 
ATOM     13  C   UNL     1      -0.662   2.115  -0.151  0.00  0.00    +0.096 A 
ATOM     14  N   UNL     1      -0.893   3.458  -0.197  0.00  0.00    -0.267 N 
ATOM     15  C   UNL     1       0.138   4.332  -0.405  0.00  0.00    +0.145 A 
ATOM     16  N   UNL     1      -0.069   5.648  -0.458  0.00  0.00    -0.214 NA
ATOM     17  C   UNL     1      -1.279   6.168  -0.311  0.00  0.00    +0.134 A 
ATOM     18  C   UNL     1      -2.384   5.312  -0.093  0.00  0.00    +0.081 A 
ATOM     19  C   UNL     1      -2.153   3.917  -0.039  0.00  0.00    +0.267 A 
ATOM     20  O   UNL     1      -3.076   3.143   0.147  0.00  0.00    -0.267 OA
BRANCH  17  21
ATOM     21  N   UNL     1      -1.459   7.533  -0.372  0.00  0.00    -0.326 N 
ATOM     22  H   UNL     1      -2.346   7.910  -0.264  0.00  0.00    +0.148 HD
BRANCH  21  23
ATOM     23  C   UNL     1      -0.311   8.414  -0.598  0.00  0.00    +0.066 C 
ATOM     24  C   UNL     1      -0.046   8.530  -2.101  0.00  0.00    +0.027 C 
ATOM     25  C   UNL     1      -0.611   9.800  -0.025  0.00  0.00    +0.027 C 
ENDBRANCH  21  23
ENDBRANCH  17  21
ENDBRANCH   1  18
BRANCH   5  26
ATOM     26  C   UNL     1      -6.322   9.123   2.623  0.00  0.00    +0.150 C 
BRANCH  26  27
ATOM     27  C   UNL     1      -6.280  10.425   1.865  0.00  0.00    -0.026 A 
ATOM     28  C   UNL     1      -6.826  10.502   0.597  0.00  0.00    +0.009 A 
ATOM     29  C   UNL     1      -6.790  11.693  -0.104  0.00  0.00    +0.050 A 
ATOM     30  C   UNL     1      -6.208  12.814   0.465  0.00  0.00    +0.166 A 
ATOM     31  C   UNL     1      -5.659  12.737   1.742  0.00  0.00    +0.167 A 
ATOM     32  C   UNL     1      -5.702  11.541   2.440  0.00  0.00    +0.054 A 
ATOM     33  O   UNL     1      -5.153  13.960   2.075  0.00  0.00    -0.453 OA
ATOM     34  C   UNL     1      -5.760  14.889   1.157  0.00  0.00    +0.466 C 
ATOM     35  O   UNL     1      -6.046  14.086  -0.003  0.00  0.00    -0.453 OA
ENDBRANCH  26  27
ENDBRANCH   5  26
TORSDOF 5
