REMARK  Name = ZINC39400631
REMARK  7 active torsions:
REMARK  status: ('A' for Active; 'I' for Inactive)
REMARK    1  A    between atoms: C_6  and  C_10
REMARK    2  A    between atoms: C_10  and  C_11
REMARK    3  A    between atoms: C_11  and  N_12
REMARK    4  A    between atoms: C_13  and  C_15
REMARK    5  A    between atoms: C_15  and  C_16
REMARK    6  A    between atoms: N_23  and  C_24
REMARK    7  A    between atoms: C_24  and  C_25
REMARK                            x       y       z     vdW  Elec       q    Type
REMARK                         _______ _______ _______ _____ _____    ______ ____
ROOT
ATOM      1  N   UNL     1       4.583  -4.482   1.661  0.00  0.00    -0.315 N 
ATOM      2  C   UNL     1       5.182  -5.129   2.680  0.00  0.00    +0.215 C 
ATOM      3  O   UNL     1       5.171  -4.647   3.793  0.00  0.00    -0.276 OA
ATOM      4  H   UNL     1       4.591  -4.867   0.770  0.00  0.00    +0.149 HD
ENDROOT
BRANCH   1   5
ATOM      5  C   UNL     1       3.918  -3.198   1.897  0.00  0.00    +0.110 C 
BRANCH   5   6
ATOM      6  C   UNL     1       3.324  -2.682   0.585  0.00  0.00    +0.073 C 
BRANCH   6  12
ATOM      7  C   UNL     1      -0.044   2.167   1.630  0.00  0.00    +0.005 A 
ATOM      8  C   UNL     1       1.182   2.835   1.471  0.00  0.00    +0.018 A 
ATOM      9  C   UNL     1       2.307   2.139   1.206  0.00  0.00    +0.092 A 
ATOM     10  N   UNL     1       2.273   0.780   1.089  0.00  0.00    -0.308 N 
ATOM     11  C   UNL     1       3.241  -0.152   0.831  0.00  0.00    +0.113 A 
ATOM     12  C   UNL     1       2.640  -1.362   0.828  0.00  0.00    +0.036 A 
ATOM     13  N   UNL     1       1.339  -1.192   1.077  0.00  0.00    -0.343 N 
ATOM     14  C   UNL     1       1.092   0.100   1.239  0.00  0.00    +0.115 A 
ATOM     15  C   UNL     1      -0.092   0.812   1.516  0.00  0.00    +0.045 A 
ATOM     16  H   UNL     1       0.680  -1.902   1.131  0.00  0.00    +0.167 HD
ENDBRANCH   6  12
ENDBRANCH   5   6
ENDBRANCH   1   5
BRANCH   2  17
ATOM     17  C   UNL     1       5.866  -6.449   2.437  0.00  0.00    +0.124 C 
BRANCH  17  18
ATOM     18  C   UNL     1       6.340  -7.031   3.770  0.00  0.00    +0.152 C 
ATOM     19  C   UNL     1       5.151  -7.306   4.646  0.00  0.00    +0.231 C 
ATOM     20  O   UNL     1       4.168  -7.813   4.149  0.00  0.00    -0.274 OA
ATOM     21  N   UNL     1       5.131  -7.015   5.951  0.00  0.00    -0.313 N 
ATOM     22  C   UNL     1       6.248  -6.373   6.638  0.00  0.00    +0.119 C 
ATOM     23  C   UNL     1       7.524  -6.508   5.805  0.00  0.00    +0.104 C 
ATOM     24  N   UNL     1       7.236  -6.072   4.429  0.00  0.00    -0.285 NA
ATOM     25  H   UNL     1       4.340  -7.241   6.464  0.00  0.00    +0.149 HD
BRANCH  24  26
ATOM     26  C   UNL     1       8.478  -5.899   3.664  0.00  0.00    +0.127 C 
BRANCH  26  27
ATOM     27  C   UNL     1       9.193  -4.660   4.139  0.00  0.00    +0.004 A 
ATOM     28  C   UNL     1      10.121  -4.533   5.118  0.00  0.00    +0.012 A 
ATOM     29  C   UNL     1      10.648  -3.283   5.385  0.00  0.00    +0.008 A 
ATOM     30  C   UNL     1      10.220  -2.221   4.660  0.00  0.00    +0.045 A 
ATOM     31  S   UNL     1       9.041  -2.980   3.554  0.00  0.00    -0.100 S 
ENDBRANCH  26  27
ENDBRANCH  24  26
ENDBRANCH  17  18
ENDBRANCH   2  17
TORSDOF 7
