REMARK  Name = ZINC19973978
REMARK  2 active torsions:
REMARK  status: ('A' for Active; 'I' for Inactive)
REMARK    1  A    between atoms: C_4  and  C_7
REMARK    2  A    between atoms: C_8  and  C_9
REMARK                            x       y       z     vdW  Elec       q    Type
REMARK                         _______ _______ _______ _____ _____    ______ ____
ROOT
ATOM      1  C   UNL     1       1.951  -0.581  -8.158  0.00  0.00    +0.023 C 
ATOM      2  C   UNL     1       0.910  -0.363  -7.062  0.00  0.00    +0.044 C 
ATOM      3  C   UNL     1       1.499  -0.589  -5.700  0.00  0.00    -0.019 A 
ATOM      4  C   UNL     1       2.646  -1.365  -5.511  0.00  0.00    +0.040 A 
ATOM      5  C   UNL     1       3.154  -1.551  -4.216  0.00  0.00    +0.124 A 
ATOM      6  N   UNL     1       2.572  -1.004  -3.174  0.00  0.00    -0.235 NA
ATOM      7  C   UNL     1       1.478  -0.252  -3.296  0.00  0.00    +0.169 A 
ATOM      8  C   UNL     1       0.910  -0.024  -4.575  0.00  0.00    +0.087 A 
ATOM      9  C   UNL     1      -0.296   0.810  -4.666  0.00  0.00    +0.262 A 
ATOM     10  O   UNL     1      -0.827   1.040  -5.737  0.00  0.00    -0.267 OA
ATOM     11  N   UNL     1      -0.798   1.309  -3.512  0.00  0.00    -0.294 N 
ATOM     12  H   UNL     1      -1.705   1.931  -3.530  0.00  0.00    +0.172 HD
ATOM     13  C   UNL     1      -0.185   1.043  -2.324  0.00  0.00    +0.200 A 
ATOM     14  N   UNL     1       0.892   0.302  -2.220  0.00  0.00    -0.196 NA
ATOM     15  N   UNL     1      -0.723   1.572  -1.182  0.00  0.00    -0.301 N 
ATOM     16  C   UNL     1      -0.013   1.086   0.008  0.00  0.00    +0.108 C 
ATOM     17  C   UNL     1      -0.729   1.579   1.267  0.00  0.00    +0.019 C 
ATOM     18  C   UNL     1      -0.764   3.110   1.262  0.00  0.00    +0.003 C 
ATOM     19  C   UNL     1      -1.466   3.591  -0.011  0.00  0.00    +0.019 C 
ATOM     20  C   UNL     1      -0.729   3.040  -1.234  0.00  0.00    +0.108 C 
ATOM     21  C   UNL     1       3.317  -1.979  -6.667  0.00  0.00    +0.165 C 
ATOM     22  O   UNL     1       4.419  -2.476  -6.562  0.00  0.00    -0.292 OA
ATOM     23  C   UNL     1       2.584  -1.969  -7.992  0.00  0.00    +0.087 C 
ENDROOT
BRANCH   1  25
ATOM     24  C   UNL     1       1.680   0.430 -10.378  0.00  0.00    +0.004 C 
ATOM     25  C   UNL     1       1.287  -0.489  -9.508  0.00  0.00    -0.022 C 
BRANCH  24  29
ATOM     26  C   UNL     1      -0.191   0.689 -14.182  0.00  0.00    +0.000 A 
ATOM     27  C   UNL     1       0.829   1.566 -13.855  0.00  0.00    +0.001 A 
ATOM     28  C   UNL     1       1.441   1.486 -12.621  0.00  0.00    +0.008 A 
ATOM     29  C   UNL     1       1.029   0.520 -11.702  0.00  0.00    -0.025 A 
ATOM     30  C   UNL     1       0.004  -0.364 -12.040  0.00  0.00    +0.008 A 
ATOM     31  C   UNL     1      -0.604  -0.271 -13.276  0.00  0.00    +0.001 A 
ENDBRANCH  24  29
ENDBRANCH   1  25
TORSDOF 2
