REMARK  Name = ZINC39665227
REMARK  9 active torsions:
REMARK  status: ('A' for Active; 'I' for Inactive)
REMARK    1  A    between atoms: C_1  and  C_2
REMARK    2  A    between atoms: C_2  and  C_4
REMARK    3  A    between atoms: C_2  and  O_30
REMARK    4  A    between atoms: C_4  and  N_5
REMARK    5  A    between atoms: C_6  and  C_8
REMARK    6  A    between atoms: C_19  and  C_21
REMARK    7  A    between atoms: C_21  and  O_22
REMARK    8  A    between atoms: O_22  and  C_23
REMARK    9  A    between atoms: O_30  and  C_31
REMARK                            x       y       z     vdW  Elec       q    Type
REMARK                         _______ _______ _______ _____ _____    ______ ____
ROOT
ATOM      1  C   UNL     1       0.698  -4.272  -1.909  0.00  0.00    +0.100 C 
ATOM      2  C   UNL     1       1.241  -4.811  -0.566  0.00  0.00    +0.121 C 
ATOM      3  N   UNL     1       1.798  -6.144  -0.894  0.00  0.00    -0.297 N 
ATOM      4  C   UNL     1       2.449  -5.957  -2.213  0.00  0.00    +0.115 C 
ATOM      5  C   UNL     1       1.494  -5.026  -2.987  0.00  0.00    -0.004 C 
ATOM      6  C   UNL     1       2.291  -4.044  -3.839  0.00  0.00    -0.010 C 
ATOM      7  C   UNL     1       3.028  -4.811  -4.941  0.00  0.00    -0.082 C 
ATOM      8  N   UNL     1       2.057  -5.533  -5.771  0.00  0.00    +0.379 N 
ATOM      9  C   UNL     1       1.360  -6.541  -4.963  0.00  0.00    -0.082 C 
ATOM     10  C   UNL     1       0.552  -5.847  -3.863  0.00  0.00    -0.010 C 
ATOM     11  C   UNL     1       1.728  -7.272  -0.161  0.00  0.00    +0.253 C 
ATOM     12  O   UNL     1       2.238  -8.294  -0.569  0.00  0.00    -0.272 OA
ATOM     13  H   UNL     1       1.385  -4.880  -6.145  0.00  0.00    -0.086 HD
ATOM     14  H   UNL     1       2.539  -5.988  -6.532  0.00  0.00    -0.086 HD
ENDROOT
BRANCH   1  16
ATOM     15  N   UNL     1       0.129  -2.026  -2.773  0.00  0.00    -0.312 N 
ATOM     16  C   UNL     1       0.942  -2.789  -2.017  0.00  0.00    +0.218 C 
ATOM     17  O   UNL     1       1.871  -2.283  -1.424  0.00  0.00    -0.275 OA
ATOM     18  H   UNL     1      -0.614  -2.431  -3.247  0.00  0.00    +0.149 HD
BRANCH  15  19
ATOM     19  C   UNL     1       0.366  -0.584  -2.878  0.00  0.00    +0.148 C 
BRANCH  19  21
ATOM     20  C   UNL     1      -0.372   1.523  -3.999  0.00  0.00    +0.053 C 
ATOM     21  C   UNL     1      -0.692   0.042  -3.789  0.00  0.00    +0.187 C 
BRANCH  21  22
ATOM     22  O   UNL     1      -1.979  -0.086  -3.182  0.00  0.00    -0.488 OA
BRANCH  22  23
ATOM     23  C   UNL     1      -3.057  -0.064  -4.010  0.00  0.00    +0.121 A 
ATOM     24  C   UNL     1      -2.888   0.184  -5.364  0.00  0.00    +0.045 A 
ATOM     25  C   UNL     1      -3.985   0.205  -6.203  0.00  0.00    +0.004 A 
ATOM     26  C   UNL     1      -5.250  -0.021  -5.695  0.00  0.00    +0.000 A 
ATOM     27  C   UNL     1      -5.421  -0.269  -4.345  0.00  0.00    +0.004 A 
ATOM     28  C   UNL     1      -4.327  -0.297  -3.503  0.00  0.00    +0.045 A 
ENDBRANCH  22  23
ENDBRANCH  21  22
ENDBRANCH  19  21
ENDBRANCH  15  19
ENDBRANCH   1  16
BRANCH  11  29
ATOM     29  C   UNL     1       1.014  -7.264   1.167  0.00  0.00    +0.324 C 
BRANCH  29  30
ATOM     30  O   UNL     1       1.076  -8.568   1.748  0.00  0.00    -0.483 OA
BRANCH  30  31
ATOM     31  C   UNL     1       0.476  -8.734   2.956  0.00  0.00    +0.123 A 
ATOM     32  C   UNL     1      -0.164  -7.665   3.567  0.00  0.00    +0.046 A 
ATOM     33  C   UNL     1      -0.773  -7.835   4.795  0.00  0.00    +0.005 A 
ATOM     34  C   UNL     1      -0.747  -9.070   5.416  0.00  0.00    +0.020 A 
ATOM     35  C   UNL     1      -0.109 -10.138   4.810  0.00  0.00    +0.044 A 
ATOM     36  C   UNL     1       0.498  -9.974   3.578  0.00  0.00    +0.065 A 
ATOM     37 CL   UNL     1      -0.077 -11.687   5.593  0.00  0.00    -0.083 Cl
ENDBRANCH  30  31
ENDBRANCH  29  30
ENDBRANCH  11  29
TORSDOF 8
