REMARK  Name = ZINC15787739
REMARK  7 active torsions:
REMARK  status: ('A' for Active; 'I' for Inactive)
REMARK    1  A    between atoms: C_5  and  C_7
REMARK    2  A    between atoms: C_7  and  C_9
REMARK    3  A    between atoms: C_7  and  N_61
REMARK    4  A    between atoms: C_9  and  N_10
REMARK    5  A    between atoms: C_11  and  C_13
REMARK    6  A    between atoms: N_16  and  C_19
REMARK    7  A    between atoms: C_24  and  N_25
REMARK                            x       y       z     vdW  Elec       q    Type
REMARK                         _______ _______ _______ _____ _____    ______ ____
ROOT
ATOM      1  N   UNL     1      -0.136   1.221  -1.091  0.00  0.00    -0.316 N 
ATOM      2  C   UNL     1       0.832   1.726  -1.881  0.00  0.00    +0.216 C 
ATOM      3  O   UNL     1       1.595   0.980  -2.458  0.00  0.00    -0.276 OA
ATOM      4  H   UNL     1      -0.748   1.818  -0.632  0.00  0.00    +0.149 HD
ENDROOT
BRANCH   2   5
ATOM      5  C   UNL     1       0.966   3.218  -2.048  0.00  0.00    +0.078 C 
ATOM      6  C   UNL     1      -0.326   3.785  -2.643  0.00  0.00    +0.031 C 
ATOM      7  C   UNL     1      -0.161   5.290  -2.868  0.00  0.00    +0.106 C 
ATOM      8  N   UNL     1       0.966   5.530  -3.779  0.00  0.00    -0.328 N 
ATOM      9  C   UNL     1       2.225   5.037  -3.206  0.00  0.00    +0.106 C 
ATOM     10  C   UNL     1       2.132   3.524  -2.993  0.00  0.00    +0.031 C 
BRANCH   8  11
ATOM     11  C   UNL     1       1.063   6.884  -4.109  0.00  0.00    +0.060 A 
ATOM     12  C   UNL     1       1.341   7.823  -3.123  0.00  0.00    +0.025 A 
ATOM     13  C   UNL     1       1.441   9.159  -3.454  0.00  0.00    +0.002 A 
ATOM     14  C   UNL     1       1.254   9.565  -4.763  0.00  0.00    +0.002 A 
ATOM     15  C   UNL     1       0.972   8.634  -5.745  0.00  0.00    +0.034 A 
ATOM     16  C   UNL     1       0.875   7.295  -5.422  0.00  0.00    +0.147 A 
BRANCH  16  17
ATOM     17  N   UNL     1       0.572   6.299  -6.474  0.00  0.00    +0.058 N 
ATOM     18  O   UNL     1       0.408   6.660  -7.626  0.00  0.00    -0.126 OA
ATOM     19  O   UNL     1       0.487   5.118  -6.188  0.00  0.00    -0.126 OA
ENDBRANCH  16  17
ENDBRANCH   8  11
ENDBRANCH   2   5
BRANCH   1  20
ATOM     20  C   UNL     1      -0.266  -0.229  -0.928  0.00  0.00    +0.093 C 
BRANCH  20  21
ATOM     21  C   UNL     1      -1.433  -0.534   0.013  0.00  0.00    -0.019 C 
BRANCH  21  26
ATOM     22  C   UNL     1      -2.698  -4.074  -0.337  0.00  0.00    +0.000 A 
ATOM     23  C   UNL     1      -1.820  -4.763   0.479  0.00  0.00    +0.001 A 
ATOM     24  C   UNL     1      -0.817  -4.084   1.144  0.00  0.00    +0.020 A 
ATOM     25  C   UNL     1      -0.688  -2.715   0.990  0.00  0.00    +0.043 A 
ATOM     26  C   UNL     1      -1.570  -2.025   0.177  0.00  0.00    -0.041 A 
ATOM     27  C   UNL     1      -2.573  -2.705  -0.488  0.00  0.00    +0.003 A 
ATOM     28 CL   UNL     1       0.577  -1.863   1.819  0.00  0.00    -0.083 Cl
ENDBRANCH  21  26
BRANCH  21  33
ATOM     29  C   UNL     1      -2.821  -0.369  -1.981  0.00  0.00    -0.078 C 
ATOM     30  C   UNL     1      -4.338  -0.192  -2.242  0.00  0.00    -0.020 C 
ATOM     31  C   UNL     1      -4.975  -0.673  -0.918  0.00  0.00    -0.020 C 
ATOM     32  C   UNL     1      -3.860  -0.542   0.136  0.00  0.00    -0.078 C 
ATOM     33  N   UNL     1      -2.699   0.010  -0.565  0.00  0.00    +0.385 N 
ATOM     34  H   UNL     1      -2.697   1.033  -0.478  0.00  0.00    -0.081 HD
ENDBRANCH  21  33
ENDBRANCH  20  21
ENDBRANCH   1  20
TORSDOF 7
