REMARK  Name = ZINC01114698
REMARK  7 active torsions:
REMARK  status: ('A' for Active; 'I' for Inactive)
REMARK    1  A    between atoms: C_1  and  C_2
REMARK    2  A    between atoms: C_5  and  C_35
REMARK    3  A    between atoms: C_5  and  C_36
REMARK    4  A    between atoms: C_10  and  O_33
REMARK    5  A    between atoms: C_28  and  N_32
REMARK    6  A    between atoms: C_29  and  C_30
REMARK    7  A    between atoms: O_33  and  C_34
REMARK                            x       y       z     vdW  Elec       q    Type
REMARK                         _______ _______ _______ _____ _____    ______ ____
ROOT
ATOM      1  C   UNL     1       4.954  -6.085   2.459  0.00  0.00    +0.012 C 
ATOM      2  C   UNL     1       4.027  -5.256   1.569  0.00  0.00    +0.020 C 
ATOM      3  C   UNL     1       4.478  -5.378   0.110  0.00  0.00    +0.033 C 
ATOM      4  C   UNL     1       3.625  -4.513  -0.826  0.00  0.00    +0.037 C 
ATOM      5  N   UNL     1       3.674  -3.121  -0.344  0.00  0.00    -0.264 N 
ATOM      6  C   UNL     1       3.896  -2.853   1.006  0.00  0.00    +0.045 A 
ATOM      7  C   UNL     1       4.079  -3.818   1.995  0.00  0.00    -0.019 A 
ATOM      8  C   UNL     1       4.291  -3.364   3.275  0.00  0.00    +0.051 A 
ATOM      9  C   UNL     1       4.316  -2.000   3.548  0.00  0.00    +0.121 A 
ATOM     10  C   UNL     1       4.128  -1.035   2.554  0.00  0.00    +0.052 A 
ATOM     11  C   UNL     1       3.916  -1.491   1.272  0.00  0.00    +0.003 A 
ATOM     12  C   UNL     1       3.678  -0.829  -0.048  0.00  0.00    +0.148 C 
ATOM     13  C   UNL     1       3.533  -1.978  -1.033  0.00  0.00    +0.241 C 
ATOM     14  O   UNL     1       3.328  -1.879  -2.225  0.00  0.00    -0.273 OA
ATOM     15  C   UNL     1       2.410  -0.023  -0.025  0.00  0.00    +0.104 A 
ATOM     16  C   UNL     1       2.459   1.341  -0.014  0.00  0.00    +0.152 A 
ATOM     17  C   UNL     1       1.183   2.073   0.002  0.00  0.00    +0.060 A 
ATOM     18  C   UNL     1       1.156   3.469   0.009  0.00  0.00    +0.015 A 
ATOM     19  C   UNL     1      -0.054   4.127   0.023  0.00  0.00    +0.001 A 
ATOM     20  C   UNL     1      -1.240   3.407   0.030  0.00  0.00    +0.004 A 
ATOM     21  C   UNL     1      -1.226   2.029   0.019  0.00  0.00    +0.047 A 
ATOM     22  C   UNL     1      -0.016   1.344   0.009  0.00  0.00    +0.143 A 
ATOM     23  O   UNL     1       0.002  -0.004   0.002  0.00  0.00    -0.422 OA
ATOM     24  C   UNL     1       1.163  -0.667  -0.015  0.00  0.00    +0.346 A 
ATOM     25  O   UNL     1       1.137  -1.886  -0.023  0.00  0.00    -0.245 OA
ATOM     26  O   UNL     1       3.629   2.004  -0.021  0.00  0.00    -0.440 OA
ATOM     27  C   UNL     1       4.758   1.382  -0.406  0.00  0.00    +0.199 C 
ATOM     28  C   UNL     1       4.846   0.029  -0.440  0.00  0.00    +0.110 C 
ATOM     29  C   UNL     1       2.178  -5.012  -0.812  0.00  0.00    +0.032 C 
ATOM     30  C   UNL     1       4.183  -4.586  -2.248  0.00  0.00    +0.032 C 
ENDROOT
BRANCH  27  31
ATOM     31  N   UNL     1       5.846   2.134  -0.773  0.00  0.00    -0.328 N 
ATOM     32  H   UNL     1       6.665   1.696  -1.053  0.00  0.00    +0.145 HD
ATOM     33  H   UNL     1       5.795   3.102  -0.753  0.00  0.00    +0.145 HD
ENDBRANCH  27  31
BRANCH  28  34
ATOM     34  C   UNL     1       6.068  -0.589  -0.857  0.00  0.00    +0.102 C 
ATOM     35  N   UNL     1       7.038  -1.079  -1.187  0.00  0.00    -0.191 NA
ENDBRANCH  28  34
BRANCH   9  36
ATOM     36  O   UNL     1       4.529  -1.591   4.827  0.00  0.00    -0.495 OA
ATOM     37  C   UNL     1       4.716  -2.610   5.811  0.00  0.00    +0.277 C 
ENDBRANCH   9  36
TORSDOF 3
