REMARK  Name = ZINC60220452
REMARK  8 active torsions:
REMARK  status: ('A' for Active; 'I' for Inactive)
REMARK    1  A    between atoms: C_1  and  C_2
REMARK    2  A    between atoms: C_2  and  C_3
REMARK    3  A    between atoms: C_3  and  C_27
REMARK    4  A    between atoms: N_6  and  C_10
REMARK    5  A    between atoms: C_10  and  C_11
REMARK    6  A    between atoms: N_13  and  C_14
REMARK    7  A    between atoms: C_19  and  C_20
REMARK    8  A    between atoms: C_20  and  N_21
REMARK                            x       y       z     vdW  Elec       q    Type
REMARK                         _______ _______ _______ _____ _____    ______ ____
ROOT
ATOM      1  C   UNL     1      -3.753   2.511   1.913  0.00  0.00    +0.235 C 
ATOM      2  O   UNL     1      -2.703   2.839   1.403  0.00  0.00    -0.274 OA
ATOM      3  N   UNL     1      -4.525   3.435   2.519  0.00  0.00    -0.284 N 
ATOM      4  H   UNL     1      -5.397   3.188   2.865  0.00  0.00    +0.155 HD
ENDROOT
BRANCH   3   5
ATOM      5  C   UNL     1      -4.069   4.752   2.649  0.00  0.00    +0.035 A 
ATOM      6  C   UNL     1      -3.275   5.314   1.658  0.00  0.00    +0.023 A 
ATOM      7  C   UNL     1      -2.827   6.614   1.789  0.00  0.00    +0.002 A 
ATOM      8  C   UNL     1      -3.166   7.355   2.906  0.00  0.00    +0.000 A 
ATOM      9  C   UNL     1      -3.956   6.797   3.895  0.00  0.00    +0.003 A 
ATOM     10  C   UNL     1      -4.413   5.500   3.767  0.00  0.00    -0.043 A 
BRANCH  10  11
ATOM     11  C   UNL     1      -5.279   4.896   4.842  0.00  0.00    -0.041 C 
BRANCH  11  12
ATOM     12  N   UNL     1      -4.468   4.005   5.681  0.00  0.00    +0.383 N 
ATOM     13  C   UNL     1      -5.347   3.277   6.598  0.00  0.00    -0.068 C 
ATOM     14  C   UNL     1      -4.593   2.092   7.213  0.00  0.00    +0.050 C 
ATOM     15  S   UNL     1      -3.190   2.744   8.172  0.00  0.00    -0.164 S 
ATOM     16  C   UNL     1      -2.399   3.885   6.995  0.00  0.00    +0.050 C 
ATOM     17  C   UNL     1      -3.481   4.802   6.413  0.00  0.00    -0.068 C 
ATOM     18  H   UNL     1      -3.986   3.343   5.091  0.00  0.00    -0.081 HD
ENDBRANCH  11  12
ENDBRANCH  10  11
ENDBRANCH   3   5
BRANCH   1  19
ATOM     19  C   UNL     1      -4.196   1.072   1.869  0.00  0.00    +0.214 C 
BRANCH  19  23
ATOM     20  C   UNL     1      -1.388  -1.032   0.649  0.00  0.00    +0.138 C 
ATOM     21  C   UNL     1      -2.146  -0.330   1.759  0.00  0.00    +0.251 C 
ATOM     22  O   UNL     1      -1.868  -0.315   2.939  0.00  0.00    -0.272 OA
ATOM     23  N   UNL     1      -3.192   0.274   1.161  0.00  0.00    -0.215 N 
ATOM     24  C   UNL     1      -3.200   0.054  -0.159  0.00  0.00    +0.310 C 
ATOM     25  O   UNL     1      -4.046   0.495  -0.911  0.00  0.00    -0.252 OA
ATOM     26  N   UNL     1      -2.169  -0.711  -0.559  0.00  0.00    -0.281 N 
ATOM     27  H   UNL     1      -1.976  -0.996  -1.466  0.00  0.00    +0.152 HD
BRANCH  20  28
ATOM     28  C   UNL     1      -1.358  -2.520   0.881  0.00  0.00    -0.015 A 
ATOM     29  C   UNL     1      -0.299  -3.092   1.561  0.00  0.00    +0.006 A 
ATOM     30  C   UNL     1      -0.271  -4.458   1.774  0.00  0.00    +0.000 A 
ATOM     31  C   UNL     1      -1.303  -5.251   1.308  0.00  0.00    +0.000 A 
ATOM     32  C   UNL     1      -2.363  -4.679   0.630  0.00  0.00    +0.000 A 
ATOM     33  C   UNL     1      -2.393  -3.313   0.420  0.00  0.00    +0.006 A 
ENDBRANCH  20  28
BRANCH  20  35
ATOM     34  C   UNL     1      -0.024   1.040   0.351  0.00  0.00    +0.007 C 
ATOM     35  C   UNL     1       0.033  -0.477   0.534  0.00  0.00    +0.037 C 
ENDBRANCH  20  35
ENDBRANCH  19  23
ENDBRANCH   1  19
TORSDOF 7
