REMARK  Name = ZINC65536643
REMARK  10 active torsions:
REMARK  status: ('A' for Active; 'I' for Inactive)
REMARK    1  A    between atoms: C_1  and  C_2
REMARK    2  A    between atoms: C_2  and  C_3
REMARK    3  A    between atoms: C_4  and  C_9
REMARK    4  A    between atoms: C_6  and  C_8
REMARK    5  A    between atoms: C_9  and  N_10
REMARK    6  A    between atoms: C_13  and  C_24
REMARK    7  A    between atoms: C_14  and  C_23
REMARK    8  A    between atoms: C_18  and  C_20
REMARK    9  A    between atoms: C_20  and  C_21
REMARK   10  A    between atoms: C_21  and  N_22
REMARK                            x       y       z     vdW  Elec       q    Type
REMARK                         _______ _______ _______ _____ _____    ______ ____
ROOT
ATOM      1  N   UNL     1      -2.544   0.651   3.267  0.00  0.00    -0.324 N 
ATOM      2  C   UNL     1      -2.155   1.046   4.534  0.00  0.00    +0.131 A 
ATOM      3  C   UNL     1      -2.087   2.427   4.869  0.00  0.00    +0.051 A 
ATOM      4  C   UNL     1      -2.375   3.595   4.056  0.00  0.00    -0.028 A 
ATOM      5  C   UNL     1      -2.240   4.817   4.593  0.00  0.00    -0.008 A 
ATOM      6  S   UNL     1      -1.705   4.481   6.260  0.00  0.00    -0.074 S 
ATOM      7  C   UNL     1      -1.679   2.710   6.191  0.00  0.00    +0.114 A 
ATOM      8  N   UNL     1      -1.385   1.746   7.041  0.00  0.00    -0.225 NA
ATOM      9  C   UNL     1      -1.467   0.482   6.671  0.00  0.00    +0.131 A 
ATOM     10  N   UNL     1      -1.847   0.144   5.452  0.00  0.00    -0.217 NA
ATOM     11  C   UNL     1      -2.481   6.154   3.942  0.00  0.00    +0.052 C 
ATOM     12  C   UNL     1      -2.821   3.437   2.625  0.00  0.00    +0.045 C 
ATOM     13  H   UNL     1      -2.853   1.312   2.627  0.00  0.00    +0.148 HD
ENDROOT
BRANCH   1  14
ATOM     14  C   UNL     1      -2.489  -0.763   2.891  0.00  0.00    +0.147 C 
BRANCH  14  16
ATOM     15  C   UNL     1      -2.255  -0.889   0.311  0.00  0.00    +0.053 A 
ATOM     16  C   UNL     1      -2.962  -0.925   1.470  0.00  0.00    +0.030 A 
ATOM     17  S   UNL     1      -4.608  -1.216   0.842  0.00  0.00    -0.075 S 
ATOM     18  C   UNL     1      -4.225  -1.260  -0.797  0.00  0.00    +0.076 A 
ATOM     19  N   UNL     1      -2.931  -1.058  -0.807  0.00  0.00    -0.249 NA
ATOM     20  C   UNL     1      -5.149  -1.474  -1.968  0.00  0.00    +0.073 C 
BRANCH  15  22
ATOM     21  C   UNL     1      -0.479   0.839   0.219  0.00  0.00    +0.010 C 
ATOM     22  C   UNL     1      -0.765  -0.661   0.304  0.00  0.00    +0.053 C 
ENDBRANCH  15  22
ENDBRANCH  14  16
ENDBRANCH   1  14
BRANCH   9  23
ATOM     23  C   UNL     1      -1.125  -0.599   7.663  0.00  0.00    +0.057 C 
BRANCH  23  24
ATOM     24  C   UNL     1      -2.385  -1.003   8.432  0.00  0.00    -0.079 C 
BRANCH  24  25
ATOM     25  N   UNL     1      -2.052  -2.057   9.399  0.00  0.00    +0.378 N 
ATOM     26  H   UNL     1      -1.686  -2.860   8.909  0.00  0.00    -0.090 HD
ATOM     27  H   UNL     1      -1.359  -1.713  10.046  0.00  0.00    -0.090 HD
ATOM     28  H   UNL     1      -2.883  -2.323   9.906  0.00  0.00    -0.090 HD
ENDBRANCH  24  25
ENDBRANCH  23  24
ENDBRANCH   9  23
TORSDOF 6
