REMARK  Name = ZINC64891094
REMARK  8 active torsions:
REMARK  status: ('A' for Active; 'I' for Inactive)
REMARK    1  A    between atoms: C_1  and  C_2
REMARK    2  A    between atoms: C_2  and  C_3
REMARK    3  A    between atoms: C_2  and  N_4
REMARK    4  A    between atoms: C_8  and  C_15
REMARK    5  A    between atoms: C_17  and  C_20
REMARK    6  A    between atoms: C_20  and  C_21
REMARK    7  A    between atoms: C_24  and  N_27
REMARK    8  A    between atoms: C_28  and  C_30
REMARK                            x       y       z     vdW  Elec       q    Type
REMARK                         _______ _______ _______ _____ _____    ______ ____
ROOT
ATOM      1  C   UNL     1      -4.041  -3.642  -3.604  0.00  0.00    +0.202 A 
ATOM      2  N   UNL     1      -3.872  -4.289  -4.772  0.00  0.00    -0.191 NA
ATOM      3  C   UNL     1      -4.954  -4.945  -5.079  0.00  0.00    +0.232 A 
ATOM      4  O   UNL     1      -5.861  -4.744  -4.114  0.00  0.00    -0.337 OA
ATOM      5  N   UNL     1      -5.246  -3.895  -3.157  0.00  0.00    -0.056 NA
ENDROOT
BRANCH   1  10
ATOM      6  N   UNL     1      -0.403  -0.370  -0.838  0.00  0.00    -0.290 N 
ATOM      7  C   UNL     1      -1.127  -1.203  -1.685  0.00  0.00    +0.070 A 
ATOM      8  C   UNL     1      -0.833  -1.813  -2.897  0.00  0.00    +0.029 A 
ATOM      9  C   UNL     1      -1.776  -2.603  -3.518  0.00  0.00    +0.014 A 
ATOM     10  C   UNL     1      -3.028  -2.791  -2.932  0.00  0.00    +0.025 A 
ATOM     11  C   UNL     1      -3.329  -2.180  -1.718  0.00  0.00    +0.039 A 
ATOM     12  C   UNL     1      -2.380  -1.388  -1.095  0.00  0.00    +0.068 A 
ATOM     13  N   UNL     1      -2.376  -0.660   0.094  0.00  0.00    -0.306 N 
ATOM     14  H   UNL     1      -3.111  -0.596   0.723  0.00  0.00    +0.170 HD
ATOM     15  C   UNL     1      -1.175  -0.065   0.221  0.00  0.00    +0.328 A 
ATOM     16  O   UNL     1      -0.840   0.643   1.152  0.00  0.00    -0.247 OA
BRANCH   6  18
ATOM     17  C   UNL     1       0.990   1.621  -1.120  0.00  0.00    +0.031 C 
ATOM     18  C   UNL     1       0.970   0.093  -1.059  0.00  0.00    +0.086 C 
ATOM     19  C   UNL     1       1.859  -0.384   0.091  0.00  0.00    +0.031 C 
ENDBRANCH   6  18
ENDBRANCH   1  10
BRANCH   3  20
ATOM     20  C   UNL     1      -5.153  -5.789  -6.311  0.00  0.00    +0.134 C 
BRANCH  20  21
ATOM     21  C   UNL     1      -4.728  -7.206  -6.024  0.00  0.00    -0.038 A 
ATOM     22  C   UNL     1      -3.418  -7.592  -6.245  0.00  0.00    +0.006 A 
ATOM     23  C   UNL     1      -3.026  -8.890  -5.982  0.00  0.00    +0.023 A 
ATOM     24  C   UNL     1      -3.947  -9.808  -5.495  0.00  0.00    +0.033 A 
ATOM     25  C   UNL     1      -5.261  -9.417  -5.274  0.00  0.00    +0.023 A 
ATOM     26  C   UNL     1      -5.646  -8.116  -5.534  0.00  0.00    +0.006 A 
BRANCH  24  27
ATOM     27  N   UNL     1      -3.553 -11.123  -5.228  0.00  0.00    -0.286 N 
ATOM     28  C   UNL     1      -2.304 -11.376  -4.788  0.00  0.00    +0.214 C 
ATOM     29  O   UNL     1      -1.554 -10.458  -4.531  0.00  0.00    -0.276 OA
ATOM     30  C   UNL     1      -1.841 -12.800  -4.614  0.00  0.00    +0.109 C 
ATOM     31  H   UNL     1      -4.178 -11.853  -5.361  0.00  0.00    +0.155 HD
ENDBRANCH  24  27
ENDBRANCH  20  21
ENDBRANCH   3  20
TORSDOF 5
