REMARK  Name = ZINC06624450
REMARK  11 active torsions:
REMARK  status: ('A' for Active; 'I' for Inactive)
REMARK    1  A    between atoms: C_1  and  C_2
REMARK    2  A    between atoms: C_9  and  O_11
REMARK    3  A    between atoms: O_11  and  C_12
REMARK    4  A    between atoms: C_12  and  C_14
REMARK    5  A    between atoms: C_17  and  O_21
REMARK    6  A    between atoms: C_18  and  O_20
REMARK    7  A    between atoms: O_21  and  C_22
REMARK    8  A    between atoms: C_23  and  C_30
REMARK    9  A    between atoms: C_23  and  O_31
REMARK   10  A    between atoms: C_27  and  C_28
REMARK   11  A    between atoms: C_27  and  C_29
REMARK                            x       y       z     vdW  Elec       q    Type
REMARK                         _______ _______ _______ _____ _____    ______ ____
ROOT
ATOM      1  C   UNL     1      -2.808   0.728  -0.456  0.00  0.00    +0.042 C 
ATOM      2  C   UNL     1      -1.510   1.506  -0.428  0.00  0.00    -0.036 C 
ATOM      3  C   UNL     1      -0.408   0.824  -0.391  0.00  0.00    -0.020 C 
ATOM      4  C   UNL     1       0.942   1.492  -0.369  0.00  0.00    +0.023 C 
ATOM      5  C   UNL     1       0.859   2.812  -1.048  0.00  0.00    +0.032 C 
ATOM      6  C   UNL     1      -0.250   3.696  -0.502  0.00  0.00    +0.056 C 
ATOM      7  C   UNL     1      -1.592   2.997  -0.444  0.00  0.00    +0.203 C 
ATOM      8  C   UNL     1       2.135   3.595  -1.276  0.00  0.00    +0.067 C 
ATOM      9  C   UNL     1       2.509   4.382  -0.020  0.00  0.00    +0.035 C 
ATOM     10  C   UNL     1       2.975   3.491   1.101  0.00  0.00    +0.003 C 
ATOM     11  C   UNL     1       1.840   2.675   1.715  0.00  0.00    +0.007 C 
ATOM     12  C   UNL     1       1.576   1.363   1.000  0.00  0.00    -0.028 C 
ATOM     13  C   UNL     1       0.615   0.550   1.901  0.00  0.00    +0.011 C 
ATOM     14  C   UNL     1       2.866   0.539   0.898  0.00  0.00    +0.011 C 
ATOM     15  C   UNL     1       3.289   2.709  -1.746  0.00  0.00    +0.041 C 
ENDROOT
BRANCH   8  16
ATOM     16  O   UNL     1       1.888   4.559  -2.331  0.00  0.00    -0.389 OA
ATOM     17  H   UNL     1       2.648   5.120  -2.538  0.00  0.00    +0.210 HD
ENDBRANCH   8  16
BRANCH   7  18
ATOM     18  O   UNL     1      -2.375   3.408  -1.599  0.00  0.00    -0.453 OA
BRANCH  18  19
ATOM     19  C   UNL     1      -3.714   3.434  -1.452  0.00  0.00    +0.340 C 
ATOM     20  O   UNL     1      -4.215   3.124  -0.389  0.00  0.00    -0.245 OA
BRANCH  19  21
ATOM     21  C   UNL     1      -4.572   3.841  -2.580  0.00  0.00    +0.063 A 
ATOM     22  C   UNL     1      -3.998   4.199  -3.803  0.00  0.00    +0.019 A 
ATOM     23  C   UNL     1      -4.801   4.578  -4.856  0.00  0.00    +0.050 A 
ATOM     24  C   UNL     1      -6.181   4.607  -4.706  0.00  0.00    +0.161 A 
ATOM     25  C   UNL     1      -6.761   4.251  -3.489  0.00  0.00    +0.159 A 
ATOM     26  C   UNL     1      -5.962   3.864  -2.431  0.00  0.00    +0.064 A 
BRANCH  25  27
ATOM     27  O   UNL     1      -8.113   4.279  -3.346  0.00  0.00    -0.503 OA
ATOM     28  H   UNL     1      -8.550   3.447  -3.572  0.00  0.00    +0.292 HD
ENDBRANCH  25  27
BRANCH  24  29
ATOM     29  O   UNL     1      -6.968   4.981  -5.747  0.00  0.00    -0.491 OA
ATOM     30  C   UNL     1      -6.309   5.333  -6.965  0.00  0.00    +0.277 C 
ENDBRANCH  24  29
ENDBRANCH  19  21
ENDBRANCH  18  19
ENDBRANCH   7  18
TORSDOF 6
