REMARK  Name = ZINC39912385
REMARK  12 active torsions:
REMARK  status: ('A' for Active; 'I' for Inactive)
REMARK    1  A    between atoms: C_1  and  C_2
REMARK    2  A    between atoms: C_2  and  C_3
REMARK    3  A    between atoms: C_3  and  O_4
REMARK    4  A    between atoms: O_4  and  C_5
REMARK    5  A    between atoms: C_9  and  C_11
REMARK    6  A    between atoms: C_14  and  C_30
REMARK    7  A    between atoms: N_21  and  C_22
REMARK    8  A    between atoms: C_22  and  C_23
REMARK    9  A    between atoms: C_26  and  C_29
REMARK   10  A    between atoms: C_32  and  C_38
REMARK   11  A    between atoms: C_34  and  C_37
REMARK   12  A    between atoms: C_35  and  O_36
REMARK                            x       y       z     vdW  Elec       q    Type
REMARK                         _______ _______ _______ _____ _____    ______ ____
ROOT
ATOM      1  C   UNL     1       2.030  -5.616  -3.850  0.00  0.00    +0.142 C 
ATOM      2  C   UNL     1       0.917  -6.365  -4.531  0.00  0.00    +0.035 A 
ATOM      3  C   UNL     1      -0.452  -6.644  -4.591  0.00  0.00    +0.102 A 
ATOM      4  N   UNL     1      -0.639  -7.494  -5.581  0.00  0.00    -0.173 NA
ATOM      5  N   UNL     1       0.477  -7.780  -6.152  0.00  0.00    -0.272 N 
ATOM      6  H   UNL     1       0.580  -8.384  -6.904  0.00  0.00    +0.189 HD
ATOM      7  C   UNL     1       1.497  -7.105  -5.543  0.00  0.00    +0.126 A 
ATOM      8  C   UNL     1       2.943  -6.856  -5.534  0.00  0.00    +0.266 C 
ATOM      9  O   UNL     1       3.739  -7.359  -6.304  0.00  0.00    -0.268 OA
ATOM     10  N   UNL     1       3.264  -5.992  -4.553  0.00  0.00    -0.281 N 
ENDROOT
BRANCH   3  11
ATOM     11  C   UNL     1      -1.502  -6.086  -3.703  0.00  0.00    +0.044 A 
ATOM     12  C   UNL     1      -1.149  -5.289  -2.617  0.00  0.00    +0.017 A 
ATOM     13  C   UNL     1      -2.129  -4.772  -1.794  0.00  0.00    -0.049 A 
ATOM     14  C   UNL     1      -3.462  -5.043  -2.043  0.00  0.00    +0.010 A 
ATOM     15  C   UNL     1      -3.824  -5.833  -3.118  0.00  0.00    -0.008 A 
ATOM     16  C   UNL     1      -2.850  -6.353  -3.956  0.00  0.00    +0.129 A 
ATOM     17  C   UNL     1      -5.279  -6.124  -3.383  0.00  0.00    +0.047 C 
ATOM     18  C   UNL     1      -1.745  -3.910  -0.619  0.00  0.00    +0.044 C 
BRANCH  16  19
ATOM     19  O   UNL     1      -3.205  -7.125  -5.016  0.00  0.00    -0.506 OA
ATOM     20  H   UNL     1      -3.260  -8.069  -4.815  0.00  0.00    +0.292 HD
ENDBRANCH  16  19
ENDBRANCH   3  11
BRANCH   1  25
ATOM     21  C   UNL     1       1.274  -2.027  -2.943  0.00  0.00    +0.121 A 
ATOM     22  C   UNL     1       1.380  -1.403  -4.177  0.00  0.00    +0.045 A 
ATOM     23  C   UNL     1       1.697  -2.144  -5.299  0.00  0.00    +0.004 A 
ATOM     24  C   UNL     1       1.907  -3.507  -5.192  0.00  0.00    +0.006 A 
ATOM     25  C   UNL     1       1.801  -4.131  -3.963  0.00  0.00    -0.019 A 
ATOM     26  C   UNL     1       1.490  -3.393  -2.837  0.00  0.00    +0.051 A 
BRANCH  21  27
ATOM     27  O   UNL     1       0.963  -1.300  -1.837  0.00  0.00    -0.492 OA
BRANCH  27  28
ATOM     28  C   UNL     1       0.753   0.102  -2.021  0.00  0.00    +0.229 C 
BRANCH  28  30
ATOM     29  C   UNL     1       0.192   2.248  -0.872  0.00  0.00    +0.007 C 
ATOM     30  C   UNL     1       0.416   0.747  -0.675  0.00  0.00    +0.038 C 
ENDBRANCH  28  30
ENDBRANCH  27  28
ENDBRANCH  21  27
ENDBRANCH   1  25
BRANCH  10  31
ATOM     31  C   UNL     1       4.611  -5.508  -4.240  0.00  0.00    +0.144 C 
BRANCH  31  32
ATOM     32  C   UNL     1       5.254  -6.428  -3.234  0.00  0.00    -0.030 A 
ATOM     33  C   UNL     1       5.099  -6.190  -1.881  0.00  0.00    +0.005 A 
ATOM     34  C   UNL     1       5.689  -7.034  -0.959  0.00  0.00    +0.003 A 
ATOM     35  C   UNL     1       6.433  -8.116  -1.389  0.00  0.00    -0.050 A 
ATOM     36  C   UNL     1       6.588  -8.355  -2.742  0.00  0.00    +0.003 A 
ATOM     37  C   UNL     1       5.994  -7.514  -3.664  0.00  0.00    +0.005 A 
ATOM     38  C   UNL     1       7.077  -9.036  -0.383  0.00  0.00    +0.044 C 
ENDBRANCH  31  32
ENDBRANCH  10  31
TORSDOF 8
