REMARK  Name = ZINC08917739
REMARK  2 active torsions:
REMARK  status: ('A' for Active; 'I' for Inactive)
REMARK    1  A    between atoms: C_4  and  C_7
REMARK    2  A    between atoms: C_7  and  C_9
REMARK                            x       y       z     vdW  Elec       q    Type
REMARK                         _______ _______ _______ _____ _____    ______ ____
ROOT
ATOM      1  C   UNL     1       3.636  -0.752  -0.170  0.00  0.00    +0.080 C 
ATOM      2  C   UNL     1       2.148  -1.113  -0.284  0.00  0.00    +0.071 C 
ATOM      3  C   UNL     1       1.910  -2.565   0.018  0.00  0.00    -0.012 A 
ATOM      4  C   UNL     1       2.151  -3.357   1.118  0.00  0.00    +0.006 A 
ATOM      5  C   UNL     1       1.811  -4.698   1.095  0.00  0.00    +0.000 A 
ATOM      6  C   UNL     1       1.228  -5.240  -0.036  0.00  0.00    +0.002 A 
ATOM      7  C   UNL     1       0.984  -4.450  -1.141  0.00  0.00    +0.023 A 
ATOM      8  C   UNL     1       1.323  -3.100  -1.125  0.00  0.00    +0.038 A 
ATOM      9  N   UNL     1       1.179  -2.111  -2.101  0.00  0.00    -0.285 N 
ATOM     10  C   UNL     1       1.640  -0.915  -1.686  0.00  0.00    +0.227 C 
ATOM     11  O   UNL     1       1.644   0.119  -2.318  0.00  0.00    -0.275 OA
ATOM     12  C   UNL     1       1.445  -0.198   0.713  0.00  0.00    -0.046 C 
ATOM     13  C   UNL     1       0.077   0.250   0.182  0.00  0.00    -0.016 C 
ATOM     14  C   UNL     1       0.158   1.792   0.117  0.00  0.00    -0.020 C 
ATOM     15  C   UNL     1       1.678   2.053  -0.004  0.00  0.00    -0.076 C 
ATOM     16  C   UNL     1       3.634   0.694   0.339  0.00  0.00    +0.052 C 
ATOM     17  C   UNL     1       4.683   0.888   1.402  0.00  0.00    -0.026 A 
ATOM     18  C   UNL     1       4.888   0.320   2.640  0.00  0.00    +0.024 A 
ATOM     19  C   UNL     1       5.970   0.710   3.410  0.00  0.00    +0.041 A 
ATOM     20  C   UNL     1       6.843   1.671   2.932  0.00  0.00    +0.022 A 
ATOM     21  C   UNL     1       6.641   2.242   1.693  0.00  0.00    +0.025 A 
ATOM     22  C   UNL     1       5.554   1.855   0.912  0.00  0.00    +0.036 A 
ATOM     23  N   UNL     1       5.142   2.278  -0.353  0.00  0.00    -0.286 N 
ATOM     24  C   UNL     1       4.026   1.648  -0.762  0.00  0.00    +0.212 C 
ATOM     25  O   UNL     1       3.445   1.815  -1.814  0.00  0.00    -0.277 OA
ATOM     26 CL   UNL     1       6.231  -0.004   4.971  0.00  0.00    -0.084 Cl
ATOM     27  H   UNL     1       0.792  -2.267  -2.977  0.00  0.00    +0.155 HD
ATOM     28  H   UNL     1       5.607   2.949  -0.878  0.00  0.00    +0.155 HD
ATOM     29  N   UNL     1       2.276   0.998   0.830  0.00  0.00    +0.395 N 
ATOM     30  H   UNL     1       2.319   1.304   1.808  0.00  0.00    -0.079 HD
ENDROOT
BRANCH   1  31
ATOM     31  C   UNL     1       4.327  -1.658   0.817  0.00  0.00    +0.167 C 
ATOM     32  O   UNL     1       3.892  -1.772   1.943  0.00  0.00    -0.292 OA
BRANCH  31  36
ATOM     33  C   UNL     1       7.794  -3.808  -0.345  0.00  0.00    +0.000 A 
ATOM     34  C   UNL     1       7.301  -3.940   0.941  0.00  0.00    +0.001 A 
ATOM     35  C   UNL     1       6.174  -3.245   1.327  0.00  0.00    +0.011 A 
ATOM     36  C   UNL     1       5.530  -2.404   0.414  0.00  0.00    +0.018 A 
ATOM     37  C   UNL     1       6.032  -2.279  -0.886  0.00  0.00    +0.011 A 
ATOM     38  C   UNL     1       7.162  -2.977  -1.254  0.00  0.00    +0.001 A 
ENDBRANCH  31  36
ENDBRANCH   1  31
TORSDOF 2
