REMARK  Name = ZINC63269424
REMARK  9 active torsions:
REMARK  status: ('A' for Active; 'I' for Inactive)
REMARK    1  A    between atoms: C_1  and  C_2
REMARK    2  A    between atoms: C_2  and  C_3
REMARK    3  A    between atoms: C_2  and  N_4
REMARK    4  A    between atoms: N_7  and  N_8
REMARK    5  A    between atoms: C_9  and  C_11
REMARK    6  A    between atoms: C_11  and  C_12
REMARK    7  A    between atoms: C_11  and  C_13
REMARK    8  A    between atoms: C_11  and  O_14
REMARK    9  A    between atoms: O_14  and  C_15
REMARK                            x       y       z     vdW  Elec       q    Type
REMARK                         _______ _______ _______ _____ _____    ______ ____
ROOT
ATOM      1  N   UNL     1      -4.052  -0.587   0.143  0.00  0.00    -0.230 N 
ATOM      2  C   UNL     1      -5.139  -1.383   0.119  0.00  0.00    +0.272 C 
ATOM      3  O   UNL     1      -5.045  -2.527  -0.273  0.00  0.00    -0.270 OA
ATOM      4  H   UNL     1      -4.128   0.328   0.456  0.00  0.00    +0.173 HD
ENDROOT
BRANCH   1   8
ATOM      5  N   UNL     1      -1.831   0.988   0.174  0.00  0.00    -0.296 N 
ATOM      6  C   UNL     1      -1.726  -0.283  -0.262  0.00  0.00    +0.316 C 
ATOM      7  O   UNL     1      -0.650  -0.711  -0.633  0.00  0.00    -0.251 OA
ATOM      8  N   UNL     1      -2.813  -1.080  -0.285  0.00  0.00    -0.218 N 
ATOM      9  H   UNL     1      -2.689   1.329   0.470  0.00  0.00    +0.151 HD
ATOM     10  H   UNL     1      -2.737  -1.995  -0.599  0.00  0.00    +0.174 HD
BRANCH   5  12
ATOM     11  C   UNL     1      -1.088   3.317   0.115  0.00  0.00    +0.027 C 
ATOM     12  C   UNL     1      -0.650   1.854   0.199  0.00  0.00    +0.068 C 
ATOM     13  C   UNL     1       0.121   1.626   1.501  0.00  0.00    +0.027 C 
ENDBRANCH   5  12
ENDBRANCH   1   8
BRANCH   2  14
ATOM     14  C   UNL     1      -6.472  -0.852   0.580  0.00  0.00    +0.181 C 
ATOM     15  C   UNL     1      -6.369  -0.412   2.042  0.00  0.00    +0.065 C 
ATOM     16  C   UNL     1      -6.872   0.344  -0.286  0.00  0.00    +0.065 C 
BRANCH  14  17
ATOM     17  O   UNL     1      -7.460  -1.878   0.461  0.00  0.00    -0.477 OA
BRANCH  17  18
ATOM     18  C   UNL     1      -7.692  -2.369  -0.785  0.00  0.00    +0.122 A 
ATOM     19  C   UNL     1      -6.898  -1.968  -1.849  0.00  0.00    +0.047 A 
ATOM     20  C   UNL     1      -7.135  -2.468  -3.115  0.00  0.00    +0.023 A 
ATOM     21  C   UNL     1      -8.166  -3.369  -3.321  0.00  0.00    +0.041 A 
ATOM     22  C   UNL     1      -8.960  -3.769  -2.262  0.00  0.00    +0.023 A 
ATOM     23  C   UNL     1      -8.721  -3.276  -0.993  0.00  0.00    +0.047 A 
ATOM     24 CL   UNL     1      -8.463  -3.995  -4.913  0.00  0.00    -0.084 Cl
ENDBRANCH  17  18
ENDBRANCH  14  17
ENDBRANCH   2  14
TORSDOF 5
