REMARK  Name = ZINC36692963
REMARK  7 active torsions:
REMARK  status: ('A' for Active; 'I' for Inactive)
REMARK    1  A    between atoms: C_1  and  C_2
REMARK    2  A    between atoms: C_8  and  N_10
REMARK    3  A    between atoms: C_11  and  C_13
REMARK    4  A    between atoms: C_13  and  N_14
REMARK    5  A    between atoms: C_19  and  C_26
REMARK    6  A    between atoms: C_22  and  C_24
REMARK    7  A    between atoms: C_22  and  C_25
REMARK                            x       y       z     vdW  Elec       q    Type
REMARK                         _______ _______ _______ _____ _____    ______ ____
ROOT
ATOM      1  N   UNL     1       4.287   0.494   4.146  0.00  0.00    -0.215 N 
ATOM      2  C   UNL     1       4.251   1.596   4.923  0.00  0.00    +0.247 C 
ATOM      3  O   UNL     1       3.670   2.636   4.696  0.00  0.00    -0.273 OA
ATOM      4  C   UNL     1       5.088   1.262   6.137  0.00  0.00    +0.113 C 
ATOM      5  C   UNL     1       4.239   1.323   7.402  0.00  0.00    +0.038 C 
ATOM      6  C   UNL     1       5.097   0.952   8.614  0.00  0.00    -0.011 C 
ATOM      7  C   UNL     1       6.273   1.924   8.721  0.00  0.00    +0.009 C 
ATOM      8  C   UNL     1       7.128   1.834   7.456  0.00  0.00    -0.032 C 
ATOM      9  C   UNL     1       6.278   2.209   6.239  0.00  0.00    +0.041 C 
ATOM     10  C   UNL     1       7.650   0.405   7.293  0.00  0.00    +0.011 C 
ATOM     11  C   UNL     1       8.310   2.799   7.569  0.00  0.00    +0.011 C 
ATOM     12  C   UNL     1       4.248   1.035   9.884  0.00  0.00    +0.007 C 
ATOM     13  N   UNL     1       5.543  -0.112   5.888  0.00  0.00    -0.285 N 
ATOM     14  C   UNL     1       5.020  -0.478   4.702  0.00  0.00    +0.310 C 
ATOM     15  O   UNL     1       5.196  -1.567   4.193  0.00  0.00    -0.252 OA
ATOM     16  H   UNL     1       6.106  -0.651   6.466  0.00  0.00    +0.151 HD
ENDROOT
BRANCH   1  17
ATOM     17  C   UNL     1       3.604   0.374   2.856  0.00  0.00    +0.213 C 
BRANCH  17  19
ATOM     18  N   UNL     1       1.393  -0.357   2.020  0.00  0.00    -0.311 N 
ATOM     19  C   UNL     1       2.212  -0.163   3.072  0.00  0.00    +0.231 C 
ATOM     20  O   UNL     1       1.829  -0.420   4.194  0.00  0.00    -0.274 OA
ATOM     21  H   UNL     1       1.700  -0.152   1.123  0.00  0.00    +0.149 HD
BRANCH  18  28
ATOM     22  C   UNL     1      -0.907   1.087   1.015  0.00  0.00    +0.009 C 
ATOM     23  C   UNL     1      -0.861  -0.441   1.075  0.00  0.00    +0.006 C 
ATOM     24  C   UNL     1      -2.273  -0.986   1.294  0.00  0.00    +0.005 C 
ATOM     25  C   UNL     1      -2.227  -2.514   1.354  0.00  0.00    +0.000 C 
ATOM     26  C   UNL     1      -1.325  -2.953   2.510  0.00  0.00    +0.002 C 
ATOM     27  C   UNL     1       0.087  -2.408   2.290  0.00  0.00    +0.022 C 
ATOM     28  C   UNL     1       0.041  -0.879   2.230  0.00  0.00    +0.076 C 
ENDBRANCH  18  28
ENDBRANCH  17  19
ENDBRANCH   1  17
TORSDOF 3
