REMARK  Name = ZINC13571675
REMARK  6 active torsions:
REMARK  status: ('A' for Active; 'I' for Inactive)
REMARK    1  A    between atoms: C_4  and  N_7
REMARK    2  A    between atoms: C_12  and  C_34
REMARK    3  A    between atoms: C_15  and  C_20
REMARK    4  A    between atoms: C_15  and  C_31
REMARK    5  A    between atoms: C_20  and  C_21
REMARK    6  A    between atoms: C_39  and  O_40
REMARK                            x       y       z     vdW  Elec       q    Type
REMARK                         _______ _______ _______ _____ _____    ______ ____
ROOT
ATOM      1  N   UNL     1       3.827  -0.505   0.273  0.00  0.00    -0.210 N 
ATOM      2  C   UNL     1       5.016   0.063   0.042  0.00  0.00    +0.229 C 
ATOM      3  O   UNL     1       5.215   1.254  -0.067  0.00  0.00    -0.275 OA
ATOM      4  C   UNL     1       6.074  -1.012  -0.062  0.00  0.00    +0.077 C 
ATOM      5  C   UNL     1       6.589  -1.079  -1.515  0.00  0.00    -0.023 C 
ATOM      6  N   UNL     1       5.644  -1.991  -2.209  0.00  0.00    +0.396 N 
ATOM      7  C   UNL     1       5.376  -3.062  -1.216  0.00  0.00    +0.052 C 
ATOM      8  C   UNL     1       5.273  -2.325   0.153  0.00  0.00    +0.086 C 
ATOM      9  C   UNL     1       3.856  -1.840   0.360  0.00  0.00    +0.229 C 
ATOM     10  O   UNL     1       2.896  -2.550   0.569  0.00  0.00    -0.275 OA
ATOM     11  H   UNL     1       4.791  -1.504  -2.443  0.00  0.00    -0.083 HD
ATOM     12  H   UNL     1       6.070  -2.376  -3.038  0.00  0.00    -0.083 HD
ENDROOT
BRANCH   1  16
ATOM     13  C   UNL     1       0.320   1.707   0.706  0.00  0.00    +0.000 A 
ATOM     14  C   UNL     1       1.319   1.806   1.656  0.00  0.00    +0.002 A 
ATOM     15  C   UNL     1       2.482   1.074   1.515  0.00  0.00    +0.024 A 
ATOM     16  C   UNL     1       2.647   0.239   0.419  0.00  0.00    +0.044 A 
ATOM     17  C   UNL     1       1.641   0.141  -0.533  0.00  0.00    +0.024 A 
ATOM     18  C   UNL     1       0.481   0.875  -0.388  0.00  0.00    +0.002 A 
ENDBRANCH   1  16
BRANCH   5  19
ATOM     19  C   UNL     1       6.560   0.290  -2.146  0.00  0.00    -0.019 A 
ATOM     20  C   UNL     1       5.492   0.663  -2.939  0.00  0.00    +0.005 A 
ATOM     21  C   UNL     1       5.465   1.918  -3.518  0.00  0.00    +0.000 A 
ATOM     22  C   UNL     1       6.506   2.803  -3.304  0.00  0.00    +0.004 A 
ATOM     23  C   UNL     1       7.576   2.435  -2.511  0.00  0.00    +0.045 A 
ATOM     24  C   UNL     1       7.602   1.178  -1.925  0.00  0.00    +0.118 A 
BRANCH  24  25
ATOM     25  O   UNL     1       8.651   0.815  -1.140  0.00  0.00    -0.507 OA
ATOM     26  H   UNL     1       9.375   0.392  -1.621  0.00  0.00    +0.292 HD
ENDBRANCH  24  25
ENDBRANCH   5  19
BRANCH   7  27
ATOM     27  C   UNL     1       6.514  -4.050  -1.189  0.00  0.00    +0.347 C 
ATOM     28  O   UNL     1       7.462  -3.908  -1.943  0.00  0.00    -0.248 OA
ATOM     29  O   UNL     1       6.487  -4.990  -0.413  0.00  0.00    -0.248 OA
ENDBRANCH   7  27
BRANCH   7  30
ATOM     30  C   UNL     1       4.060  -3.772  -1.540  0.00  0.00    +0.037 C 
BRANCH  30  31
ATOM     31  C   UNL     1       4.158  -4.417  -2.899  0.00  0.00    -0.023 A 
ATOM     32  C   UNL     1       3.754  -3.888  -4.065  0.00  0.00    +0.087 A 
ATOM     33  N   UNL     1       4.005  -4.763  -5.086  0.00  0.00    -0.360 N 
ATOM     34  H   UNL     1       3.800  -4.602  -6.021  0.00  0.00    +0.165 HD
ATOM     35  C   UNL     1       4.591  -5.905  -4.590  0.00  0.00    +0.047 A 
ATOM     36  C   UNL     1       4.719  -5.736  -3.199  0.00  0.00    +0.003 A 
ATOM     37  C   UNL     1       5.293  -6.745  -2.425  0.00  0.00    +0.010 A 
ATOM     38  C   UNL     1       5.732  -7.893  -3.023  0.00  0.00    +0.001 A 
ATOM     39  C   UNL     1       5.612  -8.064  -4.395  0.00  0.00    +0.002 A 
ATOM     40  C   UNL     1       5.040  -7.084  -5.177  0.00  0.00    +0.026 A 
ENDBRANCH  30  31
ENDBRANCH   7  30
TORSDOF 6
