REMARK  Name = ZINC20059281
REMARK  5 active torsions:
REMARK  status: ('A' for Active; 'I' for Inactive)
REMARK    1  A    between atoms: C_4  and  C_7
REMARK    2  A    between atoms: C_7  and  N_8
REMARK    3  A    between atoms: C_16  and  O_29
REMARK    4  A    between atoms: C_18  and  C_21
REMARK    5  A    between atoms: C_26  and  O_27
REMARK                            x       y       z     vdW  Elec       q    Type
REMARK                         _______ _______ _______ _____ _____    ______ ____
ROOT
ATOM      1  N   UNL     1       4.153  -0.953   1.342  0.00  0.00    +0.386 N 
ATOM      2  C   UNL     1       5.491  -1.559   1.326  0.00  0.00    -0.073 C 
ATOM      3  C   UNL     1       6.098  -1.536   2.732  0.00  0.00    +0.018 C 
ATOM      4  C   UNL     1       5.088  -2.156   3.689  0.00  0.00    -0.027 A 
ATOM      5  C   UNL     1       3.793  -2.286   3.315  0.00  0.00    -0.021 A 
ATOM      6  S   UNL     1       2.997  -3.041   4.704  0.00  0.00    -0.080 S 
ATOM      7  C   UNL     1       4.299  -3.182   5.722  0.00  0.00    +0.080 A 
ATOM      8  C   UNL     1       5.385  -2.644   5.020  0.00  0.00    +0.067 A 
ATOM      9  C   UNL     1       6.702  -2.625   5.708  0.00  0.00    +0.220 C 
ATOM     10  N   UNL     1       6.824  -3.326   6.802  0.00  0.00    -0.223 NA
ATOM     11  C   UNL     1       5.780  -4.174   7.362  0.00  0.00    +0.227 C 
ATOM     12  N   UNL     1       4.435  -3.696   6.992  0.00  0.00    -0.313 N 
ATOM     13  C   UNL     1       3.204  -1.866   2.006  0.00  0.00    -0.035 C 
ATOM     14  H   UNL     1       3.689  -3.740   7.609  0.00  0.00    +0.149 HD
ATOM     15  H   UNL     1       4.186  -0.079   1.845  0.00  0.00    -0.081 HD
ENDROOT
BRANCH  11  16
ATOM     16  C   UNL     1       5.959  -5.579   6.847  0.00  0.00    +0.037 A 
ATOM     17  C   UNL     1       4.854  -6.365   6.584  0.00  0.00    +0.026 A 
ATOM     18  C   UNL     1       5.018  -7.655   6.111  0.00  0.00    +0.018 A 
ATOM     19  C   UNL     1       6.288  -8.161   5.902  0.00  0.00    +0.019 A 
ATOM     20  C   UNL     1       7.396  -7.378   6.163  0.00  0.00    +0.047 A 
ATOM     21  C   UNL     1       7.234  -6.082   6.632  0.00  0.00    +0.124 A 
ATOM     22 BR   UNL     1       3.503  -8.729   5.753  0.00  0.00    -0.050 Br
BRANCH  21  23
ATOM     23  O   UNL     1       8.322  -5.309   6.886  0.00  0.00    -0.506 OA
ATOM     24  H   UNL     1       8.658  -5.387   7.789  0.00  0.00    +0.292 HD
ENDBRANCH  21  23
ENDBRANCH  11  16
BRANCH   9  25
ATOM     25  O   UNL     1       7.738  -1.908   5.216  0.00  0.00    -0.492 OA
ATOM     26  H   UNL     1       8.545  -1.969   5.745  0.00  0.00    +0.294 HD
ENDBRANCH   9  25
BRANCH   1  27
ATOM     27  C   UNL     1       3.711  -0.707  -0.038  0.00  0.00    -0.043 C 
BRANCH  27  31
ATOM     28  C   UNL     1      -0.017   1.378   0.010  0.00  0.00    +0.000 A 
ATOM     29  C   UNL     1       1.171   2.086   0.002  0.00  0.00    +0.000 A 
ATOM     30  C   UNL     1       2.377   1.411  -0.013  0.00  0.00    +0.002 A 
ATOM     31  C   UNL     1       2.396   0.029  -0.020  0.00  0.00    -0.064 A 
ATOM     32  C   UNL     1       1.208  -0.679  -0.012  0.00  0.00    +0.002 A 
ATOM     33  C   UNL     1       0.002  -0.004   0.002  0.00  0.00    +0.000 A 
ENDBRANCH  27  31
ENDBRANCH   1  27
TORSDOF 5
