REMARK  Name = ZINC39666652
REMARK  9 active torsions:
REMARK  status: ('A' for Active; 'I' for Inactive)
REMARK    1  A    between atoms: C_1  and  C_2
REMARK    2  A    between atoms: C_6  and  C_8
REMARK    3  A    between atoms: C_8  and  C_9
REMARK    4  A    between atoms: C_13  and  C_22
REMARK    5  A    between atoms: N_24  and  C_25
REMARK    6  A    between atoms: C_25  and  C_26
REMARK    7  A    between atoms: C_26  and  C_28
REMARK    8  A    between atoms: C_26  and  O_29
REMARK    9  A    between atoms: O_29  and  C_30
REMARK                            x       y       z     vdW  Elec       q    Type
REMARK                         _______ _______ _______ _____ _____    ______ ____
ROOT
ATOM      1  C   UNL     1      -0.584  -2.975   2.676  0.00  0.00    +0.220 C 
ATOM      2  O   UNL     1       0.173  -2.315   1.995  0.00  0.00    -0.275 OA
ATOM      3  N   UNL     1      -0.160  -3.490   3.848  0.00  0.00    -0.300 N 
ATOM      4  C   UNL     1      -0.929  -4.319   4.806  0.00  0.00    +0.121 C 
ATOM      5  C   UNL     1       0.081  -5.378   5.303  0.00  0.00    +0.100 C 
ATOM      6  C   UNL     1       1.462  -4.738   5.081  0.00  0.00    -0.004 C 
ATOM      7  C   UNL     1       1.181  -3.360   4.466  0.00  0.00    +0.115 C 
ATOM      8  C   UNL     1       2.286  -5.582   4.113  0.00  0.00    -0.010 C 
ATOM      9  C   UNL     1       3.674  -4.957   3.953  0.00  0.00    -0.082 C 
ATOM     10  N   UNL     1       4.336  -4.889   5.261  0.00  0.00    +0.379 N 
ATOM     11  C   UNL     1       3.586  -4.001   6.157  0.00  0.00    -0.082 C 
ATOM     12  C   UNL     1       2.193  -4.586   6.410  0.00  0.00    -0.010 C 
ATOM     13  H   UNL     1       4.378  -5.814   5.664  0.00  0.00    -0.086 HD
ATOM     14  H   UNL     1       5.273  -4.534   5.145  0.00  0.00    -0.086 HD
ENDROOT
BRANCH   5  15
ATOM     15  C   UNL     1      -0.049  -6.645   4.497  0.00  0.00    +0.218 C 
ATOM     16  O   UNL     1      -0.419  -6.595   3.343  0.00  0.00    -0.275 OA
ATOM     17  N   UNL     1       0.247  -7.834   5.059  0.00  0.00    -0.312 N 
ATOM     18  H   UNL     1       0.543  -7.874   5.981  0.00  0.00    +0.149 HD
BRANCH  17  19
ATOM     19  C   UNL     1       0.121  -9.066   4.276  0.00  0.00    +0.148 C 
BRANCH  19  20
ATOM     20  C   UNL     1       0.515 -10.263   5.142  0.00  0.00    +0.187 C 
ATOM     21  C   UNL     1       0.503 -11.534   4.291  0.00  0.00    +0.053 C 
BRANCH  20  22
ATOM     22  O   UNL     1      -0.418 -10.401   6.216  0.00  0.00    -0.486 OA
BRANCH  22  23
ATOM     23  C   UNL     1       0.022 -11.027   7.339  0.00  0.00    +0.139 A 
ATOM     24  C   UNL     1       1.287 -11.595   7.367  0.00  0.00    +0.047 A 
ATOM     25  C   UNL     1       1.733 -12.231   8.510  0.00  0.00    +0.004 A 
ATOM     26  C   UNL     1       0.919 -12.302   9.626  0.00  0.00    +0.002 A 
ATOM     27  C   UNL     1      -0.343 -11.737   9.601  0.00  0.00    +0.023 A 
ATOM     28  C   UNL     1      -0.791 -11.094   8.462  0.00  0.00    +0.083 A 
ATOM     29 CL   UNL     1      -2.373 -10.379   8.434  0.00  0.00    -0.080 Cl
ENDBRANCH  22  23
ENDBRANCH  20  22
ENDBRANCH  19  20
ENDBRANCH  17  19
ENDBRANCH   5  15
BRANCH   1  30
ATOM     30  C   UNL     1      -1.996  -3.219   2.212  0.00  0.00    +0.131 C 
BRANCH  30  36
ATOM     31  C   UNL     1      -3.369   0.806  -0.426  0.00  0.00    +0.044 C 
ATOM     32  C   UNL     1      -2.871  -0.615  -0.378  0.00  0.00    -0.050 A 
ATOM     33  C   UNL     1      -2.612  -1.297  -1.553  0.00  0.00    +0.003 A 
ATOM     34  C   UNL     1      -2.155  -2.601  -1.509  0.00  0.00    +0.001 A 
ATOM     35  C   UNL     1      -1.956  -3.223  -0.290  0.00  0.00    +0.004 A 
ATOM     36  C   UNL     1      -2.213  -2.541   0.884  0.00  0.00    -0.038 A 
ATOM     37  C   UNL     1      -2.666  -1.235   0.840  0.00  0.00    +0.007 A 
ENDBRANCH  30  36
ENDBRANCH   1  30
TORSDOF 7
