REMARK  Name = ZINC20615127
REMARK  6 active torsions:
REMARK  status: ('A' for Active; 'I' for Inactive)
REMARK    1  A    between atoms: C_1  and  C_2
REMARK    2  A    between atoms: C_2  and  C_3
REMARK    3  A    between atoms: C_2  and  N_4
REMARK    4  A    between atoms: C_7  and  C_18
REMARK    5  A    between atoms: C_9  and  C_11
REMARK    6  A    between atoms: C_14  and  O_17
REMARK                            x       y       z     vdW  Elec       q    Type
REMARK                         _______ _______ _______ _____ _____    ______ ____
ROOT
ATOM      1  N   UNL     1      -0.680   1.613   1.201  0.00  0.00    -0.303 N 
ATOM      2  C   UNL     1      -1.039   0.755   2.222  0.00  0.00    +0.149 A 
ATOM      3  C   UNL     1      -1.678   1.297   3.353  0.00  0.00    +0.093 A 
ATOM      4  C   UNL     1      -2.054   0.458   4.403  0.00  0.00    +0.073 A 
ATOM      5  C   UNL     1      -1.782  -0.881   4.289  0.00  0.00    +0.041 A 
ATOM      6  C   UNL     1      -1.145  -1.359   3.141  0.00  0.00    +0.074 A 
ATOM      7  N   UNL     1      -0.796  -0.542   2.155  0.00  0.00    -0.229 NA
ATOM      8  C   UNL     1      -1.929   2.748   3.386  0.00  0.00    +0.262 A 
ATOM      9  O   UNL     1      -2.480   3.265   4.344  0.00  0.00    -0.267 OA
ATOM     10  N   UNL     1      -1.537   3.487   2.338  0.00  0.00    -0.302 N 
ATOM     11  C   UNL     1      -0.936   2.946   1.299  0.00  0.00    +0.162 A 
ATOM     12  S   UNL     1      -0.450   3.995  -0.031  0.00  0.00    -0.013 S 
ATOM     13  H   UNL     1      -1.728   4.570   2.360  0.00  0.00    +0.171 HD
ENDROOT
BRANCH   6  14
ATOM     14  C   UNL     1      -0.852  -2.806   3.022  0.00  0.00    +0.001 A 
ATOM     15  C   UNL     1      -1.206  -3.678   4.052  0.00  0.00    +0.013 A 
ATOM     16  C   UNL     1      -0.936  -5.025   3.937  0.00  0.00    +0.046 A 
ATOM     17  C   UNL     1      -0.303  -5.513   2.801  0.00  0.00    +0.117 A 
ATOM     18  C   UNL     1       0.056  -4.647   1.776  0.00  0.00    +0.046 A 
ATOM     19  C   UNL     1      -0.216  -3.300   1.883  0.00  0.00    +0.013 A 
BRANCH  17  20
ATOM     20  O   UNL     1      -0.035  -6.840   2.693  0.00  0.00    -0.507 OA
ATOM     21  H   UNL     1       0.467  -7.227   1.794  0.00  0.00    +0.292 HD
ENDBRANCH  17  20
ENDBRANCH   6  14
BRANCH   4  22
ATOM     22  C   UNL     1      -2.740   1.008   5.627  0.00  0.00    +0.418 C 
ATOM     23  F   UNL     1      -3.007  -0.036   6.520  0.00  0.00    -0.166 F 
ATOM     24  F   UNL     1      -1.909   1.949   6.244  0.00  0.00    -0.166 F 
ATOM     25  F   UNL     1      -3.941   1.620   5.253  0.00  0.00    -0.166 F 
ENDBRANCH   4  22
BRANCH   1  27
ATOM     26  C   UNL     1      -0.920   0.058  -0.671  0.00  0.00    +0.030 C 
ATOM     27  C   UNL     1      -0.013   1.086   0.008  0.00  0.00    +0.085 C 
ATOM     28  C   UNL     1       1.302   0.416   0.413  0.00  0.00    +0.030 C 
ENDBRANCH   1  27
TORSDOF 4
