REMARK  Name = ZINC63328977
REMARK  8 active torsions:
REMARK  status: ('A' for Active; 'I' for Inactive)
REMARK    1  A    between atoms: C_6  and  C_7
REMARK    2  A    between atoms: C_7  and  N_8
REMARK    3  A    between atoms: C_11  and  C_16
REMARK    4  A    between atoms: C_16  and  C_17
REMARK    5  A    between atoms: C_17  and  C_18
REMARK    6  A    between atoms: N_20  and  C_21
REMARK    7  A    between atoms: C_21  and  C_22
REMARK    8  A    between atoms: C_22  and  C_23
REMARK                            x       y       z     vdW  Elec       q    Type
REMARK                         _______ _______ _______ _____ _____    ______ ____
ROOT
ATOM      1  C   UNL     1      -4.172  -1.139  -3.686  0.00  0.00    +0.041 C 
ENDROOT
BRANCH   1   5
ATOM      2  N   UNL     1      -1.727  -1.016  -1.368  0.00  0.00    -0.220 N 
ATOM      3  C   UNL     1      -2.515  -0.179  -2.072  0.00  0.00    +0.244 C 
ATOM      4  O   UNL     1      -2.983   0.875  -1.698  0.00  0.00    -0.273 OA
ATOM      5  C   UNL     1      -2.696  -0.831  -3.429  0.00  0.00    +0.161 C 
ATOM      6  N   UNL     1      -1.915  -2.075  -3.322  0.00  0.00    -0.288 N 
ATOM      7  C   UNL     1      -1.383  -2.091  -2.086  0.00  0.00    +0.309 C 
ATOM      8  O   UNL     1      -0.673  -2.984  -1.667  0.00  0.00    -0.252 OA
ATOM      9  H   UNL     1      -1.803  -2.750  -4.010  0.00  0.00    +0.151 HD
BRANCH   2  10
ATOM     10  C   UNL     1      -1.294  -0.774   0.010  0.00  0.00    +0.153 C 
BRANCH  10  16
ATOM     11  C   UNL     1      -0.017   1.378   0.010  0.00  0.00    +0.009 A 
ATOM     12  C   UNL     1       1.170   2.088   0.002  0.00  0.00    +0.050 A 
ATOM     13  C   UNL     1       2.380   1.416  -0.013  0.00  0.00    +0.166 A 
ATOM     14  C   UNL     1       2.399   0.023  -0.021  0.00  0.00    +0.167 A 
ATOM     15  C   UNL     1       1.207  -0.682  -0.014  0.00  0.00    +0.054 A 
ATOM     16  C   UNL     1       0.002  -0.004   0.002  0.00  0.00    -0.026 A 
ATOM     17  O   UNL     1       3.698  -0.395  -0.036  0.00  0.00    -0.453 OA
ATOM     18  C   UNL     1       4.466   0.750  -0.450  0.00  0.00    +0.466 C 
ATOM     19  O   UNL     1       3.668   1.870  -0.024  0.00  0.00    -0.453 OA
ENDBRANCH  10  16
ENDBRANCH   2  10
ENDBRANCH   1   5
BRANCH   1  20
ATOM     20  C   UNL     1      -4.341  -1.679  -5.107  0.00  0.00    +0.098 C 
BRANCH  20  21
ATOM     21  C   UNL     1      -5.795  -1.982  -5.360  0.00  0.00    +0.213 C 
ATOM     22  O   UNL     1      -6.616  -1.786  -4.490  0.00  0.00    -0.276 OA
ATOM     23  N   UNL     1      -6.183  -2.472  -6.554  0.00  0.00    -0.315 N 
ATOM     24  H   UNL     1      -5.527  -2.630  -7.251  0.00  0.00    +0.149 HD
BRANCH  23  25
ATOM     25  C   UNL     1      -7.597  -2.767  -6.801  0.00  0.00    +0.108 C 
BRANCH  25  26
ATOM     26  C   UNL     1      -7.765  -3.308  -8.222  0.00  0.00    +0.052 C 
BRANCH  26  27
ATOM     27  C   UNL     1      -9.219  -3.611  -8.475  0.00  0.00    -0.040 C 
ATOM     28  C   UNL     1     -10.127  -2.803  -9.068  0.00  0.00    +0.000 A 
ATOM     29  C   UNL     1     -10.036  -1.450  -9.632  0.00  0.00    +0.030 A 
ATOM     30  C   UNL     1     -11.143  -0.888 -10.170  0.00  0.00    +0.042 A 
ATOM     31  C   UNL     1     -12.373  -1.563 -10.201  0.00  0.00    +0.022 A 
ATOM     32  C   UNL     1     -12.534  -2.807  -9.702  0.00  0.00    +0.027 A 
ATOM     33  C   UNL     1     -11.436  -3.493  -9.114  0.00  0.00    +0.043 A 
ATOM     34  N   UNL     1     -11.341  -4.683  -8.570  0.00  0.00    -0.380 N 
ATOM     35  C   UNL     1      -9.957  -4.883  -8.124  0.00  0.00    +0.144 C 
ATOM     36 CL   UNL     1     -11.040   0.711 -10.838  0.00  0.00    -0.084 Cl
ATOM     37  H   UNL     1     -12.063  -5.324  -8.482  0.00  0.00    +0.160 HD
ENDBRANCH  26  27
ENDBRANCH  25  26
ENDBRANCH  23  25
ENDBRANCH  20  21
ENDBRANCH   1  20
TORSDOF 8
