REMARK  Name = ZINC18088234
REMARK  7 active torsions:
REMARK  status: ('A' for Active; 'I' for Inactive)
REMARK    1  A    between atoms: C_1  and  O_2
REMARK    2  A    between atoms: O_2  and  C_3
REMARK    3  A    between atoms: C_9  and  C_13
REMARK    4  A    between atoms: C_13  and  C_14
REMARK    5  A    between atoms: C_14  and  N_53
REMARK    6  A    between atoms: C_15  and  N_53
REMARK    7  A    between atoms: N_20  and  C_23
REMARK                            x       y       z     vdW  Elec       q    Type
REMARK                         _______ _______ _______ _____ _____    ______ ____
ROOT
ATOM      1  C   UNL     1       2.255   0.826  -0.015  0.00  0.00    +0.026 C 
ATOM      2  C   UNL     1       1.438  -0.482  -0.014  0.00  0.00    +0.090 C 
ATOM      3  C   UNL     1       0.002  -0.004   0.002  0.00  0.00    +0.225 C 
ATOM      4  O   UNL     1      -0.977  -0.720   0.007  0.00  0.00    -0.275 OA
ATOM      5  N   UNL     1      -0.016   1.335   0.009  0.00  0.00    -0.211 N 
ATOM      6  C   UNL     1       1.195   1.906   0.001  0.00  0.00    +0.213 C 
ATOM      7  O   UNL     1       1.408   3.099   0.005  0.00  0.00    -0.277 OA
ENDROOT
BRANCH   5   8
ATOM      8  C   UNL     1      -1.203   2.076   0.019  0.00  0.00    +0.052 A 
ATOM      9  C   UNL     1      -1.789   2.433   1.214  0.00  0.00    +0.024 A 
ATOM     10  C   UNL     1      -2.968   3.173   1.235  0.00  0.00    +0.002 A 
ATOM     11  C   UNL     1      -3.577   3.557   0.079  0.00  0.00    +0.008 A 
ATOM     12  C   UNL     1      -3.014   3.209  -1.160  0.00  0.00    -0.016 A 
ATOM     13  C   UNL     1      -1.812   2.459  -1.194  0.00  0.00    +0.004 A 
ATOM     14  C   UNL     1      -1.252   2.111  -2.433  0.00  0.00    +0.010 A 
ATOM     15  C   UNL     1      -1.868   2.497  -3.584  0.00  0.00    +0.001 A 
ATOM     16  C   UNL     1      -3.050   3.235  -3.552  0.00  0.00    +0.001 A 
ATOM     17  C   UNL     1      -3.622   3.590  -2.369  0.00  0.00    +0.008 A 
ENDBRANCH   5   8
BRANCH   1  18
ATOM     18  N   UNL     1       3.074   0.916  -1.238  0.00  0.00    +0.387 N 
ATOM     19  H   UNL     1       3.393  -0.023  -1.503  0.00  0.00    -0.085 HD
ATOM     20  H   UNL     1       2.507   1.312  -1.997  0.00  0.00    -0.085 HD
BRANCH  18  21
ATOM     21  C   UNL     1       4.247   1.781  -1.006  0.00  0.00    -0.077 C 
BRANCH  21  22
ATOM     22  C   UNL     1       5.076   1.856  -2.289  0.00  0.00    +0.018 C 
BRANCH  22  29
ATOM     23  C   UNL     1       9.354   1.065  -0.511  0.00  0.00    +0.121 A 
ATOM     24  C   UNL     1      10.148   2.210  -0.497  0.00  0.00    +0.047 A 
ATOM     25  C   UNL     1       9.661   3.407  -0.970  0.00  0.00    +0.030 A 
ATOM     26  C   UNL     1       8.365   3.482  -1.469  0.00  0.00    +0.047 A 
ATOM     27  C   UNL     1       7.559   2.330  -1.480  0.00  0.00    +0.006 A 
ATOM     28  C   UNL     1       8.065   1.119  -1.002  0.00  0.00    +0.056 A 
ATOM     29  C   UNL     1       6.277   2.737  -2.060  0.00  0.00    -0.024 A 
ATOM     30  C   UNL     1       6.372   4.046  -2.345  0.00  0.00    +0.087 A 
ATOM     31  N   UNL     1       7.612   4.509  -1.998  0.00  0.00    -0.360 N 
ATOM     32  H   UNL     1       7.917   5.423  -2.110  0.00  0.00    +0.165 HD
BRANCH  23  34
ATOM     33  C   UNL     1      11.192  -0.096   0.453  0.00  0.00    +0.277 C 
ATOM     34  O   UNL     1       9.851  -0.110  -0.040  0.00  0.00    -0.495 OA
ENDBRANCH  23  34
ENDBRANCH  22  29
ENDBRANCH  21  22
ENDBRANCH  18  21
ENDBRANCH   1  18
TORSDOF 6
