REMARK  Name = ZINC39881884
REMARK  4 active torsions:
REMARK  status: ('A' for Active; 'I' for Inactive)
REMARK    1  A    between atoms: N_11  and  C_15
REMARK    2  A    between atoms: C_15  and  C_16
REMARK    3  A    between atoms: N_18  and  C_19
REMARK    4  A    between atoms: C_22  and  O_25
REMARK                            x       y       z     vdW  Elec       q    Type
REMARK                         _______ _______ _______ _____ _____    ______ ____
ROOT
ATOM      1  C   UNL     1      -0.031   1.382   0.005  0.00  0.00    +0.001 A 
ATOM      2  C   UNL     1       1.153   2.096  -0.009  0.00  0.00    +0.004 A 
ATOM      3  C   UNL     1       2.360   1.427  -0.036  0.00  0.00    +0.046 A 
ATOM      4  C   UNL     1       2.389   0.036  -0.047  0.00  0.00    +0.135 A 
ATOM      5  C   UNL     1       1.202  -0.677  -0.026  0.00  0.00    +0.004 A 
ATOM      6  C   UNL     1      -0.006   0.001  -0.004  0.00  0.00    +0.008 A 
ATOM      7  C   UNL     1       1.190  -2.181  -0.018  0.00  0.00    +0.076 C 
ATOM      8  C   UNL     1       0.020  -2.725  -0.754  0.00  0.00    +0.033 A 
ATOM      9  C   UNL     1      -0.021  -3.373  -1.936  0.00  0.00    +0.090 A 
ATOM     10  N   UNL     1      -1.272  -3.754  -2.353  0.00  0.00    -0.288 N 
ATOM     11  C   UNL     1      -2.348  -3.474  -1.593  0.00  0.00    +0.292 A 
ATOM     12  O   UNL     1      -3.517  -3.737  -1.812  0.00  0.00    -0.259 OA
ATOM     13  S   UNL     1      -1.689  -2.672  -0.270  0.00  0.00    -0.030 S 
ATOM     14  S   UNL     1       1.475  -3.682  -2.848  0.00  0.00    -0.106 S 
ATOM     15  C   UNL     1       2.649  -2.560  -2.029  0.00  0.00    +0.091 C 
ATOM     16  C   UNL     1       2.516  -2.733  -0.524  0.00  0.00    +0.121 C 
ATOM     17  C   UNL     1       3.624  -1.920   0.124  0.00  0.00    +0.317 C 
ATOM     18  O   UNL     1       4.485  -2.441   0.792  0.00  0.00    -0.250 OA
ATOM     19  O   UNL     1       3.598  -0.588  -0.084  0.00  0.00    -0.425 OA
ENDROOT
BRANCH  10  20
ATOM     20  C   UNL     1      -1.437  -4.465  -3.624  0.00  0.00    +0.222 C 
BRANCH  20  21
ATOM     21  C   UNL     1      -1.341  -5.950  -3.384  0.00  0.00    +0.237 C 
ATOM     22  O   UNL     1      -1.153  -6.372  -2.263  0.00  0.00    -0.274 OA
ATOM     23  N   UNL     1      -1.463  -6.808  -4.416  0.00  0.00    -0.284 N 
ATOM     24  H   UNL     1      -1.680  -6.475  -5.301  0.00  0.00    +0.155 HD
BRANCH  23  25
ATOM     25  C   UNL     1      -1.277  -8.182  -4.211  0.00  0.00    +0.034 A 
ATOM     26  C   UNL     1      -0.685  -8.958  -5.198  0.00  0.00    +0.027 A 
ATOM     27  C   UNL     1      -0.502 -10.311  -4.995  0.00  0.00    +0.047 A 
ATOM     28  C   UNL     1      -0.909 -10.896  -3.805  0.00  0.00    +0.117 A 
ATOM     29  C   UNL     1      -1.501 -10.121  -2.818  0.00  0.00    +0.047 A 
ATOM     30  C   UNL     1      -1.680  -8.766  -3.017  0.00  0.00    +0.027 A 
BRANCH  28  31
ATOM     31  O   UNL     1      -0.729 -12.228  -3.605  0.00  0.00    -0.507 OA
ATOM     32  H   UNL     1       0.118 -12.454  -3.197  0.00  0.00    +0.292 HD
ENDBRANCH  28  31
ENDBRANCH  23  25
ENDBRANCH  20  21
ENDBRANCH  10  20
TORSDOF 4
