REMARK  Name = ZINC63871353
REMARK  6 active torsions:
REMARK  status: ('A' for Active; 'I' for Inactive)
REMARK    1  A    between atoms: C_1  and  C_2
REMARK    2  A    between atoms: C_4  and  C_10
REMARK    3  A    between atoms: C_5  and  C_9
REMARK    4  A    between atoms: N_6  and  C_8
REMARK    5  A    between atoms: N_12  and  C_13
REMARK    6  A    between atoms: C_13  and  C_14
REMARK                            x       y       z     vdW  Elec       q    Type
REMARK                         _______ _______ _______ _____ _____    ______ ____
ROOT
ATOM      1  C   UNL     1      -2.438  -0.353  -0.888  0.00  0.00    +0.243 C 
ATOM      2  O   UNL     1      -3.532  -0.858  -0.715  0.00  0.00    -0.270 OA
ATOM      3  N   UNL     1      -2.208   0.399  -1.983  0.00  0.00    -0.309 N 
ATOM      4  H   UNL     1      -1.336   0.801  -2.121  0.00  0.00    +0.149 HD
ENDROOT
BRANCH   1   7
ATOM      5  C   UNL     1      -0.019   1.526   0.010  0.00  0.00    +0.031 C 
ATOM      6  C   UNL     1       0.002  -0.004   0.002  0.00  0.00    +0.106 C 
ATOM      7  C   UNL     1      -1.408  -0.554   0.060  0.00  0.00    +0.050 C 
ATOM      8  C   UNL     1      -1.484  -1.275   1.197  0.00  0.00    +0.028 C 
ATOM      9  N   UNL     1      -0.309  -1.259   1.877  0.00  0.00    -0.273 N 
ATOM     10  N   UNL     1       0.642  -0.520   1.229  0.00  0.00    -0.233 NA
ATOM     11  C   UNL     1      -0.085  -1.951   3.148  0.00  0.00    +0.149 C 
ATOM     12  C   UNL     1      -2.720  -2.005   1.656  0.00  0.00    +0.062 C 
ATOM     13  H   UNL     1       1.450  -1.081   1.007  0.00  0.00    +0.145 HD
ENDBRANCH   1   7
BRANCH   3  14
ATOM     14  C   UNL     1      -3.275   0.608  -2.965  0.00  0.00    +0.133 C 
BRANCH  14  15
ATOM     15  C   UNL     1      -2.756   1.490  -4.102  0.00  0.00    +0.120 C 
ATOM     16  C   UNL     1      -3.780   1.567  -5.212  0.00  0.00    +0.009 C 
ATOM     17  C   UNL     1      -3.182   1.053  -6.310  0.00  0.00    -0.003 A 
ATOM     18  C   UNL     1      -3.642   0.851  -7.689  0.00  0.00    +0.029 A 
ATOM     19  C   UNL     1      -2.795   0.299  -8.589  0.00  0.00    +0.042 A 
ATOM     20  C   UNL     1      -1.492  -0.084  -8.237  0.00  0.00    +0.022 A 
ATOM     21  C   UNL     1      -0.999   0.071  -6.990  0.00  0.00    +0.027 A 
ATOM     22  C   UNL     1      -1.803   0.641  -5.965  0.00  0.00    +0.043 A 
ATOM     23  N   UNL     1      -1.557   0.891  -4.700  0.00  0.00    -0.376 N 
ATOM     24 CL   UNL     1      -3.336   0.057 -10.221  0.00  0.00    -0.084 Cl
ATOM     25  H   UNL     1      -0.724   0.711  -4.238  0.00  0.00    +0.160 HD
ENDBRANCH  14  15
ENDBRANCH   3  14
TORSDOF 3
