REMARK  Name = ZINC43262459
REMARK  7 active torsions:
REMARK  status: ('A' for Active; 'I' for Inactive)
REMARK    1  A    between atoms: C_1  and  C_2
REMARK    2  A    between atoms: C_2  and  C_4
REMARK    3  A    between atoms: C_2  and  N_23
REMARK    4  A    between atoms: C_4  and  C_6
REMARK    5  A    between atoms: C_4  and  N_12
REMARK    6  A    between atoms: C_17  and  C_19
REMARK    7  A    between atoms: N_21  and  C_22
REMARK                            x       y       z     vdW  Elec       q    Type
REMARK                         _______ _______ _______ _____ _____    ______ ____
ROOT
ATOM      1  C   UNL     1       0.412  -0.777   2.054  0.00  0.00    +0.080 C 
ENDROOT
BRANCH   1   2
ATOM      2  C   UNL     1      -0.216  -0.222   3.306  0.00  0.00    +0.006 A 
ATOM      3  C   UNL     1      -0.576  -0.870   4.440  0.00  0.00    +0.014 A 
ATOM      4  C   UNL     1      -1.143  -0.148   5.474  0.00  0.00    +0.023 A 
ATOM      5  C   UNL     1      -1.323   1.188   5.322  0.00  0.00    +0.055 A 
ATOM      6  S   UNL     1      -0.673   1.463   3.682  0.00  0.00    -0.085 S 
ATOM      7 BR   UNL     1      -2.062   2.436   6.535  0.00  0.00    -0.043 Br
ENDBRANCH   1   2
BRANCH   1   8
ATOM      8  N   UNL     1       1.693  -0.101   1.807  0.00  0.00    -0.286 NA
ATOM      9  C   UNL     1       1.637   1.303   2.235  0.00  0.00    +0.086 C 
ATOM     10  C   UNL     1       2.932   2.012   1.831  0.00  0.00    +0.015 C 
ATOM     11  C   UNL     1       4.121   1.305   2.488  0.00  0.00    +0.003 C 
ATOM     12  C   UNL     1       4.128  -0.166   2.064  0.00  0.00    +0.028 C 
ATOM     13  C   UNL     1       2.799  -0.812   2.461  0.00  0.00    +0.143 C 
BRANCH  13  14
ATOM     14  C   UNL     1       2.793  -2.256   2.028  0.00  0.00    +0.230 C 
ATOM     15  O   UNL     1       2.366  -2.559   0.934  0.00  0.00    -0.274 OA
ATOM     16  N   UNL     1       3.262  -3.210   2.856  0.00  0.00    -0.317 N 
ATOM     17  C   UNL     1       3.257  -4.613   2.435  0.00  0.00    +0.128 C 
ATOM     18  H   UNL     1       3.604  -2.967   3.731  0.00  0.00    +0.148 HD
ENDBRANCH  13  14
ENDBRANCH   1   8
BRANCH   1  20
ATOM     19  C   UNL     1      -0.663   0.957   0.612  0.00  0.00    -0.012 C 
ATOM     20  C   UNL     1      -0.524  -0.546   0.867  0.00  0.00    -0.056 C 
BRANCH  20  21
ATOM     21  N   UNL     1      -1.845  -1.116   1.166  0.00  0.00    +0.381 N 
ATOM     22  H   UNL     1      -1.753  -2.107   1.334  0.00  0.00    -0.090 HD
ATOM     23  H   UNL     1      -2.225  -0.669   1.987  0.00  0.00    -0.090 HD
ATOM     24  H   UNL     1      -2.462  -0.963   0.383  0.00  0.00    -0.090 HD
ENDBRANCH  20  21
ENDBRANCH   1  20
TORSDOF 5
