REMARK  Name = ZINC36359379
REMARK  3 active torsions:
REMARK  status: ('A' for Active; 'I' for Inactive)
REMARK    1  A    between atoms: C_1  and  N_2
REMARK    2  A    between atoms: C_19  and  C_28
REMARK    3  A    between atoms: C_20  and  C_21
REMARK                            x       y       z     vdW  Elec       q    Type
REMARK                         _______ _______ _______ _____ _____    ______ ____
ROOT
ATOM      1  C   UNL     1      -0.018   1.461   0.010  0.00  0.00    +0.138 C 
ATOM      2  N   UNL     1       0.002  -0.004   0.002  0.00  0.00    -0.273 N 
ATOM      3  C   UNL     1      -1.135  -0.794   0.003  0.00  0.00    +0.041 A 
ATOM      4  C   UNL     1      -2.478  -0.412   0.007  0.00  0.00    +0.026 A 
ATOM      5  C   UNL     1      -3.425  -1.424   0.007  0.00  0.00    +0.040 A 
ATOM      6  C   UNL     1      -3.069  -2.759   0.003  0.00  0.00    +0.124 A 
ATOM      7  C   UNL     1      -1.733  -3.152  -0.001  0.00  0.00    +0.045 A 
ATOM      8  C   UNL     1      -0.786  -2.150  -0.002  0.00  0.00    -0.003 A 
ATOM      9  C   UNL     1       0.709  -2.197  -0.011  0.00  0.00    +0.115 C 
ATOM     10  C   UNL     1       1.131  -0.743  -0.013  0.00  0.00    +0.236 C 
ATOM     11  O   UNL     1       2.268  -0.323  -0.025  0.00  0.00    -0.274 OA
ATOM     12  C   UNL     1       1.227  -2.888  -1.272  0.00  0.00    +0.122 C 
ATOM     13  C   UNL     1       1.185  -4.381  -1.119  0.00  0.00    +0.219 C 
ATOM     14  O   UNL     1       0.930  -5.054  -2.096  0.00  0.00    -0.275 OA
ATOM     15  N   UNL     1       1.416  -5.008   0.047  0.00  0.00    -0.284 N 
ATOM     16  C   UNL     1       1.591  -4.229   1.227  0.00  0.00    +0.054 A 
ATOM     17  C   UNL     1       1.248  -2.902   1.192  0.00  0.00    +0.032 A 
ATOM     18  S   UNL     1       1.561  -2.307   2.715  0.00  0.00    -0.083 S 
ATOM     19  C   UNL     1       2.180  -3.794   3.480  0.00  0.00    +0.110 A 
ATOM     20  C   UNL     1       2.091  -4.719   2.432  0.00  0.00    +0.025 A 
ATOM     21  F   UNL     1      -4.036  -3.703   0.004  0.00  0.00    -0.205 F 
ATOM     22  H   UNL     1       1.463  -5.976   0.085  0.00  0.00    +0.155 HD
ENDROOT
BRANCH  20  23
ATOM     23  C   UNL     1       2.503  -6.131   2.594  0.00  0.00    -0.015 A 
ATOM     24  C   UNL     1       1.558  -7.153   2.495  0.00  0.00    +0.010 A 
ATOM     25  C   UNL     1       1.948  -8.467   2.647  0.00  0.00    +0.020 A 
ATOM     26  C   UNL     1       3.275  -8.774   2.897  0.00  0.00    +0.041 A 
ATOM     27  C   UNL     1       4.217  -7.764   2.996  0.00  0.00    +0.020 A 
ATOM     28  C   UNL     1       3.840  -6.447   2.840  0.00  0.00    +0.010 A 
ATOM     29 CL   UNL     1       3.758 -10.430   3.086  0.00  0.00    -0.084 Cl
ENDBRANCH  20  23
BRANCH  19  30
ATOM     30  C   UNL     1       2.640  -3.990   4.802  0.00  0.00    +0.394 C 
ATOM     31  O   UNL     1       2.646  -3.054   5.593  0.00  0.00    -0.240 OA
ATOM     32  O   UNL     1       3.034  -5.095   5.156  0.00  0.00    -0.240 OA
ENDBRANCH  19  30
TORSDOF 2
