REMARK  Name = ZINC39695795
REMARK  10 active torsions:
REMARK  status: ('A' for Active; 'I' for Inactive)
REMARK    1  A    between atoms: C_1  and  C_2
REMARK    2  A    between atoms: C_9  and  C_11
REMARK    3  A    between atoms: C_11  and  C_13
REMARK    4  A    between atoms: C_11  and  N_14
REMARK    5  A    between atoms: C_15  and  C_17
REMARK    6  A    between atoms: C_28  and  C_30
REMARK    7  A    between atoms: C_34  and  O_37
REMARK    8  A    between atoms: C_35  and  C_36
REMARK    9  A    between atoms: O_37  and  C_38
REMARK   10  A    between atoms: C_38  and  C_40
REMARK                            x       y       z     vdW  Elec       q    Type
REMARK                         _______ _______ _______ _____ _____    ______ ____
ROOT
ATOM      1  C   UNL     1      -1.651  -9.345   0.926  0.00  0.00    +0.100 C 
ATOM      2  C   UNL     1      -2.886  -8.668   0.292  0.00  0.00    +0.121 C 
ATOM      3  N   UNL     1      -3.880  -9.759   0.151  0.00  0.00    -0.296 N 
ATOM      4  C   UNL     1      -3.726 -10.560   1.389  0.00  0.00    +0.115 C 
ATOM      5  C   UNL     1      -2.206 -10.586   1.646  0.00  0.00    -0.004 C 
ATOM      6  C   UNL     1      -1.594 -11.855   1.060  0.00  0.00    -0.010 C 
ATOM      7  C   UNL     1      -2.118 -13.071   1.830  0.00  0.00    -0.082 C 
ATOM      8  N   UNL     1      -1.765 -12.943   3.249  0.00  0.00    +0.379 N 
ATOM      9  C   UNL     1      -2.433 -11.771   3.827  0.00  0.00    -0.082 C 
ATOM     10  C   UNL     1      -1.923 -10.500   3.142  0.00  0.00    -0.010 C 
ATOM     11  C   UNL     1      -4.731  -9.974  -0.871  0.00  0.00    +0.247 C 
ATOM     12  O   UNL     1      -5.557 -10.863  -0.798  0.00  0.00    -0.270 OA
ATOM     13  H   UNL     1      -2.058 -13.773   3.743  0.00  0.00    -0.086 HD
ATOM     14  H   UNL     1      -0.766 -12.837   3.338  0.00  0.00    -0.086 HD
ENDROOT
BRANCH  11  15
ATOM     15  C   UNL     1      -4.661  -9.129  -2.082  0.00  0.00    +0.043 A 
ATOM     16  C   UNL     1      -4.349  -7.772  -1.972  0.00  0.00    +0.013 A 
ATOM     17  C   UNL     1      -4.284  -6.986  -3.104  0.00  0.00    +0.004 A 
ATOM     18  C   UNL     1      -4.528  -7.537  -4.349  0.00  0.00    +0.047 A 
ATOM     19  C   UNL     1      -4.839  -8.885  -4.468  0.00  0.00    +0.135 A 
ATOM     20  C   UNL     1      -4.902  -9.684  -3.339  0.00  0.00    +0.004 A 
ATOM     21  C   UNL     1      -5.234 -11.148  -3.467  0.00  0.00    +0.048 C 
BRANCH  19  22
ATOM     22  O   UNL     1      -5.078  -9.421  -5.694  0.00  0.00    -0.426 OA
BRANCH  22  23
ATOM     23  C   UNL     1      -6.350  -9.478  -6.120  0.00  0.00    +0.309 C 
ATOM     24  O   UNL     1      -7.230  -8.976  -5.463  0.00  0.00    -0.251 OA
ATOM     25  C   UNL     1      -6.679 -10.167  -7.419  0.00  0.00    +0.136 C 
ENDBRANCH  22  23
ENDBRANCH  19  22
ENDBRANCH  11  15
BRANCH   1  27
ATOM     26  N   UNL     1       0.327  -8.527   2.167  0.00  0.00    -0.305 N 
ATOM     27  C   UNL     1      -0.992  -8.416   1.913  0.00  0.00    +0.219 C 
ATOM     28  O   UNL     1      -1.650  -7.569   2.480  0.00  0.00    -0.275 OA
ATOM     29  H   UNL     1       0.852  -9.205   1.714  0.00  0.00    +0.149 HD
BRANCH  26  30
ATOM     30  C   UNL     1       0.966  -7.625   3.127  0.00  0.00    +0.136 C 
ATOM     31  C   UNL     1       0.797  -8.181   4.542  0.00  0.00    +0.036 C 
BRANCH  30  40
ATOM     32  C   UNL     1       8.133  -5.867   2.158  0.00  0.00    +0.044 C 
ATOM     33  C   UNL     1       6.820  -6.606   2.125  0.00  0.00    -0.048 A 
ATOM     34  C   UNL     1       6.745  -7.852   1.518  0.00  0.00    +0.005 A 
ATOM     35  C   UNL     1       5.564  -8.537   1.478  0.00  0.00    +0.030 A 
ATOM     36  C   UNL     1       4.417  -7.984   2.054  0.00  0.00    +0.089 A 
ATOM     37  C   UNL     1       4.493  -6.723   2.669  0.00  0.00    +0.067 A 
ATOM     38  C   UNL     1       5.703  -6.042   2.704  0.00  0.00    +0.031 A 
ATOM     39  N   UNL     1       3.222  -6.449   3.135  0.00  0.00    -0.340 N 
ATOM     40  C   UNL     1       2.434  -7.508   2.805  0.00  0.00    +0.128 A 
ATOM     41  N   UNL     1       3.132  -8.406   2.173  0.00  0.00    -0.231 NA
ATOM     42  H   UNL     1       2.943  -5.650   3.609  0.00  0.00    +0.167 HD
ENDBRANCH  30  40
ENDBRANCH  26  30
ENDBRANCH   1  27
TORSDOF 6
