REMARK  Name = ZINC15015722
REMARK  12 active torsions:
REMARK  status: ('A' for Active; 'I' for Inactive)
REMARK    1  A    between atoms: C_1  and  C_2
REMARK    2  A    between atoms: C_2  and  O_3
REMARK    3  A    between atoms: O_3  and  C_4
REMARK    4  A    between atoms: C_7  and  C_13
REMARK    5  A    between atoms: C_9  and  O_10
REMARK    6  A    between atoms: O_10  and  C_11
REMARK    7  A    between atoms: C_11  and  C_12
REMARK    8  A    between atoms: C_13  and  C_15
REMARK    9  A    between atoms: C_13  and  N_26
REMARK   10  A    between atoms: C_24  and  O_25
REMARK   11  A    between atoms: N_26  and  C_27
REMARK   12  A    between atoms: C_31  and  C_32
REMARK                            x       y       z     vdW  Elec       q    Type
REMARK                         _______ _______ _______ _____ _____    ______ ____
ROOT
ATOM      1  C   UNL     1      -0.534   2.826   5.822  0.00  0.00    +0.136 C 
ENDROOT
BRANCH   1   2
ATOM      2  C   UNL     1      -1.657   1.885   6.175  0.00  0.00    +0.021 A 
ATOM      3  C   UNL     1      -2.215   1.080   5.185  0.00  0.00    +0.010 A 
ATOM      4  C   UNL     1      -3.226   0.215   5.473  0.00  0.00    +0.010 A 
ATOM      5  C   UNL     1      -3.726   0.139   6.783  0.00  0.00    +0.004 A 
ATOM      6  C   UNL     1      -4.775  -0.738   7.117  0.00  0.00    +0.011 A 
ATOM      7  C   UNL     1      -5.210  -0.759   8.412  0.00  0.00    +0.020 A 
ATOM      8  C   UNL     1      -4.616   0.074   9.358  0.00  0.00    +0.111 A 
ATOM      9  N   UNL     1      -3.639   0.889   9.043  0.00  0.00    -0.251 NA
ATOM     10  C   UNL     1      -3.168   0.959   7.794  0.00  0.00    +0.113 A 
ATOM     11  C   UNL     1      -2.116   1.838   7.461  0.00  0.00    +0.148 A 
BRANCH  11  12
ATOM     12  O   UNL     1      -1.564   2.635   8.412  0.00  0.00    -0.504 OA
ATOM     13  H   UNL     1      -1.993   3.497   8.501  0.00  0.00    +0.292 HD
ENDBRANCH  11  12
ENDBRANCH   1   2
BRANCH   1  17
ATOM     14  C   UNL     1      -2.146   6.672   4.877  0.00  0.00    +0.162 A 
ATOM     15  C   UNL     1      -2.280   5.623   3.982  0.00  0.00    +0.050 A 
ATOM     16  C   UNL     1      -1.758   4.381   4.290  0.00  0.00    +0.009 A 
ATOM     17  C   UNL     1      -1.101   4.182   5.491  0.00  0.00    -0.019 A 
ATOM     18  C   UNL     1      -0.969   5.224   6.390  0.00  0.00    +0.055 A 
ATOM     19  C   UNL     1      -1.485   6.473   6.085  0.00  0.00    +0.162 A 
BRANCH  14  20
ATOM     20  O   UNL     1      -2.660   7.895   4.575  0.00  0.00    -0.489 OA
BRANCH  20  22
ATOM     21  C   UNL     1      -3.833   9.461   3.156  0.00  0.00    +0.048 C 
ATOM     22  C   UNL     1      -3.326   8.026   3.317  0.00  0.00    +0.226 C 
ENDBRANCH  20  22
ENDBRANCH  14  20
BRANCH  19  23
ATOM     23  O   UNL     1      -1.351   7.500   6.966  0.00  0.00    -0.489 OA
BRANCH  23  24
ATOM     24  C   UNL     1      -0.661   7.221   8.186  0.00  0.00    +0.226 C 
ATOM     25  C   UNL     1      -0.610   8.488   9.043  0.00  0.00    +0.048 C 
ENDBRANCH  23  24
ENDBRANCH  19  23
ENDBRANCH   1  17
BRANCH   1  26
ATOM     26  N   UNL     1       0.194   2.304   4.663  0.00  0.00    -0.320 N 
ATOM     27  H   UNL     1       0.007   2.651   3.776  0.00  0.00    +0.148 HD
BRANCH  26  28
ATOM     28  C   UNL     1       1.152   1.312   4.833  0.00  0.00    +0.097 A 
ATOM     29  C   UNL     1       1.491   0.893   6.116  0.00  0.00    +0.041 A 
ATOM     30  C   UNL     1       2.446  -0.095   6.271  0.00  0.00    +0.005 A 
ATOM     31  C   UNL     1       3.030  -0.637   5.133  0.00  0.00    +0.021 A 
ATOM     32  C   UNL     1       2.650  -0.170   3.890  0.00  0.00    +0.014 A 
ATOM     33  C   UNL     1       3.284  -0.749   2.652  0.00  0.00    +0.063 C 
ATOM     34  N   UNL     1       1.715   0.799   3.701  0.00  0.00    -0.347 N 
ATOM     35  H   UNL     1       1.449   1.125   2.764  0.00  0.00    +0.167 HD
ENDBRANCH  26  28
ENDBRANCH   1  26
TORSDOF 9
