REMARK  Name = ZINC63731290
REMARK  8 active torsions:
REMARK  status: ('A' for Active; 'I' for Inactive)
REMARK    1  A    between atoms: C_6  and  N_7
REMARK    2  A    between atoms: C_8  and  C_29
REMARK    3  A    between atoms: C_12  and  S_13
REMARK    4  A    between atoms: S_13  and  C_14
REMARK    5  A    between atoms: C_14  and  C_15
REMARK    6  A    between atoms: C_15  and  C_17
REMARK    7  A    between atoms: C_20  and  C_22
REMARK    8  A    between atoms: C_29  and  N_30
REMARK                            x       y       z     vdW  Elec       q    Type
REMARK                         _______ _______ _______ _____ _____    ______ ____
ROOT
ATOM      1  N   UNL     1      -1.559  -0.943  -0.160  0.00  0.00    -0.260 N 
ATOM      2  C   UNL     1      -1.505  -2.414  -0.108  0.00  0.00    +0.165 C 
ATOM      3  N   UNL     1      -2.912  -2.814   0.069  0.00  0.00    -0.248 N 
ATOM      4  N   UNL     1      -3.653  -1.626   0.107  0.00  0.00    -0.162 NA
ATOM      5  C   UNL     1      -2.893  -0.591  -0.016  0.00  0.00    +0.180 C 
ATOM      6  H   UNL     1      -3.256  -3.717   0.144  0.00  0.00    +0.170 HD
ENDROOT
BRANCH   1  12
ATOM      7  C   UNL     1      -0.695   1.293  -0.448  0.00  0.00    +0.026 A 
ATOM      8  C   UNL     1       0.376   2.151  -0.603  0.00  0.00    +0.040 A 
ATOM      9  C   UNL     1       1.667   1.652  -0.630  0.00  0.00    +0.124 A 
ATOM     10  C   UNL     1       1.887   0.291  -0.501  0.00  0.00    +0.040 A 
ATOM     11  C   UNL     1       0.820  -0.571  -0.345  0.00  0.00    +0.026 A 
ATOM     12  C   UNL     1      -0.476  -0.072  -0.318  0.00  0.00    +0.038 A 
ATOM     13  F   UNL     1       2.713   2.493  -0.782  0.00  0.00    -0.205 F 
ENDBRANCH   1  12
BRANCH   5  14
ATOM     14  S   UNL     1      -3.479   1.071  -0.005  0.00  0.00    -0.081 S 
BRANCH  14  15
ATOM     15  C   UNL     1      -5.272   0.902   0.211  0.00  0.00    +0.156 C 
BRANCH  15  16
ATOM     16  C   UNL     1      -5.906   2.269   0.237  0.00  0.00    +0.171 C 
ATOM     17  O   UNL     1      -5.215   3.261   0.121  0.00  0.00    -0.291 OA
BRANCH  16  18
ATOM     18  C   UNL     1      -7.305   2.397   0.397  0.00  0.00    +0.020 C 
ATOM     19  C   UNL     1      -8.033   3.543   0.436  0.00  0.00    +0.118 C 
ATOM     20  N   UNL     1      -9.336   3.305   0.600  0.00  0.00    -0.254 NA
ATOM     21  C   UNL     1      -9.632   2.041   0.687  0.00  0.00    +0.107 C 
ATOM     22  C   UNL     1      -8.325   1.284   0.557  0.00  0.00    +0.101 C 
BRANCH  21  23
ATOM     23  C   UNL     1     -10.979   1.458   0.870  0.00  0.00    +0.261 C 
ATOM     24  O   UNL     1     -11.115   0.253   0.936  0.00  0.00    -0.269 OA
ATOM     25  N   UNL     1     -12.055   2.264   0.963  0.00  0.00    -0.297 N 
ATOM     26  C   UNL     1     -12.034   3.732   0.894  0.00  0.00    +0.108 C 
ATOM     27  C   UNL     1     -13.488   4.220   1.074  0.00  0.00    +0.020 C 
ATOM     28  C   UNL     1     -14.166   3.028   1.800  0.00  0.00    +0.020 C 
ATOM     29  C   UNL     1     -13.448   1.819   1.146  0.00  0.00    +0.108 C 
ENDBRANCH  21  23
ENDBRANCH  16  18
ENDBRANCH  15  16
ENDBRANCH  14  15
ENDBRANCH   5  14
BRANCH   2  30
ATOM     30  C   UNL     1      -0.659  -2.879   1.079  0.00  0.00    -0.034 C 
BRANCH  30  31
ATOM     31  N   UNL     1      -1.333  -2.517   2.333  0.00  0.00    +0.382 N 
ATOM     32  C   UNL     1      -1.275  -1.062   2.515  0.00  0.00    -0.079 C 
ATOM     33  C   UNL     1      -2.046  -0.672   3.778  0.00  0.00    -0.019 C 
ATOM     34  C   UNL     1      -1.415  -1.365   4.989  0.00  0.00    -0.004 C 
ATOM     35  C   UNL     1      -1.413  -2.878   4.755  0.00  0.00    -0.019 C 
ATOM     36  C   UNL     1      -0.666  -3.187   3.456  0.00  0.00    -0.079 C 
ATOM     37  H   UNL     1      -2.297  -2.811   2.292  0.00  0.00    -0.082 HD
ENDBRANCH  30  31
ENDBRANCH   2  30
TORSDOF 8
