REMARK  Name = ZINC66531809
REMARK  5 active torsions:
REMARK  status: ('A' for Active; 'I' for Inactive)
REMARK    1  A    between atoms: C_1  and  C_2
REMARK    2  A    between atoms: C_7  and  C_24
REMARK    3  A    between atoms: N_9  and  C_10
REMARK    4  A    between atoms: C_10  and  C_11
REMARK    5  A    between atoms: N_13  and  C_14
REMARK                            x       y       z     vdW  Elec       q    Type
REMARK                         _______ _______ _______ _____ _____    ______ ____
ROOT
ATOM      1  C   UNL     1       2.868  -0.397   2.348  0.00  0.00    +0.197 C 
ATOM      2  O   UNL     1       2.374  -1.179   3.133  0.00  0.00    -0.278 OA
ATOM      3  N   UNL     1       4.101   0.097   2.575  0.00  0.00    -0.314 N 
ATOM      4  H   UNL     1       4.496   0.722   1.947  0.00  0.00    +0.149 HD
ENDROOT
BRANCH   3   5
ATOM      5  C   UNL     1       4.846  -0.312   3.768  0.00  0.00    +0.073 C 
ATOM      6  C   UNL     1       4.436   0.568   4.951  0.00  0.00    +0.027 C 
ATOM      7  C   UNL     1       5.210   0.139   6.199  0.00  0.00    +0.067 C 
ATOM      8  C   UNL     1       6.711   0.289   5.942  0.00  0.00    +0.170 C 
ATOM      9  C   UNL     1       7.124  -0.586   4.757  0.00  0.00    +0.067 C 
ATOM     10  C   UNL     1       6.346  -0.156   3.511  0.00  0.00    +0.027 C 
ATOM     11  O   UNL     1       7.010   1.663   5.648  0.00  0.00    -0.346 OA
ATOM     12  C   UNL     1       7.424   2.230   6.915  0.00  0.00    +0.191 C 
ATOM     13  C   UNL     1       8.190   1.045   7.555  0.00  0.00    +0.191 C 
ATOM     14  O   UNL     1       7.442  -0.105   7.110  0.00  0.00    -0.346 OA
ENDBRANCH   3   5
BRANCH   1  15
ATOM     15  C   UNL     1       2.102   0.024   1.121  0.00  0.00    +0.019 C 
BRANCH  15  22
ATOM     16  C   UNL     1       1.702  -2.476  -0.095  0.00  0.00    -0.013 C 
ATOM     17  C   UNL     1       0.894  -2.047   1.131  0.00  0.00    -0.071 C 
ATOM     18  C   UNL     1      -0.495  -2.685   1.075  0.00  0.00    -0.016 C 
ATOM     19  C   UNL     1      -1.299  -2.254   2.305  0.00  0.00    -0.003 C 
ATOM     20  C   UNL     1      -1.364  -0.725   2.349  0.00  0.00    -0.016 C 
ATOM     21  C   UNL     1       0.058  -0.159   2.359  0.00  0.00    -0.071 C 
ATOM     22  N   UNL     1       0.765  -0.585   1.145  0.00  0.00    +0.389 N 
ATOM     23  C   UNL     1      -0.002   1.369   2.403  0.00  0.00    -0.013 C 
ATOM     24  H   UNL     1       0.247  -0.287   0.332  0.00  0.00    -0.080 HD
ENDBRANCH  15  22
ENDBRANCH   1  15
TORSDOF 3
