REMARK  Name = ZINC64870656
REMARK  9 active torsions:
REMARK  status: ('A' for Active; 'I' for Inactive)
REMARK    1  A    between atoms: C_1  and  C_2
REMARK    2  A    between atoms: C_2  and  C_3
REMARK    3  A    between atoms: C_3  and  C_4
REMARK    4  A    between atoms: C_4  and  C_5
REMARK    5  A    between atoms: C_5  and  N_6
REMARK    6  A    between atoms: C_12  and  C_19
REMARK    7  A    between atoms: C_22  and  C_25
REMARK    8  A    between atoms: C_28  and  S_31
REMARK    9  A    between atoms: S_31  and  C_32
REMARK                            x       y       z     vdW  Elec       q    Type
REMARK                         _______ _______ _______ _____ _____    ______ ____
ROOT
ATOM      1  N   UNL     1       1.475  -3.986  -2.532  0.00  0.00    -0.261 N 
ATOM      2  C   UNL     1       2.506  -4.637  -1.952  0.00  0.00    +0.264 A 
ATOM      3  O   UNL     1       3.414  -4.024  -1.425  0.00  0.00    -0.267 OA
ATOM      4  C   UNL     1       2.502  -6.111  -1.974  0.00  0.00    +0.063 A 
ATOM      5  C   UNL     1       3.528  -6.855  -1.397  0.00  0.00    +0.016 A 
ATOM      6  C   UNL     1       3.477  -8.233  -1.443  0.00  0.00    +0.009 A 
ATOM      7  C   UNL     1       2.414  -8.875  -2.059  0.00  0.00    +0.006 A 
ATOM      8  C   UNL     1       1.390  -8.149  -2.634  0.00  0.00    +0.034 A 
ATOM      9  C   UNL     1       1.424  -6.764  -2.597  0.00  0.00    +0.056 A 
ATOM     10  N   UNL     1       0.416  -5.997  -3.162  0.00  0.00    -0.307 N 
ATOM     11  H   UNL     1      -0.334  -6.433  -3.596  0.00  0.00    +0.170 HD
ATOM     12  C   UNL     1       0.466  -4.654  -3.111  0.00  0.00    +0.330 A 
ATOM     13  O   UNL     1      -0.440  -4.019  -3.615  0.00  0.00    -0.246 OA
ENDROOT
BRANCH   7  14
ATOM     14  C   UNL     1       2.376 -10.381  -2.100  0.00  0.00    +0.274 C 
ATOM     15  N   UNL     1       3.739 -10.925  -2.092  0.00  0.00    -0.339 N 
ATOM     16  C   UNL     1       3.887 -11.662  -1.034  0.00  0.00    +0.134 C 
ATOM     17  N   UNL     1       2.739 -11.692  -0.280  0.00  0.00    -0.247 N 
ATOM     18  O   UNL     1       1.749 -10.896  -0.915  0.00  0.00    -0.243 OA
ATOM     19  H   UNL     1       2.623 -12.179   0.551  0.00  0.00    +0.196 HD
ATOM     20  H   UNL     1       4.417 -10.760  -2.766  0.00  0.00    +0.164 HD
BRANCH  16  21
ATOM     21  C   UNL     1       5.132 -12.378  -0.684  0.00  0.00    +0.017 A 
ATOM     22  C   UNL     1       6.370 -11.858  -1.069  0.00  0.00    +0.012 A 
ATOM     23  C   UNL     1       7.528 -12.526  -0.742  0.00  0.00    +0.015 A 
ATOM     24  C   UNL     1       7.466 -13.720  -0.029  0.00  0.00    +0.008 A 
ATOM     25  C   UNL     1       6.234 -14.241   0.355  0.00  0.00    +0.015 A 
ATOM     26  C   UNL     1       5.073 -13.573   0.036  0.00  0.00    +0.012 A 
BRANCH  24  27
ATOM     27  S   UNL     1       8.950 -14.574   0.388  0.00  0.00    -0.129 S 
ATOM     28  C   UNL     1       8.376 -16.037   1.293  0.00  0.00    +0.090 C 
ENDBRANCH  24  27
ENDBRANCH  16  21
ENDBRANCH   7  14
BRANCH   1  29
ATOM     29  C   UNL     1       1.455  -2.521  -2.524  0.00  0.00    +0.130 C 
BRANCH  29  30
ATOM     30  C   UNL     1       0.739  -2.027  -1.265  0.00  0.00    +0.022 C 
BRANCH  30  31
ATOM     31  C   UNL     1       0.718  -0.497  -1.257  0.00  0.00    +0.001 C 
BRANCH  31  33
ATOM     32  C   UNL     1      -0.019   1.526   0.010  0.00  0.00    +0.004 C 
ATOM     33  C   UNL     1       0.002  -0.004   0.002  0.00  0.00    -0.003 C 
ENDBRANCH  31  33
ENDBRANCH  30  31
ENDBRANCH  29  30
ENDBRANCH   1  29
TORSDOF 7
