REMARK  Name = ZINC15323891
REMARK  12 active torsions:
REMARK  status: ('A' for Active; 'I' for Inactive)
REMARK    1  A    between atoms: C_1  and  C_2
REMARK    2  A    between atoms: C_2  and  C_3
REMARK    3  A    between atoms: C_3  and  C_4
REMARK    4  A    between atoms: C_4  and  N_5
REMARK    5  A    between atoms: C_6  and  N_35
REMARK    6  A    between atoms: C_7  and  N_14
REMARK    7  A    between atoms: N_14  and  C_15
REMARK    8  A    between atoms: C_15  and  C_16
REMARK    9  A    between atoms: C_16  and  C_17
REMARK   10  A    between atoms: C_16  and  C_18
REMARK   11  A    between atoms: C_19  and  C_21
REMARK   12  A    between atoms: C_21  and  C_22
REMARK                            x       y       z     vdW  Elec       q    Type
REMARK                         _______ _______ _______ _____ _____    ______ ____
ROOT
ATOM      1  N   UNL     1       0.545  -2.866  -2.248  0.00  0.00    -0.264 N 
ATOM      2  C   UNL     1       0.521  -2.427  -3.523  0.00  0.00    +0.224 C 
ATOM      3  O   UNL     1       0.237  -1.271  -3.761  0.00  0.00    -0.275 OA
ENDROOT
BRANCH   1   6
ATOM      4  N   UNL     1       1.108  -0.840   0.765  0.00  0.00    -0.280 N 
ATOM      5  C   UNL     1       1.339  -1.725  -0.263  0.00  0.00    +0.127 A 
ATOM      6  C   UNL     1       0.341  -1.961  -1.185  0.00  0.00    +0.140 A 
ATOM      7  C   UNL     1      -0.883  -1.280  -1.051  0.00  0.00    +0.277 A 
ATOM      8  O   UNL     1      -1.781  -1.467  -1.855  0.00  0.00    -0.266 OA
ATOM      9  N   UNL     1      -1.057  -0.419  -0.029  0.00  0.00    -0.273 N 
ATOM     10  H   UNL     1      -1.926   0.065   0.068  0.00  0.00    +0.173 HD
ATOM     11  C   UNL     1      -0.074  -0.205   0.864  0.00  0.00    +0.331 A 
ATOM     12  O   UNL     1      -0.257   0.577   1.777  0.00  0.00    -0.246 OA
BRANCH   5  13
ATOM     13  N   UNL     1       2.549  -2.369  -0.367  0.00  0.00    -0.343 N 
ATOM     14  H   UNL     1       3.210  -2.276   0.337  0.00  0.00    +0.144 HD
ATOM     15  H   UNL     1       2.742  -2.916  -1.144  0.00  0.00    +0.144 HD
ENDBRANCH   5  13
BRANCH   4  16
ATOM     16  C   UNL     1       2.158  -0.583   1.754  0.00  0.00    +0.128 C 
BRANCH  16  17
ATOM     17  C   UNL     1       2.015  -1.567   2.917  0.00  0.00    +0.021 C 
BRANCH  17  19
ATOM     18  C   UNL     1       2.968  -2.282   5.112  0.00  0.00    +0.004 C 
ATOM     19  C   UNL     1       3.111  -1.298   3.950  0.00  0.00    -0.002 C 
ENDBRANCH  17  19
ENDBRANCH  16  17
ENDBRANCH   4  16
ENDBRANCH   1   6
BRANCH   1  20
ATOM     20  C   UNL     1       0.784  -4.284  -1.966  0.00  0.00    +0.117 C 
BRANCH  20  21
ATOM     21  C   UNL     1      -0.534  -5.054  -2.071  0.00  0.00    +0.001 C 
ATOM     22  C   UNL     1      -0.263  -6.553  -1.928  0.00  0.00    +0.009 C 
ATOM     23  C   UNL     1      -1.480  -4.599  -0.957  0.00  0.00    +0.009 C 
ENDBRANCH  20  21
ENDBRANCH   1  20
BRANCH   2  24
ATOM     24  C   UNL     1       0.847  -3.370  -4.652  0.00  0.00    +0.135 C 
BRANCH  24  25
ATOM     25  C   UNL     1       0.749  -2.636  -5.965  0.00  0.00    +0.007 A 
ATOM     26  C   UNL     1      -0.310  -2.595  -6.790  0.00  0.00    +0.200 A 
ATOM     27  O   UNL     1      -0.026  -1.838  -7.862  0.00  0.00    -0.463 OA
ATOM     28  C   UNL     1       1.233  -1.358  -7.792  0.00  0.00    +0.136 A 
ATOM     29  C   UNL     1       1.790  -1.831  -6.600  0.00  0.00    +0.031 A 
ATOM     30  C   UNL     1       3.159  -1.466  -6.258  0.00  0.00    -0.007 A 
ATOM     31  C   UNL     1       3.769  -1.907  -5.079  0.00  0.00    +0.009 A 
ATOM     32  C   UNL     1       5.052  -1.538  -4.803  0.00  0.00    +0.001 A 
ATOM     33  C   UNL     1       5.766  -0.726  -5.680  0.00  0.00    +0.001 A 
ATOM     34  C   UNL     1       5.202  -0.278  -6.836  0.00  0.00    +0.008 A 
ATOM     35  C   UNL     1       3.882  -0.639  -7.152  0.00  0.00    -0.017 A 
ATOM     36  C   UNL     1       3.267  -0.194  -8.338  0.00  0.00    +0.012 A 
ATOM     37  C   UNL     1       1.992  -0.544  -8.640  0.00  0.00    +0.047 A 
ENDBRANCH  24  25
ENDBRANCH   2  24
TORSDOF 9
