REMARK  Name = ZINC00958797
REMARK  6 active torsions:
REMARK  status: ('A' for Active; 'I' for Inactive)
REMARK    1  A    between atoms: C_1  and  C_2
REMARK    2  A    between atoms: C_2  and  C_3
REMARK    3  A    between atoms: C_6  and  N_9
REMARK    4  A    between atoms: C_10  and  C_12
REMARK    5  A    between atoms: C_12  and  N_13
REMARK    6  A    between atoms: C_24  and  C_28
REMARK                            x       y       z     vdW  Elec       q    Type
REMARK                         _______ _______ _______ _____ _____    ______ ____
ROOT
ATOM      1  N   UNL     1       3.668   6.178   0.312  0.00  0.00    -0.201 N 
ATOM      2  C   UNL     1       4.332   6.496  -0.815  0.00  0.00    +0.279 A 
ATOM      3  O   UNL     1       3.802   6.370  -1.906  0.00  0.00    -0.265 OA
ATOM      4  C   UNL     1       5.675   6.992  -0.709  0.00  0.00    +0.079 A 
ATOM      5  C   UNL     1       6.574   7.399  -1.786  0.00  0.00    -0.023 A 
ATOM      6  C   UNL     1       7.803   7.831  -1.429  0.00  0.00    -0.004 A 
ATOM      7  S   UNL     1       7.832   7.720   0.340  0.00  0.00    -0.071 S 
ATOM      8  C   UNL     1       6.189   7.094   0.593  0.00  0.00    +0.138 A 
ATOM      9  N   UNL     1       5.482   6.758   1.667  0.00  0.00    -0.123 NA
ATOM     10  N   UNL     1       4.275   6.317   1.564  0.00  0.00    -0.061 NA
ATOM     11  C   UNL     1       8.900   8.300  -2.336  0.00  0.00    +0.046 C 
ATOM     12  C   UNL     1       8.298   8.571  -3.722  0.00  0.00    -0.009 C 
ATOM     13  C   UNL     1       7.423   7.379  -4.120  0.00  0.00    +0.008 C 
ATOM     14  C   UNL     1       6.163   7.346  -3.255  0.00  0.00    +0.037 C 
ATOM     15  C   UNL     1       9.422   8.747  -4.744  0.00  0.00    +0.008 C 
ENDROOT
BRANCH   1  16
ATOM     16  C   UNL     1       2.295   5.673   0.225  0.00  0.00    +0.245 C 
BRANCH  16  18
ATOM     17  N   UNL     1       1.162   3.485   0.009  0.00  0.00    -0.284 N 
ATOM     18  C   UNL     1       2.318   4.171   0.104  0.00  0.00    +0.239 C 
ATOM     19  O   UNL     1       3.377   3.580   0.091  0.00  0.00    -0.273 OA
ATOM     20  H   UNL     1       0.319   3.961  -0.058  0.00  0.00    +0.155 HD
BRANCH  17  24
ATOM     21  C   UNL     1       1.206  -0.681   0.005  0.00  0.00    -0.048 A 
ATOM     22  C   UNL     1       2.145   0.019   0.741  0.00  0.00    +0.005 A 
ATOM     23  C   UNL     1       2.133   1.400   0.745  0.00  0.00    +0.023 A 
ATOM     24  C   UNL     1       1.177   2.086   0.008  0.00  0.00    +0.033 A 
ATOM     25  C   UNL     1       0.236   1.381  -0.731  0.00  0.00    +0.023 A 
ATOM     26  C   UNL     1       0.253  -0.000  -0.730  0.00  0.00    +0.005 A 
BRANCH  21  28
ATOM     27  C   UNL     1       0.343  -2.708   1.142  0.00  0.00    +0.009 C 
ATOM     28  C   UNL     1       1.223  -2.188   0.004  0.00  0.00    +0.032 C 
ENDBRANCH  21  28
ENDBRANCH  17  24
ENDBRANCH  16  18
ENDBRANCH   1  16
TORSDOF 4
