REMARK  Name = ZINC63330678
REMARK  6 active torsions:
REMARK  status: ('A' for Active; 'I' for Inactive)
REMARK    1  A    between atoms: C_3  and  O_9
REMARK    2  A    between atoms: O_9  and  C_10
REMARK    3  A    between atoms: C_10  and  C_11
REMARK    4  A    between atoms: C_11  and  C_12
REMARK    5  A    between atoms: C_12  and  N_13
REMARK    6  A    between atoms: C_19  and  C_22
REMARK                            x       y       z     vdW  Elec       q    Type
REMARK                         _______ _______ _______ _____ _____    ______ ____
ROOT
ATOM      1  N   UNL     1       6.106   6.241  -0.024  0.00  0.00    -0.299 N 
ATOM      2  C   UNL     1       6.265   7.580  -0.020  0.00  0.00    +0.302 C 
ATOM      3  O   UNL     1       5.294   8.307  -0.100  0.00  0.00    -0.253 OA
ATOM      4  N   UNL     1       7.500   8.111   0.072  0.00  0.00    -0.286 N 
ATOM      5  C   UNL     1       8.689   7.249   0.052  0.00  0.00    +0.110 C 
ATOM      6  C   UNL     1       9.546   7.561   1.284  0.00  0.00    +0.032 C 
ATOM      7  C   UNL     1       9.855   9.060   1.318  0.00  0.00    +0.078 C 
ATOM      8  C   UNL     1       8.549   9.850   1.425  0.00  0.00    +0.032 C 
ATOM      9  C   UNL     1       7.682   9.565   0.189  0.00  0.00    +0.110 C 
ATOM     10  H   UNL     1       6.883   5.661  -0.035  0.00  0.00    +0.150 HD
ENDROOT
BRANCH   7  11
ATOM     11  C   UNL     1      10.726   9.365   2.510  0.00  0.00    +0.214 C 
ATOM     12  O   UNL     1      11.065   8.472   3.257  0.00  0.00    -0.276 OA
ATOM     13  N   UNL     1      11.128  10.630   2.744  0.00  0.00    -0.329 N 
ATOM     14  H   UNL     1      10.857  11.344   2.146  0.00  0.00    +0.145 HD
ATOM     15  H   UNL     1      11.688  10.826   3.511  0.00  0.00    +0.145 HD
ENDBRANCH   7  11
BRANCH   1  16
ATOM     16  C   UNL     1       4.760   5.663  -0.012  0.00  0.00    +0.109 C 
BRANCH  16  17
ATOM     17  C   UNL     1       4.860   4.136  -0.020  0.00  0.00    +0.060 C 
BRANCH  17  18
ATOM     18  C   UNL     1       3.454   3.533  -0.008  0.00  0.00    +0.230 C 
BRANCH  18  19
ATOM     19  O   UNL     1       3.548   2.107  -0.015  0.00  0.00    -0.490 OA
BRANCH  19  22
ATOM     20  C   UNL     1      -0.017   1.379   0.019  0.00  0.00    +0.023 A 
ATOM     21  C   UNL     1       1.169   2.088   0.010  0.00  0.00    +0.048 A 
ATOM     22  C   UNL     1       2.380   1.412  -0.006  0.00  0.00    +0.139 A 
ATOM     23  C   UNL     1       2.397   0.023  -0.013  0.00  0.00    +0.084 A 
ATOM     24  C   UNL     1       1.208  -0.681  -0.004  0.00  0.00    +0.043 A 
ATOM     25  C   UNL     1       0.002  -0.004   0.012  0.00  0.00    +0.043 A 
ATOM     26 CL   UNL     1      -1.490  -0.891   0.024  0.00  0.00    -0.083 Cl
ATOM     27 CL   UNL     1       3.911  -0.827  -0.033  0.00  0.00    -0.080 Cl
ENDBRANCH  19  22
ENDBRANCH  18  19
ENDBRANCH  17  18
ENDBRANCH  16  17
ENDBRANCH   1  16
TORSDOF 6
