REMARK  Name = ZINC35992102
REMARK  10 active torsions:
REMARK  status: ('A' for Active; 'I' for Inactive)
REMARK    1  A    between atoms: C_1  and  C_2
REMARK    2  A    between atoms: C_2  and  O_3
REMARK    3  A    between atoms: O_3  and  C_4
REMARK    4  A    between atoms: C_4  and  C_6
REMARK    5  A    between atoms: C_7  and  C_22
REMARK    6  A    between atoms: N_8  and  C_21
REMARK    7  A    between atoms: C_12  and  C_14
REMARK    8  A    between atoms: C_22  and  N_23
REMARK    9  A    between atoms: C_27  and  C_30
REMARK   10  A    between atoms: C_31  and  C_33
REMARK                            x       y       z     vdW  Elec       q    Type
REMARK                         _______ _______ _______ _____ _____    ______ ____
ROOT
ATOM      1  C   UNL     1      -0.348  -2.093  -0.855  0.00  0.00    +0.080 C 
ATOM      2  C   UNL     1      -0.996  -3.278  -0.881  0.00  0.00    +0.041 C 
ATOM      3  N   UNL     1      -2.357  -3.334  -0.982  0.00  0.00    -0.260 N 
ATOM      4  C   UNL     1      -3.141  -2.252  -1.061  0.00  0.00    +0.307 C 
ATOM      5  O   UNL     1      -4.344  -2.403  -1.149  0.00  0.00    -0.252 OA
ATOM      6  N   UNL     1      -2.640  -1.001  -1.048  0.00  0.00    -0.288 N 
ATOM      7  C   UNL     1      -1.182  -0.831  -0.935  0.00  0.00    +0.144 C 
ATOM      8  C   UNL     1      -2.994  -4.653  -1.004  0.00  0.00    +0.139 C 
ATOM      9  H   UNL     1      -3.227  -0.231  -1.107  0.00  0.00    +0.151 HD
ENDROOT
BRANCH   7  10
ATOM     10  C   UNL     1      -0.899  -0.007   0.295  0.00  0.00    -0.022 A 
ATOM     11  C   UNL     1      -1.511  -0.324   1.494  0.00  0.00    +0.008 A 
ATOM     12  C   UNL     1      -1.251   0.430   2.622  0.00  0.00    +0.038 A 
ATOM     13  C   UNL     1      -0.378   1.503   2.553  0.00  0.00    +0.123 A 
ATOM     14  C   UNL     1       0.234   1.818   1.351  0.00  0.00    +0.038 A 
ATOM     15  C   UNL     1      -0.023   1.060   0.225  0.00  0.00    +0.008 A 
ATOM     16  F   UNL     1      -0.124   2.241   3.655  0.00  0.00    -0.205 F 
ENDBRANCH   7  10
BRANCH   1  17
ATOM     17  C   UNL     1       1.062  -2.033  -0.750  0.00  0.00    +0.339 C 
ATOM     18  O   UNL     1       1.582  -1.801   0.325  0.00  0.00    -0.245 OA
BRANCH  17  19
ATOM     19  O   UNL     1       1.829  -2.233  -1.842  0.00  0.00    -0.462 OA
BRANCH  19  21
ATOM     20  C   UNL     1       3.942  -2.409  -3.001  0.00  0.00    +0.048 C 
ATOM     21  C   UNL     1       3.244  -2.157  -1.663  0.00  0.00    +0.229 C 
ENDBRANCH  19  21
ENDBRANCH  17  19
ENDBRANCH   1  17
BRANCH   2  22
ATOM     22  C   UNL     1      -0.205  -4.558  -0.798  0.00  0.00    +0.136 C 
BRANCH  22  23
ATOM     23  N   UNL     1      -0.550  -5.267   0.442  0.00  0.00    -0.294 NA
ATOM     24  C   UNL     1      -0.120  -4.505   1.621  0.00  0.00    +0.104 C 
ATOM     25  C   UNL     1      -0.655  -5.184   2.887  0.00  0.00    +0.124 C 
ATOM     26  N   UNL     1      -0.239  -6.595   2.872  0.00  0.00    -0.292 N 
ATOM     27  C   UNL     1      -0.513  -7.388   1.664  0.00  0.00    +0.087 C 
ATOM     28  C   UNL     1       0.016  -6.622   0.447  0.00  0.00    +0.107 C 
ATOM     29  C   UNL     1       0.189  -8.743   1.769  0.00  0.00    +0.029 C 
ATOM     30  C   UNL     1       0.378  -7.145   3.936  0.00  0.00    +0.250 C 
ATOM     31  O   UNL     1       0.791  -8.287   3.876  0.00  0.00    -0.270 OA
BRANCH  30  32
ATOM     32  C   UNL     1       0.552  -6.361   5.176  0.00  0.00    +0.072 A 
ATOM     33  C   UNL     1      -0.372  -5.371   5.515  0.00  0.00    +0.016 A 
ATOM     34  C   UNL     1      -0.204  -4.643   6.674  0.00  0.00    +0.001 A 
ATOM     35  C   UNL     1       0.878  -4.891   7.502  0.00  0.00    +0.003 A 
ATOM     36  C   UNL     1       1.798  -5.868   7.174  0.00  0.00    +0.039 A 
ATOM     37  C   UNL     1       1.640  -6.611   6.018  0.00  0.00    +0.135 A 
ATOM     38  F   UNL     1       2.537  -7.570   5.700  0.00  0.00    -0.205 F 
ENDBRANCH  30  32
ENDBRANCH  22  23
ENDBRANCH   2  22
TORSDOF 7
