REMARK  Name = ZINC56905612
REMARK  6 active torsions:
REMARK  status: ('A' for Active; 'I' for Inactive)
REMARK    1  A    between atoms: C_1  and  C_2
REMARK    2  A    between atoms: C_4  and  C_8
REMARK    3  A    between atoms: C_5  and  C_7
REMARK    4  A    between atoms: C_14  and  C_16
REMARK    5  A    between atoms: N_21  and  S_22
REMARK    6  A    between atoms: S_22  and  C_25
REMARK                            x       y       z     vdW  Elec       q    Type
REMARK                         _______ _______ _______ _____ _____    ______ ____
ROOT
ATOM      1  C   UNL     1      -1.370  -3.421  -0.010  0.00  0.00    +0.253 A 
ATOM      2  N   UNL     1      -0.899  -4.645  -0.013  0.00  0.00    -0.106 NA
ATOM      3  N   UNL     1      -1.878  -5.479  -0.014  0.00  0.00    -0.092 NA
ATOM      4  C   UNL     1      -3.012  -4.822  -0.013  0.00  0.00    +0.314 A 
ATOM      5  O   UNL     1      -2.717  -3.508  -0.005  0.00  0.00    -0.405 OA
ATOM      6  N   UNL     1      -4.282  -5.379  -0.014  0.00  0.00    -0.237 N 
ATOM      7  C   UNL     1      -4.431  -6.718  -0.016  0.00  0.00    +0.239 C 
ATOM      8  O   UNL     1      -3.454  -7.437  -0.018  0.00  0.00    -0.274 OA
ATOM      9  H   UNL     1      -5.064  -4.804  -0.013  0.00  0.00    +0.159 HD
ENDROOT
BRANCH   1  13
ATOM     10  C   UNL     1      -0.018   1.503   0.010  0.00  0.00    +0.086 C 
ATOM     11  C   UNL     1       0.002  -0.004   0.002  0.00  0.00    +0.103 A 
ATOM     12  C   UNL     1      -1.081  -0.798   0.003  0.00  0.00    +0.058 A 
ATOM     13  C   UNL     1      -0.573  -2.176  -0.007  0.00  0.00    +0.079 A 
ATOM     14  C   UNL     1       0.784  -2.069  -0.013  0.00  0.00    +0.114 A 
ATOM     15  O   UNL     1       1.105  -0.768  -0.013  0.00  0.00    -0.464 OA
ATOM     16  C   UNL     1       1.759  -3.218  -0.024  0.00  0.00    +0.087 C 
ENDBRANCH   1  13
BRANCH   7  17
ATOM     17  C   UNL     1      -5.812  -7.323  -0.018  0.00  0.00    +0.166 C 
ATOM     18  C   UNL     1      -6.568  -6.901  -1.295  0.00  0.00    +0.031 C 
ATOM     19  C   UNL     1      -6.360  -8.115  -2.239  0.00  0.00    +0.019 C 
ATOM     20  C   UNL     1      -6.395  -9.297  -1.238  0.00  0.00    +0.110 C 
ATOM     21  N   UNL     1      -5.715  -8.790  -0.028  0.00  0.00    -0.164 NA
BRANCH  21  22
ATOM     22  S   UNL     1      -4.967  -9.716   1.123  0.00  0.00    +0.068 S 
ATOM     23  O   UNL     1      -4.614 -10.940   0.493  0.00  0.00    -0.152 OA
ATOM     24  O   UNL     1      -4.008  -8.881   1.757  0.00  0.00    -0.152 OA
BRANCH  22  25
ATOM     25  C   UNL     1      -6.177 -10.109   2.343  0.00  0.00    +0.143 A 
ATOM     26  C   UNL     1      -7.015 -11.173   2.402  0.00  0.00    +0.036 A 
ATOM     27  C   UNL     1      -7.892 -11.277   3.466  0.00  0.00    +0.010 A 
ATOM     28  C   UNL     1      -7.888 -10.312   4.418  0.00  0.00    +0.047 A 
ATOM     29  S   UNL     1      -6.612  -9.213   3.824  0.00  0.00    -0.077 S 
ENDBRANCH  22  25
ENDBRANCH  21  22
ENDBRANCH   7  17
TORSDOF 4
