REMARK  Name = ZINC39973680
REMARK  11 active torsions:
REMARK  status: ('A' for Active; 'I' for Inactive)
REMARK    1  A    between atoms: C_1  and  C_2
REMARK    2  A    between atoms: C_2  and  C_3
REMARK    3  A    between atoms: C_4  and  C_30
REMARK    4  A    between atoms: C_7  and  C_8
REMARK    5  A    between atoms: C_11  and  S_16
REMARK    6  A    between atoms: N_12  and  C_13
REMARK    7  A    between atoms: C_13  and  C_14
REMARK    8  A    between atoms: C_13  and  C_15
REMARK    9  A    between atoms: S_16  and  C_17
REMARK   10  A    between atoms: C_17  and  C_18
REMARK   11  A    between atoms: N_20  and  C_21
REMARK                            x       y       z     vdW  Elec       q    Type
REMARK                         _______ _______ _______ _____ _____    ______ ____
ROOT
ATOM      1  C   UNL     1      -1.270  -0.786  -2.436  0.00  0.00    +0.166 A 
ATOM      2  N   UNL     1      -0.166  -0.139  -2.730  0.00  0.00    -0.128 NA
ATOM      3  N   UNL     1       0.051  -0.191  -3.995  0.00  0.00    -0.122 NA
ATOM      4  C   UNL     1      -0.901  -0.873  -4.588  0.00  0.00    +0.193 A 
ATOM      5  N   UNL     1      -1.772  -1.282  -3.617  0.00  0.00    -0.299 N 
ENDROOT
BRANCH   1  10
ATOM      6  C   UNL     1      -1.072  -1.360  -0.014  0.00  0.00    -0.027 A 
ATOM      7  C   UNL     1      -1.645  -1.498   1.202  0.00  0.00    -0.009 A 
ATOM      8  S   UNL     1      -3.345  -1.065   0.872  0.00  0.00    -0.101 S 
ATOM      9  C   UNL     1      -3.190  -0.725  -0.874  0.00  0.00    +0.057 A 
ATOM     10  C   UNL     1      -1.858  -0.956  -1.091  0.00  0.00    +0.030 A 
ATOM     11  C   UNL     1      -1.011  -1.912   2.505  0.00  0.00    +0.052 C 
BRANCH   6  13
ATOM     12  C   UNL     1       1.191  -0.346   0.038  0.00  0.00    +0.009 C 
ATOM     13  C   UNL     1       0.399  -1.633  -0.201  0.00  0.00    +0.033 C 
ENDBRANCH   6  13
ENDBRANCH   1  10
BRANCH   5  14
ATOM     14  C   UNL     1      -2.989  -2.078  -3.796  0.00  0.00    +0.085 C 
ATOM     15  C   UNL     1      -3.958  -1.329  -4.713  0.00  0.00    +0.030 C 
ATOM     16  C   UNL     1      -2.629  -3.425  -4.426  0.00  0.00    +0.030 C 
ENDBRANCH   5  14
BRANCH   4  17
ATOM     17  S   UNL     1      -1.028  -1.206  -6.314  0.00  0.00    -0.077 S 
BRANCH  17  18
ATOM     18  C   UNL     1       0.432  -0.399  -7.026  0.00  0.00    +0.173 C 
BRANCH  18  19
ATOM     19  C   UNL     1       0.446  -0.610  -8.518  0.00  0.00    +0.227 C 
ATOM     20  O   UNL     1      -0.443  -1.242  -9.049  0.00  0.00    -0.275 OA
ATOM     21  N   UNL     1       1.444  -0.095  -9.262  0.00  0.00    -0.285 N 
ATOM     22  H   UNL     1       2.193   0.346  -8.831  0.00  0.00    +0.155 HD
BRANCH  21  23
ATOM     23  C   UNL     1       1.402  -0.198 -10.659  0.00  0.00    +0.037 A 
ATOM     24  C   UNL     1       2.579  -0.340 -11.381  0.00  0.00    +0.027 A 
ATOM     25  C   UNL     1       2.539  -0.442 -12.758  0.00  0.00    +0.051 A 
ATOM     26  C   UNL     1       1.324  -0.402 -13.423  0.00  0.00    +0.166 A 
ATOM     27  C   UNL     1       0.141  -0.260 -12.701  0.00  0.00    +0.168 A 
ATOM     28  C   UNL     1       0.182  -0.163 -11.320  0.00  0.00    +0.072 A 
ATOM     29  O   UNL     1      -0.906  -0.247 -13.577  0.00  0.00    -0.453 OA
ATOM     30  C   UNL     1      -0.326   0.027 -14.866  0.00  0.00    +0.466 C 
ATOM     31  O   UNL     1       1.017  -0.479 -14.752  0.00  0.00    -0.453 OA
ENDBRANCH  21  23
ENDBRANCH  18  19
ENDBRANCH  17  18
ENDBRANCH   4  17
TORSDOF 7
