REMARK  Name = ZINC38935271
REMARK  7 active torsions:
REMARK  status: ('A' for Active; 'I' for Inactive)
REMARK    1  A    between atoms: C_1  and  C_2
REMARK    2  A    between atoms: C_5  and  S_8
REMARK    3  A    between atoms: S_8  and  C_11
REMARK    4  A    between atoms: C_11  and  C_13
REMARK    5  A    between atoms: C_11  and  C_27
REMARK    6  A    between atoms: C_13  and  N_14
REMARK    7  A    between atoms: N_17  and  C_18
REMARK                            x       y       z     vdW  Elec       q    Type
REMARK                         _______ _______ _______ _____ _____    ______ ____
ROOT
ATOM      1  C   UNL     1       1.810  -4.975  -0.028  0.00  0.00    +0.189 C 
ENDROOT
BRANCH   1   2
ATOM      2  C   UNL     1       2.479  -4.415   1.200  0.00  0.00    +0.016 A 
ATOM      3  C   UNL     1       3.498  -3.526   1.287  0.00  0.00    +0.013 A 
ATOM      4  C   UNL     1       3.956  -3.150   2.536  0.00  0.00    +0.008 A 
ATOM      5  C   UNL     1       3.372  -3.683   3.637  0.00  0.00    +0.045 A 
ATOM      6  S   UNL     1       2.130  -4.745   2.920  0.00  0.00    -0.100 S 
ENDBRANCH   1   2
BRANCH   1   7
ATOM      7  S   UNL     1       0.048  -4.541  -0.008  0.00  0.00    +0.006 S 
ATOM      8  O   UNL     1      -0.536  -4.925   1.229  0.00  0.00    -0.169 OA
ATOM      9  O   UNL     1      -0.560  -4.905  -1.240  0.00  0.00    -0.169 OA
BRANCH   7  14
ATOM     10  C   UNL     1      -0.068   1.491   0.043  0.00  0.00    +0.044 C 
ATOM     11  C   UNL     1      -0.039  -0.016   0.030  0.00  0.00    -0.050 A 
ATOM     12  C   UNL     1      -0.036  -0.697  -1.173  0.00  0.00    +0.005 A 
ATOM     13  C   UNL     1      -0.009  -2.079  -1.184  0.00  0.00    +0.027 A 
ATOM     14  C   UNL     1       0.015  -2.780   0.007  0.00  0.00    +0.089 A 
ATOM     15  C   UNL     1       0.013  -2.099   1.210  0.00  0.00    +0.027 A 
ATOM     16  C   UNL     1      -0.009  -0.717   1.222  0.00  0.00    +0.005 A 
ENDBRANCH   7  14
ENDBRANCH   1   7
BRANCH   1  17
ATOM     17  C   UNL     1       1.960  -6.497  -0.042  0.00  0.00    +0.137 C 
BRANCH  17  18
ATOM     18  N   UNL     1       1.309  -7.041  -1.237  0.00  0.00    -0.297 N 
ATOM     19  C   UNL     1       1.315  -8.370  -1.461  0.00  0.00    +0.304 C 
ATOM     20  O   UNL     1       1.861  -9.117  -0.672  0.00  0.00    -0.253 OA
ATOM     21  N   UNL     1       0.717  -8.871  -2.560  0.00  0.00    -0.269 N 
ATOM     22  H   UNL     1       0.874  -6.445  -1.866  0.00  0.00    +0.150 HD
ATOM     23  H   UNL     1       0.224  -8.283  -3.154  0.00  0.00    +0.156 HD
BRANCH  21  24
ATOM     24  C   UNL     1       0.805 -10.240  -2.844  0.00  0.00    +0.038 A 
ATOM     25  C   UNL     1       0.890 -10.672  -4.161  0.00  0.00    +0.027 A 
ATOM     26  C   UNL     1       0.978 -12.022  -4.442  0.00  0.00    +0.051 A 
ATOM     27  C   UNL     1       0.982 -12.948  -3.412  0.00  0.00    +0.166 A 
ATOM     28  C   UNL     1       0.897 -12.518  -2.090  0.00  0.00    +0.168 A 
ATOM     29  C   UNL     1       0.814 -11.165  -1.809  0.00  0.00    +0.073 A 
ATOM     30  O   UNL     1       0.919 -13.611  -1.273  0.00  0.00    -0.453 OA
ATOM     31  C   UNL     1       0.608 -14.732  -2.121  0.00  0.00    +0.466 C 
ATOM     32  O   UNL     1       1.058 -14.312  -3.422  0.00  0.00    -0.453 OA
ENDBRANCH  21  24
ENDBRANCH  17  18
ENDBRANCH   1  17
TORSDOF 6
