REMARK  Name = ZINC42438309
REMARK  7 active torsions:
REMARK  status: ('A' for Active; 'I' for Inactive)
REMARK    1  A    between atoms: C_1  and  C_2
REMARK    2  A    between atoms: C_2  and  N_3
REMARK    3  A    between atoms: N_3  and  C_4
REMARK    4  A    between atoms: C_4  and  C_5
REMARK    5  A    between atoms: C_10  and  N_11
REMARK    6  A    between atoms: C_14  and  C_17
REMARK    7  A    between atoms: C_17  and  C_18
REMARK                            x       y       z     vdW  Elec       q    Type
REMARK                         _______ _______ _______ _____ _____    ______ ____
ROOT
ATOM      1  C   UNL     1      -4.970  -2.870  -1.031  0.00  0.00    -0.043 A 
ATOM      2  C   UNL     1      -5.596  -3.407   0.077  0.00  0.00    +0.004 A 
ATOM      3  C   UNL     1      -4.875  -3.645   1.233  0.00  0.00    +0.015 A 
ATOM      4  C   UNL     1      -3.525  -3.344   1.284  0.00  0.00    +0.020 A 
ATOM      5  C   UNL     1      -2.893  -2.806   0.179  0.00  0.00    +0.038 A 
ATOM      6  C   UNL     1      -3.614  -2.572  -0.986  0.00  0.00    +0.032 A 
ATOM      7 BR   UNL     1      -2.543  -3.670   2.867  0.00  0.00    -0.050 Br
ENDROOT
BRANCH   6   8
ATOM      8  N   UNL     1      -2.978  -2.033  -2.106  0.00  0.00    -0.330 N 
ATOM      9  C   UNL     1      -2.254  -2.901  -3.045  0.00  0.00    +0.105 C 
ATOM     10  C   UNL     1      -0.829  -2.363  -3.215  0.00  0.00    +0.023 C 
ATOM     11  C   UNL     1      -0.890  -0.893  -3.636  0.00  0.00    +0.001 C 
ATOM     12  C   UNL     1      -1.588  -0.076  -2.546  0.00  0.00    +0.023 C 
ATOM     13  C   UNL     1      -3.026  -0.589  -2.372  0.00  0.00    +0.105 C 
BRANCH  11  14
ATOM     14  C   UNL     1       0.530  -0.362  -3.840  0.00  0.00    +0.099 C 
BRANCH  14  15
ATOM     15  C   UNL     1       0.469   1.046  -4.372  0.00  0.00    +0.211 C 
ATOM     16  O   UNL     1      -0.606   1.574  -4.569  0.00  0.00    -0.276 OA
ATOM     17  N   UNL     1       1.607   1.720  -4.629  0.00  0.00    -0.329 N 
ATOM     18  H   UNL     1       2.466   1.298  -4.472  0.00  0.00    +0.145 HD
ATOM     19  H   UNL     1       1.568   2.627  -4.972  0.00  0.00    +0.145 HD
ENDBRANCH  14  15
ENDBRANCH  11  14
ENDBRANCH   6   8
BRANCH   1  20
ATOM     20  C   UNL     1      -5.757  -2.612  -2.290  0.00  0.00    -0.045 C 
BRANCH  20  21
ATOM     21  N   UNL     1      -5.519  -3.700  -3.248  0.00  0.00    +0.382 N 
ATOM     22  H   UNL     1      -5.779  -4.580  -2.828  0.00  0.00    -0.085 HD
ATOM     23  H   UNL     1      -4.541  -3.722  -3.496  0.00  0.00    -0.085 HD
BRANCH  21  25
ATOM     24  C   UNL     1      -6.078  -4.609  -5.452  0.00  0.00    -0.017 C 
ATOM     25  C   UNL     1      -6.326  -3.476  -4.455  0.00  0.00    -0.086 C 
ENDBRANCH  21  25
ENDBRANCH  20  21
ENDBRANCH   1  20
TORSDOF 6
