REMARK  Name = ZINC08970475
REMARK  1 active torsions:
REMARK  status: ('A' for Active; 'I' for Inactive)
REMARK    1  A    between atoms: C_5  and  N_7
REMARK                            x       y       z     vdW  Elec       q    Type
REMARK                         _______ _______ _______ _____ _____    ______ ____
ROOT
ATOM      1  N   UNL     1       1.727   1.770  -1.315  0.00  0.00    -0.207 N 
ATOM      2  C   UNL     1       1.358   1.705  -0.002  0.00  0.00    +0.229 C 
ATOM      3  O   UNL     1       2.002   2.072   0.958  0.00  0.00    -0.275 OA
ATOM      4  C   UNL     1      -0.013   1.086   0.008  0.00  0.00    +0.074 C 
ATOM      5  C   UNL     1      -1.092   1.680   0.927  0.00  0.00    -0.054 C 
ATOM      6  C   UNL     1      -1.264   0.827   2.166  0.00  0.00    -0.016 C 
ATOM      7  C   UNL     1      -2.659   0.175   2.043  0.00  0.00    -0.020 C 
ATOM      8  C   UNL     1      -2.925   0.209   0.518  0.00  0.00    -0.076 C 
ATOM      9  C   UNL     1      -1.940   1.454  -1.349  0.00  0.00    +0.053 C 
ATOM     10  C   UNL     1      -0.503   1.757  -1.338  0.00  0.00    +0.089 C 
ATOM     11  C   UNL     1       0.667   1.615  -2.173  0.00  0.00    +0.229 C 
ATOM     12  O   UNL     1       0.705   1.405  -3.367  0.00  0.00    -0.275 OA
ATOM     13  C   UNL     1      -2.287   0.136  -1.989  0.00  0.00    -0.026 A 
ATOM     14  C   UNL     1      -1.839  -1.155  -1.809  0.00  0.00    +0.004 A 
ATOM     15  C   UNL     1      -2.365  -2.188  -2.563  0.00  0.00    +0.002 A 
ATOM     16  C   UNL     1      -3.338  -1.923  -3.509  0.00  0.00    +0.022 A 
ATOM     17  C   UNL     1      -3.776  -0.630  -3.710  0.00  0.00    +0.062 A 
ATOM     18  C   UNL     1      -3.244   0.416  -2.959  0.00  0.00    +0.054 A 
ATOM     19  N   UNL     1      -3.509   1.787  -2.995  0.00  0.00    -0.285 N 
ATOM     20  C   UNL     1      -2.771   2.470  -2.103  0.00  0.00    +0.212 C 
ATOM     21  O   UNL     1      -2.772   3.671  -1.934  0.00  0.00    -0.277 OA
ATOM     22 CL   UNL     1      -4.995  -0.306  -4.903  0.00  0.00    -0.082 Cl
ATOM     23  H   UNL     1      -4.151   2.198  -3.594  0.00  0.00    +0.155 HD
ATOM     24  N   UNL     1      -2.312   1.486   0.116  0.00  0.00    +0.395 N 
ATOM     25  H   UNL     1      -2.970   2.256   0.285  0.00  0.00    -0.079 HD
ENDROOT
BRANCH   1  30
ATOM     26  C   UNL     1       5.184   1.087  -2.379  0.00  0.00    +0.002 A 
ATOM     27  C   UNL     1       5.656   2.371  -2.582  0.00  0.00    +0.003 A 
ATOM     28  C   UNL     1       4.828   3.457  -2.366  0.00  0.00    +0.040 A 
ATOM     29  C   UNL     1       3.525   3.262  -1.946  0.00  0.00    +0.145 A 
ATOM     30  C   UNL     1       3.049   1.972  -1.741  0.00  0.00    +0.079 A 
ATOM     31  C   UNL     1       3.885   0.885  -1.954  0.00  0.00    +0.027 A 
ATOM     32  F   UNL     1       2.715   4.323  -1.735  0.00  0.00    -0.204 F 
ENDBRANCH   1  30
TORSDOF 1
