REMARK  Name = ZINC40383857
REMARK  15 active torsions:
REMARK  status: ('A' for Active; 'I' for Inactive)
REMARK    1  A    between atoms: C_1  and  C_2
REMARK    2  A    between atoms: C_2  and  N_3
REMARK    3  A    between atoms: N_3  and  C_4
REMARK    4  A    between atoms: N_3  and  C_6
REMARK    5  A    between atoms: C_4  and  C_5
REMARK    6  A    between atoms: C_6  and  C_7
REMARK    7  A    between atoms: C_7  and  C_8
REMARK    8  A    between atoms: C_8  and  C_9
REMARK    9  A    between atoms: C_9  and  C_11
REMARK   10  A    between atoms: C_9  and  N_12
REMARK   11  A    between atoms: C_13  and  C_15
REMARK   12  A    between atoms: C_18  and  C_20
REMARK   13  A    between atoms: C_20  and  N_21
REMARK   14  A    between atoms: C_29  and  C_31
REMARK   15  A    between atoms: C_34  and  C_37
REMARK                            x       y       z     vdW  Elec       q    Type
REMARK                         _______ _______ _______ _____ _____    ______ ____
ROOT
ATOM      1  C   UNL     1       6.463  -2.076  -2.405  0.00  0.00    +0.189 A 
ATOM      2  C   UNL     1       7.260  -1.636  -3.423  0.00  0.00    +0.055 A 
ATOM      3  C   UNL     1       8.383  -1.040  -2.827  0.00  0.00    +0.043 A 
ATOM      4  C   UNL     1       8.224  -1.141  -1.489  0.00  0.00    +0.090 A 
ATOM      5  O   UNL     1       7.064  -1.762  -1.239  0.00  0.00    -0.457 OA
ENDROOT
BRANCH   1   7
ATOM      6  N   UNL     1       4.484  -3.142  -1.461  0.00  0.00    -0.306 N 
ATOM      7  C   UNL     1       5.176  -2.764  -2.554  0.00  0.00    +0.280 C 
ATOM      8  O   UNL     1       4.734  -2.993  -3.664  0.00  0.00    -0.267 OA
ATOM      9  H   UNL     1       4.837  -2.959  -0.576  0.00  0.00    +0.149 HD
BRANCH   6  10
ATOM     10  C   UNL     1       3.199  -3.829  -1.609  0.00  0.00    +0.070 C 
ATOM     11  C   UNL     1       3.441  -5.329  -1.795  0.00  0.00    +0.028 C 
BRANCH  10  12
ATOM     12  C   UNL     1       2.351  -3.601  -0.357  0.00  0.00    +0.020 C 
BRANCH  12  13
ATOM     13  C   UNL     1       2.004  -2.115  -0.240  0.00  0.00    -0.017 C 
BRANCH  13  14
ATOM     14  C   UNL     1       1.156  -1.887   1.013  0.00  0.00    -0.079 C 
BRANCH  14  15
ATOM     15  N   UNL     1       0.823  -0.461   1.126  0.00  0.00    +0.379 N 
ATOM     16  H   UNL     1       1.671   0.085   1.109  0.00  0.00    -0.082 HD
BRANCH  15  18
ATOM     17  C   UNL     1      -0.264   1.445   0.037  0.00  0.00    -0.017 C 
ATOM     18  C   UNL     1      -0.034  -0.067  -0.001  0.00  0.00    -0.082 C 
ENDBRANCH  15  18
BRANCH  15  19
ATOM     19  C   UNL     1       0.111  -0.222   2.389  0.00  0.00    -0.082 C 
ATOM     20  C   UNL     1       1.053  -0.495   3.563  0.00  0.00    -0.017 C 
ENDBRANCH  15  19
ENDBRANCH  14  15
ENDBRANCH  13  14
ENDBRANCH  12  13
ENDBRANCH  10  12
ENDBRANCH   6  10
ENDBRANCH   1   7
BRANCH   4  21
ATOM     21  C   UNL     1       9.191  -0.636  -0.450  0.00  0.00    -0.002 C 
BRANCH  21  22
ATOM     22  N   UNL     1       8.851   0.749  -0.097  0.00  0.00    +0.394 N 
ATOM     23  C   UNL     1       7.528   0.779   0.540  0.00  0.00    -0.055 C 
ATOM     24  C   UNL     1       7.024   2.225   0.626  0.00  0.00    +0.103 C 
ATOM     25  N   UNL     1       8.085   3.041   1.232  0.00  0.00    -0.353 N 
ATOM     26  C   UNL     1       7.985   4.281   1.772  0.00  0.00    +0.086 A 
ATOM     27  C   UNL     1       9.208   4.645   2.218  0.00  0.00    +0.019 A 
ATOM     28  C   UNL     1      10.094   3.584   1.938  0.00  0.00    +0.021 A 
ATOM     29  C   UNL     1       9.385   2.619   1.335  0.00  0.00    +0.009 A 
ATOM     30  C   UNL     1       9.866   1.282   0.827  0.00  0.00    +0.011 C 
ATOM     31  H   UNL     1       8.831   1.313  -0.934  0.00  0.00    -0.080 HD
BRANCH  30  32
ATOM     32  C   UNL     1      11.175   1.455   0.101  0.00  0.00    -0.055 A 
ATOM     33  C   UNL     1      11.188   1.942  -1.193  0.00  0.00    +0.002 A 
ATOM     34  C   UNL     1      12.389   2.101  -1.860  0.00  0.00    +0.003 A 
ATOM     35  C   UNL     1      13.576   1.773  -1.233  0.00  0.00    -0.050 A 
ATOM     36  C   UNL     1      13.563   1.286   0.061  0.00  0.00    +0.003 A 
ATOM     37  C   UNL     1      12.363   1.131   0.729  0.00  0.00    +0.002 A 
ATOM     38  C   UNL     1      14.885   1.945  -1.960  0.00  0.00    +0.044 C 
ENDBRANCH  30  32
ENDBRANCH  21  22
ENDBRANCH   4  21
TORSDOF 11
