REMARK  Name = ZINC17967983
REMARK  9 active torsions:
REMARK  status: ('A' for Active; 'I' for Inactive)
REMARK    1  A    between atoms: C_1  and  C_2
REMARK    2  A    between atoms: C_2  and  O_3
REMARK    3  A    between atoms: O_3  and  C_4
REMARK    4  A    between atoms: C_4  and  C_6
REMARK    5  A    between atoms: C_7  and  N_22
REMARK    6  A    between atoms: N_11  and  N_12
REMARK    7  A    between atoms: C_13  and  C_15
REMARK    8  A    between atoms: C_20  and  O_21
REMARK    9  A    between atoms: N_22  and  C_23
REMARK                            x       y       z     vdW  Elec       q    Type
REMARK                         _______ _______ _______ _____ _____    ______ ____
ROOT
ATOM      1  C   UNL     1       0.753  -2.469   2.716  0.00  0.00    +0.142 C 
ATOM      2  C   UNL     1       1.186  -3.774   2.895  0.00  0.00    +0.201 C 
ATOM      3  O   UNL     1       1.572  -4.011   4.156  0.00  0.00    -0.472 OA
ATOM      4  C   UNL     1       1.422  -2.833   4.952  0.00  0.00    +0.288 C 
ATOM      5  C   UNL     1       0.878  -1.775   4.013  0.00  0.00    +0.115 C 
ATOM      6  N   UNL     1       0.586  -0.538   4.287  0.00  0.00    -0.180 NA
ENDROOT
BRANCH   6   7
ATOM      7  N   UNL     1       0.770  -0.046   5.586  0.00  0.00    -0.202 N 
ATOM      8  C   UNL     1       0.468   1.236   5.870  0.00  0.00    +0.267 C 
ATOM      9  O   UNL     1       0.035   1.966   4.999  0.00  0.00    -0.268 OA
ATOM     10  H   UNL     1       1.116  -0.629   6.281  0.00  0.00    +0.178 HD
BRANCH   8  11
ATOM     11  C   UNL     1       0.662   1.754   7.238  0.00  0.00    +0.080 A 
ATOM     12  C   UNL     1       1.165   0.920   8.240  0.00  0.00    +0.017 A 
ATOM     13  C   UNL     1       1.344   1.410   9.515  0.00  0.00    +0.001 A 
ATOM     14  C   UNL     1       1.028   2.726   9.809  0.00  0.00    +0.004 A 
ATOM     15  C   UNL     1       0.530   3.561   8.829  0.00  0.00    +0.046 A 
ATOM     16  C   UNL     1       0.348   3.086   7.538  0.00  0.00    +0.129 A 
BRANCH  16  17
ATOM     17  O   UNL     1      -0.135   3.907   6.572  0.00  0.00    -0.506 OA
ATOM     18  H   UNL     1      -1.100   3.904   6.500  0.00  0.00    +0.292 HD
ENDBRANCH  16  17
ENDBRANCH   8  11
ENDBRANCH   6   7
BRANCH   1  19
ATOM     19  C   UNL     1       0.283  -1.902   1.506  0.00  0.00    +0.346 C 
ATOM     20  O   UNL     1       0.227  -2.581   0.497  0.00  0.00    -0.245 OA
BRANCH  19  21
ATOM     21  O   UNL     1      -0.104  -0.610   1.472  0.00  0.00    -0.461 OA
BRANCH  21  23
ATOM     22  C   UNL     1      -0.958   1.367   0.375  0.00  0.00    +0.048 C 
ATOM     23  C   UNL     1      -0.568  -0.104   0.218  0.00  0.00    +0.229 C 
ENDBRANCH  21  23
ENDBRANCH  19  21
ENDBRANCH   1  19
BRANCH   2  24
ATOM     24  N   UNL     1       1.214  -4.710   1.901  0.00  0.00    -0.284 N 
ATOM     25  H   UNL     1       1.007  -4.454   0.988  0.00  0.00    +0.155 HD
BRANCH  24  26
ATOM     26  C   UNL     1       1.540  -6.033   2.198  0.00  0.00    +0.041 A 
ATOM     27  C   UNL     1       1.642  -6.447   3.509  0.00  0.00    +0.024 A 
ATOM     28  C   UNL     1       1.967  -7.764   3.816  0.00  0.00    +0.002 A 
ATOM     29  C   UNL     1       2.192  -8.680   2.833  0.00  0.00    +0.008 A 
ATOM     30  C   UNL     1       2.098  -8.299   1.484  0.00  0.00    -0.016 A 
ATOM     31  C   UNL     1       1.763  -6.962   1.159  0.00  0.00    +0.003 A 
ATOM     32  C   UNL     1       1.664  -6.584  -0.189  0.00  0.00    +0.010 A 
ATOM     33  C   UNL     1       1.886  -7.507  -1.166  0.00  0.00    +0.001 A 
ATOM     34  C   UNL     1       2.209  -8.825  -0.847  0.00  0.00    +0.001 A 
ATOM     35  C   UNL     1       2.325  -9.223   0.449  0.00  0.00    +0.008 A 
ENDBRANCH  24  26
ENDBRANCH   2  24
TORSDOF 8
