REMARK  Name = ZINC14459798
REMARK  8 active torsions:
REMARK  status: ('A' for Active; 'I' for Inactive)
REMARK    1  A    between atoms: C_1  and  O_2
REMARK    2  A    between atoms: O_2  and  C_3
REMARK    3  A    between atoms: C_7  and  C_10
REMARK    4  A    between atoms: C_8  and  O_9
REMARK    5  A    between atoms: C_21  and  S_26
REMARK    6  A    between atoms: S_26  and  N_29
REMARK    7  A    between atoms: N_29  and  C_30
REMARK    8  A    between atoms: C_30  and  C_31
REMARK                            x       y       z     vdW  Elec       q    Type
REMARK                         _______ _______ _______ _____ _____    ______ ____
ROOT
ATOM      1  C   UNL     1       3.566   1.744   0.431  0.00  0.00    +0.109 C 
ATOM      2  C   UNL     1       4.337   2.865  -0.272  0.00  0.00    +0.029 C 
ATOM      3  C   UNL     1       5.640   3.114   0.543  0.00  0.00    +0.033 C 
ATOM      4  C   UNL     1       5.183   4.021   1.669  0.00  0.00    -0.030 C 
ATOM      5  C   UNL     1       4.071   4.632   1.343  0.00  0.00    -0.023 C 
ATOM      6  C   UNL     1       3.630   4.215  -0.040  0.00  0.00    +0.049 C 
ATOM      7  C   UNL     1       2.140   4.117  -0.131  0.00  0.00    -0.018 A 
ATOM      8  C   UNL     1       1.398   5.289  -0.188  0.00  0.00    +0.034 A 
ATOM      9  C   UNL     1       0.022   5.245  -0.274  0.00  0.00    +0.106 A 
ATOM     10  C   UNL     1      -0.636   4.028  -0.312  0.00  0.00    +0.030 A 
ATOM     11  C   UNL     1       0.090   2.856  -0.249  0.00  0.00    +0.025 A 
ATOM     12  C   UNL     1       1.476   2.901  -0.161  0.00  0.00    +0.031 A 
ATOM     13  N   UNL     1       2.199   1.704  -0.099  0.00  0.00    -0.336 N 
ATOM     14  H   UNL     1       1.805   0.870  -0.399  0.00  0.00    +0.147 HD
ENDROOT
BRANCH   1  19
ATOM     15  C   UNL     1       4.425   1.676   4.117  0.00  0.00    +0.162 A 
ATOM     16  C   UNL     1       3.447   2.507   4.638  0.00  0.00    +0.049 A 
ATOM     17  C   UNL     1       2.513   3.087   3.800  0.00  0.00    +0.004 A 
ATOM     18  C   UNL     1       2.555   2.844   2.439  0.00  0.00    +0.009 A 
ATOM     19  C   UNL     1       3.526   2.011   1.913  0.00  0.00    +0.018 A 
ATOM     20  C   UNL     1       4.465   1.427   2.748  0.00  0.00    +0.163 A 
BRANCH  15  22
ATOM     21  C   UNL     1       5.243   1.406   6.333  0.00  0.00    +0.277 C 
ATOM     22  O   UNL     1       5.345   1.105   4.940  0.00  0.00    -0.491 OA
ENDBRANCH  15  22
BRANCH  20  23
ATOM     23  O   UNL     1       5.423   0.612   2.232  0.00  0.00    -0.503 OA
ATOM     24  H   UNL     1       6.266   1.053   2.062  0.00  0.00    +0.292 HD
ENDBRANCH  20  23
ENDBRANCH   1  19
BRANCH   9  25
ATOM     25  S   UNL     1      -0.902   6.743  -0.345  0.00  0.00    +0.059 S 
ATOM     26  O   UNL     1      -2.207   6.439   0.128  0.00  0.00    -0.153 OA
ATOM     27  O   UNL     1      -0.092   7.748   0.250  0.00  0.00    -0.153 OA
BRANCH  25  28
ATOM     28  N   UNL     1      -1.059   7.147  -1.943  0.00  0.00    -0.186 NA
ATOM     29  H   UNL     1      -0.643   7.955  -2.282  0.00  0.00    +0.148 HD
BRANCH  28  30
ATOM     30  C   UNL     1      -1.827   6.284  -2.844  0.00  0.00    +0.132 C 
BRANCH  30  31
ATOM     31  C   UNL     1      -2.131   7.032  -4.117  0.00  0.00    -0.018 C 
ATOM     32  C   UNL     1      -1.787   6.522  -5.274  0.00  0.00    +0.005 C 
ENDBRANCH  30  31
ENDBRANCH  28  30
ENDBRANCH  25  28
ENDBRANCH   9  25
TORSDOF 7
