REMARK  Name = ZINC15971891
REMARK  4 active torsions:
REMARK  status: ('A' for Active; 'I' for Inactive)
REMARK    1  A    between atoms: C_8  and  C_27
REMARK    2  A    between atoms: C_10  and  C_18
REMARK    3  A    between atoms: C_22  and  N_24
REMARK    4  A    between atoms: C_27  and  C_29
REMARK                            x       y       z     vdW  Elec       q    Type
REMARK                         _______ _______ _______ _____ _____    ______ ____
ROOT
ATOM      1  C   UNL     1       0.254   1.359  -0.239  0.00  0.00    +0.000 A 
ATOM      2  C   UNL     1       1.487   1.984  -0.286  0.00  0.00    +0.002 A 
ATOM      3  C   UNL     1       2.647   1.239  -0.259  0.00  0.00    +0.023 A 
ATOM      4  C   UNL     1       2.586  -0.151  -0.184  0.00  0.00    +0.039 A 
ATOM      5  C   UNL     1       1.340  -0.768  -0.138  0.00  0.00    +0.004 A 
ATOM      6  C   UNL     1       0.184  -0.021  -0.166  0.00  0.00    +0.008 A 
ATOM      7  C   UNL     1       1.613  -2.246  -0.062  0.00  0.00    +0.137 C 
ATOM      8  C   UNL     1       1.021  -2.852   1.216  0.00  0.00    +0.103 C 
ATOM      9  C   UNL     1       0.660  -4.298   0.820  0.00  0.00    +0.049 C 
ATOM     10  C   UNL     1       0.637  -4.317  -0.717  0.00  0.00    +0.066 C 
ATOM     11  N   UNL     1       1.013  -2.965  -1.188  0.00  0.00    -0.281 NA
ATOM     12  C   UNL     1       1.960  -3.095  -2.307  0.00  0.00    +0.086 C 
ATOM     13  C   UNL     1       2.146  -4.604  -2.574  0.00  0.00    +0.017 C 
ATOM     14  C   UNL     1       1.760  -5.262  -1.213  0.00  0.00    +0.021 C 
ATOM     15  C   UNL     1       3.115  -2.361  -0.070  0.00  0.00    +0.243 C 
ATOM     16  O   UNL     1       3.762  -3.386  -0.020  0.00  0.00    -0.273 OA
ATOM     17  N   UNL     1       3.601  -1.108  -0.143  0.00  0.00    -0.283 N 
ATOM     18  H   UNL     1       4.547  -0.895  -0.166  0.00  0.00    +0.155 HD
ENDROOT
BRANCH   9  19
ATOM     19  C   UNL     1      -0.697  -4.663   1.366  0.00  0.00    -0.040 A 
ATOM     20  C   UNL     1      -1.808  -3.922   1.010  0.00  0.00    +0.004 A 
ATOM     21  C   UNL     1      -3.052  -4.257   1.511  0.00  0.00    +0.002 A 
ATOM     22  C   UNL     1      -3.185  -5.333   2.368  0.00  0.00    +0.033 A 
ATOM     23  C   UNL     1      -2.074  -6.075   2.724  0.00  0.00    +0.126 A 
ATOM     24  C   UNL     1      -0.830  -5.742   2.219  0.00  0.00    +0.036 A 
BRANCH  23  25
ATOM     25  N   UNL     1      -2.216  -7.227   3.642  0.00  0.00    +0.056 N 
ATOM     26  O   UNL     1      -3.304  -7.520   4.080  0.00  0.00    -0.126 OA
ATOM     27  O   UNL     1      -1.245  -7.876   3.953  0.00  0.00    -0.126 OA
ENDBRANCH  23  25
ENDBRANCH   9  19
BRANCH   8  28
ATOM     28  C   UNL     1       2.041  -2.845   2.325  0.00  0.00    +0.170 C 
ATOM     29  O   UNL     1       2.779  -3.791   2.472  0.00  0.00    -0.292 OA
BRANCH  28  30
ATOM     30  C   UNL     1       2.140  -1.684   3.230  0.00  0.00    +0.021 A 
ATOM     31  C   UNL     1       1.291  -0.580   3.080  0.00  0.00    +0.031 A 
ATOM     32  C   UNL     1       1.419   0.485   3.950  0.00  0.00    +0.111 A 
ATOM     33  N   UNL     1       2.324   0.471   4.909  0.00  0.00    -0.263 NA
ATOM     34  C   UNL     1       3.142  -0.547   5.086  0.00  0.00    +0.111 A 
ATOM     35  C   UNL     1       3.081  -1.657   4.266  0.00  0.00    +0.031 A 
ENDBRANCH  28  30
ENDBRANCH   8  28
TORSDOF 4
