REMARK  Name = ZINC09641442
REMARK  11 active torsions:
REMARK  status: ('A' for Active; 'I' for Inactive)
REMARK    1  A    between atoms: C_1  and  C_2
REMARK    2  A    between atoms: C_5  and  C_34
REMARK    3  A    between atoms: N_8  and  C_10
REMARK    4  A    between atoms: C_12  and  N_27
REMARK    5  A    between atoms: N_27  and  C_28
REMARK    6  A    between atoms: C_28  and  C_29
REMARK    7  A    between atoms: C_29  and  N_65
REMARK    8  A    between atoms: C_30  and  N_65
REMARK    9  A    between atoms: C_31  and  C_32
REMARK   10  A    between atoms: C_31  and  N_65
REMARK   11  A    between atoms: C_32  and  O_33
REMARK                            x       y       z     vdW  Elec       q    Type
REMARK                         _______ _______ _______ _____ _____    ______ ____
ROOT
ATOM      1  C   UNL     1      -2.532   8.568   0.571  0.00  0.00    +0.061 A 
ATOM      2  C   UNL     1      -3.703   7.842   0.476  0.00  0.00    +0.049 A 
ATOM      3  C   UNL     1      -3.775   6.445   0.406  0.00  0.00    +0.041 A 
ATOM      4  C   UNL     1      -2.598   5.682   0.431  0.00  0.00    +0.056 A 
ATOM      5  C   UNL     1      -1.359   6.404   0.530  0.00  0.00    +0.063 A 
ATOM      6  C   UNL     1      -1.248   7.856   0.605  0.00  0.00    +0.136 A 
ATOM      7  N   UNL     1       0.039   8.042   0.681  0.00  0.00    -0.076 NA
ATOM      8  O   UNL     1       0.680   6.992   0.665  0.00  0.00    -0.353 OA
ATOM      9  C   UNL     1      -0.084   5.898   0.574  0.00  0.00    +0.176 A 
ATOM     10  C   UNL     1       0.019   4.441   0.512  0.00  0.00    +0.031 A 
ATOM     11  C   UNL     1       1.266   3.810   0.550  0.00  0.00    +0.012 A 
ATOM     12  C   UNL     1       1.345   2.438   0.492  0.00  0.00    +0.001 A 
ATOM     13  C   UNL     1       0.192   1.670   0.395  0.00  0.00    +0.001 A 
ATOM     14  C   UNL     1      -1.046   2.267   0.351  0.00  0.00    +0.012 A 
ATOM     15  C   UNL     1      -1.159   3.661   0.414  0.00  0.00    +0.033 A 
ATOM     16  C   UNL     1      -2.506   4.272   0.370  0.00  0.00    +0.196 C 
ATOM     17  O   UNL     1      -3.508   3.580   0.284  0.00  0.00    -0.287 OA
ENDROOT
BRANCH   1  23
ATOM     18  C   UNL     1      -3.855  12.394   3.232  0.00  0.00    +0.009 C 
ATOM     19  C   UNL     1      -3.135  11.921   1.968  0.00  0.00    +0.003 C 
ATOM     20  C   UNL     1      -3.784  12.562   0.739  0.00  0.00    +0.009 C 
ATOM     21  C   UNL     1      -3.097  12.038  -0.524  0.00  0.00    +0.003 C 
ATOM     22  C   UNL     1      -3.204  10.511  -0.561  0.00  0.00    +0.108 C 
ATOM     23  N   UNL     1      -2.568   9.945   0.635  0.00  0.00    -0.328 N 
ATOM     24  C   UNL     1      -3.241  10.398   1.859  0.00  0.00    +0.108 C 
ATOM     25  C   UNL     1      -1.622  12.445  -0.510  0.00  0.00    +0.009 C 
ENDBRANCH   1  23
BRANCH   3  26
ATOM     26  N   UNL     1      -5.001   5.821   0.311  0.00  0.00    -0.345 N 
ATOM     27  H   UNL     1      -5.050   4.854   0.262  0.00  0.00    +0.146 HD
BRANCH  26  28
ATOM     28  C   UNL     1      -6.229   6.619   0.284  0.00  0.00    +0.083 C 
BRANCH  28  29
ATOM     29  C   UNL     1      -7.440   5.689   0.175  0.00  0.00    -0.060 C 
BRANCH  29  31
ATOM     30  C   UNL     1      -8.744   7.303  -1.073  0.00  0.00    -0.096 C 
ATOM     31  N   UNL     1      -8.671   6.508   0.171  0.00  0.00    +0.380 N 
ATOM     32  H   UNL     1      -8.649   7.147   0.974  0.00  0.00    -0.082 HD
BRANCH  31  33
ATOM     33  C   UNL     1      -9.858   5.635   0.284  0.00  0.00    -0.051 C 
BRANCH  33  34
ATOM     34  C   UNL     1     -10.004   5.191   1.741  0.00  0.00    +0.137 C 
BRANCH  34  35
ATOM     35  O   UNL     1     -10.251   6.333   2.563  0.00  0.00    -0.397 OA
ATOM     36  H   UNL     1     -10.355   6.127   3.502  0.00  0.00    +0.209 HD
ENDBRANCH  34  35
ENDBRANCH  33  34
ENDBRANCH  31  33
ENDBRANCH  29  31
ENDBRANCH  28  29
ENDBRANCH  26  28
ENDBRANCH   3  26
TORSDOF 8
