REMARK  Name = ZINC09809616
REMARK  11 active torsions:
REMARK  status: ('A' for Active; 'I' for Inactive)
REMARK    1  A    between atoms: C_1  and  C_2
REMARK    2  A    between atoms: C_2  and  O_3
REMARK    3  A    between atoms: O_3  and  C_4
REMARK    4  A    between atoms: C_4  and  C_6
REMARK    5  A    between atoms: C_6  and  N_7
REMARK    6  A    between atoms: C_11  and  S_32
REMARK    7  A    between atoms: N_16  and  C_17
REMARK    8  A    between atoms: C_17  and  C_19
REMARK    9  A    between atoms: C_23  and  O_25
REMARK   10  A    between atoms: O_25  and  C_26
REMARK   11  A    between atoms: S_32  and  N_35
REMARK                            x       y       z     vdW  Elec       q    Type
REMARK                         _______ _______ _______ _____ _____    ______ ____
ROOT
ATOM      1  N   UNL     1      -1.433   2.501   0.875  0.00  0.00    -0.310 N 
ATOM      2  C   UNL     1      -0.259   1.772   0.911  0.00  0.00    +0.058 A 
ATOM      3  C   UNL     1      -0.099   0.378   0.912  0.00  0.00    +0.029 A 
ATOM      4  C   UNL     1       1.154  -0.186   0.945  0.00  0.00    +0.030 A 
ATOM      5  C   UNL     1       2.294   0.599   0.978  0.00  0.00    +0.106 A 
ATOM      6  C   UNL     1       2.166   1.977   0.977  0.00  0.00    +0.045 A 
ATOM      7  C   UNL     1       0.913   2.542   0.945  0.00  0.00    +0.041 A 
ATOM      8  S   UNL     1       0.306   4.210   0.931  0.00  0.00    -0.052 S 
ATOM      9  C   UNL     1      -1.392   3.861   0.884  0.00  0.00    +0.167 A 
ATOM     10  N   UNL     1      -2.409   4.716   0.858  0.00  0.00    -0.152 NA
ENDROOT
BRANCH   5  11
ATOM     11  S   UNL     1       3.890  -0.148   1.020  0.00  0.00    +0.056 S 
ATOM     12  O   UNL     1       4.770   0.807   1.597  0.00  0.00    -0.153 OA
ATOM     13  O   UNL     1       3.715  -1.449   1.564  0.00  0.00    -0.153 OA
BRANCH  11  14
ATOM     14  N   UNL     1       4.376  -0.352  -0.550  0.00  0.00    -0.204 NA
ATOM     15  H   UNL     1       3.799  -0.072  -1.277  0.00  0.00    +0.144 HD
ATOM     16  H   UNL     1       5.239  -0.753  -0.742  0.00  0.00    +0.144 HD
ENDBRANCH  11  14
ENDBRANCH   5  11
BRANCH  10  17
ATOM     17  C   UNL     1      -2.175   6.032   0.867  0.00  0.00    +0.270 C 
ATOM     18  O   UNL     1      -1.030   6.448   0.900  0.00  0.00    -0.268 OA
BRANCH  17  19
ATOM     19  C   UNL     1      -3.309   6.986   0.838  0.00  0.00    +0.042 A 
ATOM     20  C   UNL     1      -4.620   6.512   0.801  0.00  0.00    +0.013 A 
ATOM     21  C   UNL     1      -5.674   7.403   0.773  0.00  0.00    +0.004 A 
ATOM     22  C   UNL     1      -5.435   8.764   0.783  0.00  0.00    +0.046 A 
ATOM     23  C   UNL     1      -4.132   9.244   0.821  0.00  0.00    +0.129 A 
ATOM     24  C   UNL     1      -3.068   8.358   0.853  0.00  0.00    +0.059 A 
BRANCH  23  25
ATOM     25  O   UNL     1      -3.902  10.584   0.831  0.00  0.00    -0.456 OA
BRANCH  25  26
ATOM     26  C   UNL     1      -3.508  11.172  -0.329  0.00  0.00    +0.128 A 
ATOM     27  C   UNL     1      -3.475  10.437  -1.505  0.00  0.00    +0.046 A 
ATOM     28  C   UNL     1      -3.080  11.039  -2.684  0.00  0.00    +0.004 A 
ATOM     29  C   UNL     1      -2.706  12.370  -2.691  0.00  0.00    +0.000 A 
ATOM     30  C   UNL     1      -2.732  13.103  -1.519  0.00  0.00    +0.004 A 
ATOM     31  C   UNL     1      -3.132  12.508  -0.338  0.00  0.00    +0.046 A 
ENDBRANCH  25  26
ENDBRANCH  23  25
ENDBRANCH  17  19
ENDBRANCH  10  17
BRANCH   1  32
ATOM     32  C   UNL     1      -2.723   1.808   0.833  0.00  0.00    +0.244 C 
BRANCH  32  33
ATOM     33  C   UNL     1      -3.703   2.514   1.735  0.00  0.00    +0.327 C 
ATOM     34  O   UNL     1      -3.316   3.370   2.494  0.00  0.00    -0.249 OA
BRANCH  33  35
ATOM     35  O   UNL     1      -5.005   2.191   1.695  0.00  0.00    -0.464 OA
BRANCH  35  37
ATOM     36  C   UNL     1      -7.324   2.410   2.404  0.00  0.00    +0.048 C 
ATOM     37  C   UNL     1      -5.891   2.912   2.591  0.00  0.00    +0.229 C 
ENDBRANCH  35  37
ENDBRANCH  33  35
ENDBRANCH  32  33
ENDBRANCH   1  32
TORSDOF 10
