REMARK  Name = ZINC36408650
REMARK  11 active torsions:
REMARK  status: ('A' for Active; 'I' for Inactive)
REMARK    1  A    between atoms: C_1  and  C_2
REMARK    2  A    between atoms: C_6  and  C_31
REMARK    3  A    between atoms: C_8  and  O_11
REMARK    4  A    between atoms: O_11  and  C_12
REMARK    5  A    between atoms: N_14  and  C_15
REMARK    6  A    between atoms: C_15  and  C_17
REMARK    7  A    between atoms: C_15  and  N_21
REMARK    8  A    between atoms: N_21  and  C_22
REMARK    9  A    between atoms: C_25  and  N_28
REMARK   10  A    between atoms: C_31  and  C_32
REMARK   11  A    between atoms: C_31  and  C_33
REMARK                            x       y       z     vdW  Elec       q    Type
REMARK                         _______ _______ _______ _____ _____    ______ ____
ROOT
ATOM      1  C   UNL     1       4.866  -3.297   3.164  0.00  0.00    +0.213 C 
ENDROOT
BRANCH   1   4
ATOM      2  C   UNL     1       2.808  -2.623   2.048  0.00  0.00    +0.402 C 
ATOM      3  O   UNL     1       3.451  -2.445   1.033  0.00  0.00    -0.226 OA
ATOM      4  N   UNL     1       3.422  -3.049   3.169  0.00  0.00    -0.259 N 
ATOM      5  H   UNL     1       2.908  -3.192   3.979  0.00  0.00    +0.154 HD
BRANCH   2   6
ATOM      6  O   UNL     1       1.481  -2.395   2.052  0.00  0.00    -0.447 OA
BRANCH   6  12
ATOM      7  C   UNL     1       0.325   1.595  -0.574  0.00  0.00    +0.007 C 
ATOM      8  C   UNL     1       0.297   0.066  -0.528  0.00  0.00    -0.011 C 
ATOM      9  C   UNL     1      -1.151  -0.421  -0.610  0.00  0.00    +0.004 C 
ATOM     10  C   UNL     1      -1.179  -1.950  -0.564  0.00  0.00    +0.007 C 
ATOM     11  C   UNL     1      -0.552  -2.432   0.746  0.00  0.00    +0.032 C 
ATOM     12  C   UNL     1       0.896  -1.945   0.828  0.00  0.00    +0.182 C 
ATOM     13  C   UNL     1       0.923  -0.416   0.782  0.00  0.00    +0.048 C 
BRANCH  11  14
ATOM     14  C   UNL     1      -0.580  -3.961   0.792  0.00  0.00    -0.011 C 
ATOM     15  C   UNL     1      -2.031  -4.443   0.852  0.00  0.00    +0.007 C 
ATOM     16  C   UNL     1       0.092  -4.521  -0.463  0.00  0.00    +0.007 C 
ENDBRANCH  11  14
ENDBRANCH   6  12
ENDBRANCH   2   6
ENDBRANCH   1   4
BRANCH   1  17
ATOM     17  C   UNL     1       5.492  -2.689   4.421  0.00  0.00    +0.225 C 
ATOM     18 CL   UNL     1       4.757  -3.444   5.884  0.00  0.00    -0.080 Cl
ATOM     19 CL   UNL     1       7.269  -2.994   4.415  0.00  0.00    -0.080 Cl
ATOM     20 CL   UNL     1       5.187  -0.912   4.444  0.00  0.00    -0.080 Cl
ENDBRANCH   1  17
BRANCH   1  21
ATOM     21  N   UNL     1       5.113  -4.741   3.146  0.00  0.00    -0.323 N 
ATOM     22  H   UNL     1       4.994  -5.264   3.954  0.00  0.00    +0.148 HD
BRANCH  21  23
ATOM     23  C   UNL     1       5.520  -5.365   1.964  0.00  0.00    +0.029 A 
ATOM     24  C   UNL     1       5.802  -4.604   0.837  0.00  0.00    +0.025 A 
ATOM     25  C   UNL     1       6.205  -5.223  -0.330  0.00  0.00    +0.034 A 
ATOM     26  C   UNL     1       6.327  -6.600  -0.377  0.00  0.00    +0.126 A 
ATOM     27  C   UNL     1       6.048  -7.361   0.744  0.00  0.00    +0.034 A 
ATOM     28  C   UNL     1       5.649  -6.747   1.915  0.00  0.00    +0.025 A 
BRANCH  26  29
ATOM     29  N   UNL     1       6.759  -7.260  -1.629  0.00  0.00    +0.056 N 
ATOM     30  O   UNL     1       7.003  -6.597  -2.609  0.00  0.00    -0.126 OA
ATOM     31  O   UNL     1       6.867  -8.464  -1.671  0.00  0.00    -0.126 OA
ENDBRANCH  26  29
ENDBRANCH  21  23
ENDBRANCH   1  21
TORSDOF 8
