REMARK  Name = ZINC08850682
REMARK  16 active torsions:
REMARK  status: ('A' for Active; 'I' for Inactive)
REMARK    1  A    between atoms: C_1  and  C_2
REMARK    2  A    between atoms: C_2  and  O_3
REMARK    3  A    between atoms: O_3  and  C_4
REMARK    4  A    between atoms: C_6  and  C_18
REMARK    5  A    between atoms: C_9  and  O_10
REMARK    6  A    between atoms: O_10  and  C_11
REMARK    7  A    between atoms: C_11  and  C_12
REMARK    8  A    between atoms: N_14  and  C_15
REMARK    9  A    between atoms: N_14  and  C_16
REMARK   10  A    between atoms: C_18  and  N_58
REMARK   11  A    between atoms: C_19  and  C_21
REMARK   12  A    between atoms: C_19  and  C_22
REMARK   13  A    between atoms: C_19  and  N_58
REMARK   14  A    between atoms: C_22  and  C_24
REMARK   15  A    between atoms: C_22  and  O_31
REMARK   16  A    between atoms: C_27  and  O_30
REMARK                            x       y       z     vdW  Elec       q    Type
REMARK                         _______ _______ _______ _____ _____    ______ ____
ROOT
ATOM      1  C   UNL     1       0.002  -0.004   0.002  0.00  0.00    +0.163 A 
ATOM      2  C   UNL     1       1.211  -0.682  -0.013  0.00  0.00    +0.051 A 
ATOM      3  C   UNL     1       1.228  -2.064  -0.021  0.00  0.00    -0.060 A 
ATOM      4  C   UNL     1       0.042  -2.774  -0.013  0.00  0.00    +0.021 A 
ATOM      5  C   UNL     1      -1.168  -2.104   0.002  0.00  0.00    +0.063 A 
ATOM      6  C   UNL     1      -1.192  -0.717   0.015  0.00  0.00    +0.176 A 
ATOM      7 BR   UNL     1      -2.789  -3.078   0.012  0.00  0.00    -0.046 Br
ENDROOT
BRANCH   1   8
ATOM      8  O   UNL     1      -0.016   1.356   0.009  0.00  0.00    -0.489 OA
BRANCH   8  10
ATOM      9  C   UNL     1       1.027   3.536   0.011  0.00  0.00    +0.048 C 
ATOM     10  C   UNL     1       1.248   2.022   0.001  0.00  0.00    +0.226 C 
ENDBRANCH   8  10
ENDBRANCH   1   8
BRANCH   6  11
ATOM     11  O   UNL     1      -2.381  -0.057   0.036  0.00  0.00    -0.478 OA
BRANCH  11  12
ATOM     12  C   UNL     1      -2.966   0.266  -1.227  0.00  0.00    +0.325 C 
BRANCH  12  13
ATOM     13  C   UNL     1      -4.269   0.991  -1.007  0.00  0.00    +0.253 C 
ATOM     14  O   UNL     1      -4.658   1.210   0.120  0.00  0.00    -0.272 OA
ATOM     15  N   UNL     1      -5.001   1.395  -2.064  0.00  0.00    -0.305 N 
ATOM     16  C   UNL     1      -6.268   2.100  -1.850  0.00  0.00    +0.131 C 
ATOM     17  C   UNL     1      -4.532   1.130  -3.426  0.00  0.00    +0.131 C 
ENDBRANCH  12  13
ENDBRANCH  11  12
ENDBRANCH   6  11
BRANCH   3  18
ATOM     18  C   UNL     1       2.544  -2.799  -0.038  0.00  0.00    -0.046 C 
BRANCH  18  19
ATOM     19  N   UNL     1       2.979  -3.043   1.350  0.00  0.00    +0.385 N 
ATOM     20  H   UNL     1       2.271  -3.607   1.834  0.00  0.00    -0.085 HD
ATOM     21  H   UNL     1       3.089  -2.143   1.833  0.00  0.00    -0.085 HD
BRANCH  19  22
ATOM     22  C   UNL     1       4.267  -3.762   1.364  0.00  0.00    -0.041 C 
ATOM     23  C   UNL     1       4.013  -5.266   1.246  0.00  0.00    -0.011 C 
BRANCH  22  24
ATOM     24  C   UNL     1       4.992  -3.469   2.679  0.00  0.00    +0.130 C 
BRANCH  24  25
ATOM     25  C   UNL     1       6.359  -4.103   2.652  0.00  0.00    -0.020 A 
ATOM     26  C   UNL     1       6.499  -5.452   2.921  0.00  0.00    +0.009 A 
ATOM     27  C   UNL     1       7.750  -6.037   2.890  0.00  0.00    +0.046 A 
ATOM     28  C   UNL     1       8.868  -5.268   2.601  0.00  0.00    +0.117 A 
ATOM     29  C   UNL     1       8.725  -3.913   2.337  0.00  0.00    +0.046 A 
ATOM     30  C   UNL     1       7.471  -3.334   2.363  0.00  0.00    +0.009 A 
BRANCH  28  31
ATOM     31  O   UNL     1      10.100  -5.839   2.577  0.00  0.00    -0.507 OA
ATOM     32  H   UNL     1      10.556  -5.827   3.430  0.00  0.00    +0.292 HD
ENDBRANCH  28  31
ENDBRANCH  24  25
BRANCH  24  33
ATOM     33  O   UNL     1       4.239  -4.006   3.768  0.00  0.00    -0.389 OA
ATOM     34  H   UNL     1       4.109  -4.963   3.722  0.00  0.00    +0.210 HD
ENDBRANCH  24  33
ENDBRANCH  22  24
ENDBRANCH  19  22
ENDBRANCH  18  19
ENDBRANCH   3  18
TORSDOF 12
