REMARK  Name = ZINC63831633
REMARK  9 active torsions:
REMARK  status: ('A' for Active; 'I' for Inactive)
REMARK    1  A    between atoms: C_1  and  C_2
REMARK    2  A    between atoms: C_2  and  C_4
REMARK    3  A    between atoms: C_2  and  N_10
REMARK    4  A    between atoms: N_10  and  S_11
REMARK    5  A    between atoms: S_11  and  C_14
REMARK    6  A    between atoms: C_18  and  C_20
REMARK    7  A    between atoms: N_22  and  C_23
REMARK    8  A    between atoms: C_23  and  C_24
REMARK    9  A    between atoms: C_24  and  C_25
REMARK                            x       y       z     vdW  Elec       q    Type
REMARK                         _______ _______ _______ _____ _____    ______ ____
ROOT
ATOM      1  C   UNL     1      -0.951   0.603  -3.133  0.00  0.00    +0.106 A 
ATOM      2  C   UNL     1      -2.204   0.962  -2.669  0.00  0.00    +0.028 A 
ATOM      3  C   UNL     1      -2.810   2.120  -3.120  0.00  0.00    +0.003 A 
ATOM      4  C   UNL     1      -2.167   2.927  -4.036  0.00  0.00    +0.013 A 
ATOM      5  C   UNL     1      -0.903   2.571  -4.508  0.00  0.00    +0.039 A 
ATOM      6  C   UNL     1      -0.295   1.403  -4.045  0.00  0.00    +0.041 A 
ENDROOT
BRANCH   5   7
ATOM      7  C   UNL     1      -0.208   3.430  -5.491  0.00  0.00    +0.244 C 
ATOM      8  O   UNL     1       0.893   3.118  -5.900  0.00  0.00    -0.270 OA
ATOM      9  N   UNL     1      -0.796   4.560  -5.933  0.00  0.00    -0.311 N 
ATOM     10  H   UNL     1      -1.675   4.809  -5.606  0.00  0.00    +0.149 HD
BRANCH   9  11
ATOM     11  C   UNL     1      -0.108   5.411  -6.907  0.00  0.00    +0.109 C 
BRANCH  11  12
ATOM     12  C   UNL     1      -0.986   6.619  -7.238  0.00  0.00    +0.052 C 
BRANCH  12  13
ATOM     13  C   UNL     1      -0.279   7.495  -8.240  0.00  0.00    -0.040 C 
ATOM     14  C   UNL     1      -0.429   7.479  -9.584  0.00  0.00    -0.001 A 
ATOM     15  C   UNL     1      -1.264   6.671 -10.481  0.00  0.00    +0.010 A 
ATOM     16  C   UNL     1      -1.196   6.890 -11.814  0.00  0.00    +0.001 A 
ATOM     17  C   UNL     1      -0.350   7.866 -12.359  0.00  0.00    +0.002 A 
ATOM     18  C   UNL     1       0.447   8.646 -11.599  0.00  0.00    +0.026 A 
ATOM     19  C   UNL     1       0.455   8.503 -10.184  0.00  0.00    +0.043 A 
ATOM     20  N   UNL     1       1.127   9.128  -9.247  0.00  0.00    -0.380 N 
ATOM     21  C   UNL     1       0.739   8.574  -7.945  0.00  0.00    +0.144 C 
ATOM     22  H   UNL     1       1.770   9.840  -9.391  0.00  0.00    +0.160 HD
ENDBRANCH  12  13
ENDBRANCH  11  12
ENDBRANCH   9  11
ENDBRANCH   5   7
BRANCH   1  23
ATOM     23  S   UNL     1      -0.188  -0.875  -2.551  0.00  0.00    +0.059 S 
ATOM     24  O   UNL     1       0.751  -1.265  -3.545  0.00  0.00    -0.153 OA
ATOM     25  O   UNL     1      -1.236  -1.730  -2.117  0.00  0.00    -0.153 OA
BRANCH  23  26
ATOM     26  N   UNL     1       0.688  -0.476  -1.203  0.00  0.00    -0.183 NA
ATOM     27  H   UNL     1       1.655  -0.556  -1.212  0.00  0.00    +0.149 HD
BRANCH  26  29
ATOM     28  C   UNL     1      -0.019   1.526   0.010  0.00  0.00    +0.031 C 
ATOM     29  C   UNL     1       0.002  -0.004   0.002  0.00  0.00    +0.103 C 
BRANCH  29  30
ATOM     30  C   UNL     1       0.731  -0.503   1.223  0.00  0.00    -0.029 A 
ATOM     31  C   UNL     1       2.113  -0.514   1.247  0.00  0.00    +0.005 A 
ATOM     32  C   UNL     1       2.782  -0.972   2.366  0.00  0.00    +0.000 A 
ATOM     33  C   UNL     1       2.068  -1.419   3.463  0.00  0.00    +0.000 A 
ATOM     34  C   UNL     1       0.686  -1.407   3.439  0.00  0.00    +0.000 A 
ATOM     35  C   UNL     1       0.017  -0.945   2.321  0.00  0.00    +0.005 A 
ENDBRANCH  29  30
ENDBRANCH  26  29
ENDBRANCH  23  26
ENDBRANCH   1  23
TORSDOF 8
