REMARK  Name = ZINC37556268
REMARK  6 active torsions:
REMARK  status: ('A' for Active; 'I' for Inactive)
REMARK    1  A    between atoms: C_6  and  S_11
REMARK    2  A    between atoms: C_7  and  N_9
REMARK    3  A    between atoms: N_9  and  N_10
REMARK    4  A    between atoms: S_11  and  N_14
REMARK    5  A    between atoms: N_14  and  C_15
REMARK    6  A    between atoms: C_15  and  C_16
REMARK                            x       y       z     vdW  Elec       q    Type
REMARK                         _______ _______ _______ _____ _____    ______ ____
ROOT
ATOM      1  C   UNL     1      -0.017   1.373   0.010  0.00  0.00    +0.102 A 
ATOM      2  C   UNL     1       1.118   2.071   0.003  0.00  0.00    +0.067 A 
ATOM      3  S   UNL     1       2.347   0.775  -0.016  0.00  0.00    -0.058 S 
ATOM      4  C   UNL     1       1.231  -0.608  -0.013  0.00  0.00    +0.181 A 
ATOM      5  N   UNL     1       0.002  -0.004   0.002  0.00  0.00    -0.276 N 
ATOM      6  C   UNL     1      -0.915  -1.059   0.005  0.00  0.00    +0.222 A 
ATOM      7  C   UNL     1      -0.211  -2.210  -0.008  0.00  0.00    +0.179 A 
ATOM      8  N   UNL     1       1.097  -1.904  -0.018  0.00  0.00    -0.203 NA
ENDROOT
BRANCH   6   9
ATOM      9  S   UNL     1      -2.671  -0.912   0.022  0.00  0.00    +0.078 S 
ATOM     10  O   UNL     1      -3.174  -2.123   0.571  0.00  0.00    -0.151 OA
ATOM     11  O   UNL     1      -2.966   0.359   0.584  0.00  0.00    -0.151 OA
BRANCH   9  12
ATOM     12  N   UNL     1      -3.174  -0.862  -1.554  0.00  0.00    -0.188 NA
ATOM     13  H   UNL     1      -3.595  -0.061  -1.904  0.00  0.00    +0.148 HD
BRANCH  12  14
ATOM     14  C   UNL     1      -2.983  -2.027  -2.421  0.00  0.00    +0.109 C 
BRANCH  14  15
ATOM     15  C   UNL     1      -3.845  -1.875  -3.677  0.00  0.00    +0.005 C 
ATOM     16  C   UNL     1      -5.339  -1.969  -3.307  0.00  0.00    +0.005 C 
ATOM     17  C   UNL     1      -5.977  -2.735  -4.492  0.00  0.00    +0.000 C 
ATOM     18  C   UNL     1      -4.894  -3.784  -4.843  0.00  0.00    +0.000 C 
ATOM     19  C   UNL     1      -3.561  -3.030  -4.654  0.00  0.00    +0.005 C 
ENDBRANCH  14  15
ENDBRANCH  12  14
ENDBRANCH   9  12
ENDBRANCH   6   9
BRANCH   7  20
ATOM     20  N   UNL     1      -0.753  -3.505  -0.011  0.00  0.00    -0.265 N 
ATOM     21  H   UNL     1      -1.716  -3.628  -0.002  0.00  0.00    +0.168 HD
BRANCH  20  22
ATOM     22  N   UNL     1       0.074  -4.591  -0.025  0.00  0.00    -0.255 NA
ATOM     23  H   UNL     1       0.719  -4.565   0.751  0.00  0.00    +0.140 HD
ATOM     24  H   UNL     1      -0.456  -5.450  -0.025  0.00  0.00    +0.140 HD
ENDBRANCH  20  22
ENDBRANCH   7  20
TORSDOF 6
