REMARK  Name = ZINC20673963
REMARK  3 active torsions:
REMARK  status: ('A' for Active; 'I' for Inactive)
REMARK    1  A    between atoms: C_1  and  O_2
REMARK    2  A    between atoms: O_2  and  C_3
REMARK    3  A    between atoms: C_8  and  C_9
REMARK                            x       y       z     vdW  Elec       q    Type
REMARK                         _______ _______ _______ _____ _____    ______ ____
ROOT
ATOM      1  C   UNL     1       0.002  -0.004   0.002  0.00  0.00    +0.096 C 
ATOM      2  C   UNL     1      -0.711  -0.498  -1.221  0.00  0.00    +0.069 A 
ATOM      3  C   UNL     1      -0.084  -0.458  -2.472  0.00  0.00    +0.259 A 
ATOM      4  O   UNL     1       1.052  -0.024  -2.584  0.00  0.00    -0.267 OA
ATOM      5  N   UNL     1      -0.758  -0.908  -3.551  0.00  0.00    -0.295 N 
ATOM      6  H   UNL     1      -0.284  -0.886  -4.543  0.00  0.00    +0.172 HD
ATOM      7  C   UNL     1      -2.024  -1.388  -3.415  0.00  0.00    +0.200 A 
ATOM      8  N   UNL     1      -2.619  -1.429  -2.241  0.00  0.00    -0.200 NA
ATOM      9  C   UNL     1      -1.998  -0.999  -1.137  0.00  0.00    +0.136 A 
ATOM     10  N   UNL     1      -2.631  -1.056   0.089  0.00  0.00    -0.302 N 
ATOM     11  C   UNL     1      -1.908  -1.004   1.249  0.00  0.00    +0.017 C 
ATOM     12  C   UNL     1      -0.651  -0.513   1.262  0.00  0.00    +0.024 C 
ATOM     13  C   UNL     1       0.093  -0.457   2.455  0.00  0.00    +0.162 C 
ATOM     14  O   UNL     1       1.228  -0.026   2.429  0.00  0.00    -0.292 OA
ATOM     15  C   UNL     1      -0.490  -0.921   3.761  0.00  0.00    +0.080 C 
ATOM     16  C   UNL     1      -2.011  -0.745   3.718  0.00  0.00    +0.014 C 
ATOM     17  C   UNL     1      -2.554  -1.517   2.514  0.00  0.00    +0.051 C 
ATOM     18  N   UNL     1      -2.693  -1.838  -4.522  0.00  0.00    -0.301 N 
ATOM     19  C   UNL     1      -2.650  -0.844  -5.602  0.00  0.00    +0.108 C 
ATOM     20  C   UNL     1      -3.278  -1.435  -6.866  0.00  0.00    +0.019 C 
ATOM     21  C   UNL     1      -4.727  -1.835  -6.572  0.00  0.00    +0.003 C 
ATOM     22  C   UNL     1      -4.747  -2.833  -5.411  0.00  0.00    +0.019 C 
ATOM     23  C   UNL     1      -4.076  -2.201  -4.189  0.00  0.00    +0.108 C 
ATOM     24  H   UNL     1      -3.727  -1.143   0.139  0.00  0.00    +0.153 HD
ENDROOT
BRANCH   1  30
ATOM     25  C   UNL     1       1.173   2.213   0.003  0.00  0.00    +0.124 A 
ATOM     26  C   UNL     1       1.151   3.600   0.010  0.00  0.00    +0.046 A 
ATOM     27  C   UNL     1      -0.057   4.271   0.025  0.00  0.00    +0.004 A 
ATOM     28  C   UNL     1      -1.243   3.560   0.032  0.00  0.00    +0.001 A 
ATOM     29  C   UNL     1      -1.224   2.178   0.020  0.00  0.00    +0.008 A 
ATOM     30  C   UNL     1      -0.018   1.503   0.010  0.00  0.00    +0.006 A 
BRANCH  25  32
ATOM     31  C   UNL     1       3.546   2.348  -0.018  0.00  0.00    +0.277 C 
ATOM     32  O   UNL     1       2.360   1.552  -0.011  0.00  0.00    -0.495 OA
ENDBRANCH  25  32
ENDBRANCH   1  30
TORSDOF 2
