REMARK  Name = ZINC39449415
REMARK  6 active torsions:
REMARK  status: ('A' for Active; 'I' for Inactive)
REMARK    1  A    between atoms: C_1  and  C_2
REMARK    2  A    between atoms: C_2  and  C_3
REMARK    3  A    between atoms: C_2  and  S_4
REMARK    4  A    between atoms: S_4  and  C_7
REMARK    5  A    between atoms: C_20  and  C_23
REMARK    6  A    between atoms: C_28  and  O_29
REMARK                            x       y       z     vdW  Elec       q    Type
REMARK                         _______ _______ _______ _____ _____    ______ ____
ROOT
ATOM      1  C   UNL     1      -1.480  -2.469  -0.114  0.00  0.00    +0.107 A 
ATOM      2  C   UNL     1      -1.389  -3.301  -1.217  0.00  0.00    +0.044 A 
ATOM      3  C   UNL     1      -1.272  -4.673  -0.994  0.00  0.00    +0.071 A 
ATOM      4  C   UNL     1      -1.252  -5.157   0.333  0.00  0.00    +0.099 A 
ATOM      5  C   UNL     1      -1.130  -6.606   0.541  0.00  0.00    +0.084 A 
ATOM      6  C   UNL     1      -1.035  -7.451  -0.549  0.00  0.00    +0.144 A 
ATOM      7  N   UNL     1      -1.060  -6.949  -1.844  0.00  0.00    -0.136 N 
ATOM      8  C   UNL     1      -1.171  -5.633  -2.102  0.00  0.00    +0.289 A 
ATOM      9  O   UNL     1      -1.187  -5.238  -3.253  0.00  0.00    -0.265 OA
ATOM     10  F   UNL     1      -0.973  -7.779  -2.841  0.00  0.00    -0.090 F 
ATOM     11  C   UNL     1      -0.907  -8.845  -0.349  0.00  0.00    +0.186 C 
ATOM     12  O   UNL     1      -0.873  -9.590  -1.308  0.00  0.00    -0.290 OA
ATOM     13  C   UNL     1      -0.811  -9.415   1.042  0.00  0.00    +0.108 C 
ATOM     14  C   UNL     1      -1.576  -8.511   2.015  0.00  0.00    +0.112 C 
ATOM     15  N   UNL     1      -1.113  -7.128   1.820  0.00  0.00    -0.333 N 
ATOM     16  N   UNL     1      -1.343  -4.313   1.352  0.00  0.00    -0.251 NA
ATOM     17  C   UNL     1      -1.448  -3.015   1.161  0.00  0.00    +0.138 A 
ATOM     18  H   UNL     1      -0.804  -6.597   2.571  0.00  0.00    +0.147 HD
ENDROOT
BRANCH  14  19
ATOM     19  C   UNL     1      -3.054  -8.598   1.734  0.00  0.00    +0.014 A 
ATOM     20  C   UNL     1      -3.688  -7.582   1.045  0.00  0.00    +0.009 A 
ATOM     21  C   UNL     1      -5.043  -7.660   0.787  0.00  0.00    +0.001 A 
ATOM     22  C   UNL     1      -5.769  -8.756   1.218  0.00  0.00    +0.004 A 
ATOM     23  C   UNL     1      -5.140  -9.775   1.906  0.00  0.00    +0.046 A 
ATOM     24  C   UNL     1      -3.779  -9.701   2.162  0.00  0.00    +0.122 A 
BRANCH  24  25
ATOM     25  O   UNL     1      -3.156 -10.704   2.834  0.00  0.00    -0.506 OA
ATOM     26  H   UNL     1      -3.146 -10.587   3.794  0.00  0.00    +0.292 HD
ENDBRANCH  24  25
ENDBRANCH  14  19
BRANCH   1  27
ATOM     27  S   UNL     1      -1.629  -0.727  -0.329  0.00  0.00    +0.001 S 
ATOM     28  O   UNL     1      -2.288  -0.272   0.845  0.00  0.00    -0.169 OA
ATOM     29  O   UNL     1      -2.232  -0.569  -1.606  0.00  0.00    -0.169 OA
BRANCH  27  31
ATOM     30  C   UNL     1       0.070   1.415  -0.423  0.00  0.00    +0.032 C 
ATOM     31  C   UNL     1       0.078  -0.114  -0.364  0.00  0.00    +0.130 C 
ATOM     32  C   UNL     1       0.811  -0.572   0.898  0.00  0.00    +0.032 C 
ENDBRANCH  27  31
ENDBRANCH   1  27
TORSDOF 4
