REMARK  Name = ZINC13520715
REMARK  9 active torsions:
REMARK  status: ('A' for Active; 'I' for Inactive)
REMARK    1  A    between atoms: C_1  and  C_2
REMARK    2  A    between atoms: C_2  and  C_26
REMARK    3  A    between atoms: N_5  and  N_6
REMARK    4  A    between atoms: N_6  and  C_7
REMARK    5  A    between atoms: C_7  and  N_9
REMARK    6  A    between atoms: N_9  and  C_10
REMARK    7  A    between atoms: C_15  and  O_16
REMARK    8  A    between atoms: O_16  and  C_17
REMARK    9  A    between atoms: C_20  and  O_25
REMARK                            x       y       z     vdW  Elec       q    Type
REMARK                         _______ _______ _______ _____ _____    ______ ____
ROOT
ATOM      1  C   UNL     1      -0.301   1.306  -0.257  0.00  0.00    +0.056 C 
ATOM      2  C   UNL     1      -0.019  -0.187  -0.079  0.00  0.00    +0.111 C 
ATOM      3  C   UNL     1       0.867  -0.682  -1.231  0.00  0.00    +0.105 C 
ATOM      4  C   UNL     1       2.170   0.095  -1.159  0.00  0.00    +0.074 C 
ATOM      5  N   UNL     1       2.769   0.524  -2.228  0.00  0.00    -0.185 NA
ATOM      6  C   UNL     1       2.720   0.338   0.193  0.00  0.00    +0.043 A 
ATOM      7  C   UNL     1       4.017   0.818   0.355  0.00  0.00    +0.058 A 
ATOM      8  C   UNL     1       4.509   1.041   1.631  0.00  0.00    +0.118 A 
ATOM      9  C   UNL     1       3.709   0.788   2.737  0.00  0.00    +0.049 A 
ATOM     10  C   UNL     1       2.422   0.311   2.579  0.00  0.00    +0.050 A 
ATOM     11  C   UNL     1       1.915   0.079   1.310  0.00  0.00    +0.130 A 
ATOM     12  O   UNL     1       0.655  -0.400   1.161  0.00  0.00    -0.485 OA
ATOM     13  C   UNL     1      -1.340  -0.960  -0.081  0.00  0.00    +0.056 C 
ENDROOT
BRANCH   5  14
ATOM     14  N   UNL     1       2.214   0.273  -3.490  0.00  0.00    -0.218 N 
ATOM     15  H   UNL     1       1.383  -0.221  -3.566  0.00  0.00    +0.176 HD
BRANCH  14  16
ATOM     16  C   UNL     1       2.836   0.718  -4.600  0.00  0.00    +0.154 C 
ATOM     17  S   UNL     1       2.159   0.412  -6.142  0.00  0.00    -0.017 S 
BRANCH  16  18
ATOM     18  N   UNL     1       3.991   1.405  -4.495  0.00  0.00    -0.293 N 
ATOM     19  H   UNL     1       4.343   1.633  -3.620  0.00  0.00    +0.154 HD
BRANCH  18  20
ATOM     20  C   UNL     1       4.685   1.789  -5.651  0.00  0.00    +0.075 A 
ATOM     21  C   UNL     1       4.006   2.389  -6.702  0.00  0.00    +0.027 A 
ATOM     22  C   UNL     1       4.692   2.767  -7.840  0.00  0.00    +0.002 A 
ATOM     23  C   UNL     1       6.054   2.549  -7.935  0.00  0.00    +0.004 A 
ATOM     24  C   UNL     1       6.737   1.952  -6.891  0.00  0.00    +0.047 A 
ATOM     25  C   UNL     1       6.058   1.576  -5.744  0.00  0.00    +0.141 A 
BRANCH  25  26
ATOM     26  O   UNL     1       6.729   0.994  -4.715  0.00  0.00    -0.493 OA
ATOM     27  C   UNL     1       8.136   0.807  -4.881  0.00  0.00    +0.277 C 
ENDBRANCH  25  26
ENDBRANCH  18  20
ENDBRANCH  16  18
ENDBRANCH  14  16
ENDBRANCH   5  14
BRANCH   8  28
ATOM     28  O   UNL     1       5.774   1.509   1.799  0.00  0.00    -0.507 OA
ATOM     29  H   UNL     1       5.838   2.474   1.819  0.00  0.00    +0.292 HD
ENDBRANCH   8  28
TORSDOF 6
