REMARK  Name = ZINC12402410
REMARK  6 active torsions:
REMARK  status: ('A' for Active; 'I' for Inactive)
REMARK    1  A    between atoms: C_1  and  C_2
REMARK    2  A    between atoms: C_2  and  C_36
REMARK    3  A    between atoms: C_6  and  C_19
REMARK    4  A    between atoms: C_30  and  C_32
REMARK    5  A    between atoms: C_32  and  O_34
REMARK    6  A    between atoms: O_34  and  C_35
REMARK                            x       y       z     vdW  Elec       q    Type
REMARK                         _______ _______ _______ _____ _____    ______ ____
ROOT
ATOM      1  C   UNL     1      -3.183  10.818  -0.293  0.00  0.00    +0.012 C 
ATOM      2  C   UNL     1      -3.720   9.386  -0.236  0.00  0.00    -0.010 C 
ATOM      3  C   UNL     1      -5.061   9.310  -0.971  0.00  0.00    +0.058 C 
ATOM      4  C   UNL     1      -5.565   7.887  -0.959  0.00  0.00    +0.016 C 
ATOM      5  C   UNL     1      -4.707   6.844  -0.947  0.00  0.00    +0.025 C 
ATOM      6  C   UNL     1      -5.205   5.422  -0.935  0.00  0.00    +0.086 C 
ATOM      7  C   UNL     1      -6.640   5.336  -1.369  0.00  0.00    -0.005 A 
ATOM      8  C   UNL     1      -7.177   4.104  -1.778  0.00  0.00    +0.006 A 
ATOM      9  C   UNL     1      -6.388   2.938  -1.803  0.00  0.00    +0.012 A 
ATOM     10  C   UNL     1      -6.975   1.772  -2.204  0.00  0.00    +0.020 A 
ATOM     11  C   UNL     1      -8.319   1.761  -2.575  0.00  0.00    +0.111 A 
ATOM     12  N   UNL     1      -9.049   2.850  -2.553  0.00  0.00    -0.255 NA
ATOM     13  C   UNL     1      -8.536   4.024  -2.171  0.00  0.00    +0.071 A 
ATOM     14  C   UNL     1      -9.327   5.187  -2.154  0.00  0.00    +0.030 A 
ATOM     15  C   UNL     1      -8.784   6.370  -1.765  0.00  0.00    +0.025 A 
ATOM     16  C   UNL     1      -7.443   6.454  -1.366  0.00  0.00    +0.036 A 
ATOM     17  N   UNL     1      -6.914   7.681  -0.966  0.00  0.00    -0.317 N 
ATOM     18  C   UNL     1      -3.317   7.051  -0.938  0.00  0.00    +0.176 C 
ATOM     19  O   UNL     1      -2.571   6.092  -0.938  0.00  0.00    -0.291 OA
ATOM     20  C   UNL     1      -2.735   8.438  -0.928  0.00  0.00    +0.174 C 
ATOM     21  C   UNL     1      -3.907   8.963   1.222  0.00  0.00    +0.012 C 
ATOM     22  H   UNL     1      -7.511   8.395  -0.690  0.00  0.00    +0.152 HD
ENDROOT
BRANCH   6  23
ATOM     23  C   UNL     1      -5.079   4.868   0.461  0.00  0.00    -0.032 A 
ATOM     24  C   UNL     1      -5.780   5.451   1.500  0.00  0.00    +0.008 A 
ATOM     25  C   UNL     1      -5.671   4.943   2.781  0.00  0.00    +0.050 A 
ATOM     26  C   UNL     1      -4.851   3.854   3.028  0.00  0.00    +0.166 A 
ATOM     27  C   UNL     1      -4.141   3.271   1.982  0.00  0.00    +0.167 A 
ATOM     28  C   UNL     1      -4.258   3.782   0.700  0.00  0.00    +0.054 A 
ATOM     29  O   UNL     1      -3.413   2.228   2.477  0.00  0.00    -0.453 OA
ATOM     30  C   UNL     1      -3.998   1.924   3.757  0.00  0.00    +0.466 C 
ATOM     31  O   UNL     1      -4.568   3.177   4.179  0.00  0.00    -0.453 OA
ENDBRANCH   6  23
BRANCH  20  32
ATOM     32  C   UNL     1      -2.499   8.899  -2.343  0.00  0.00    +0.318 C 
ATOM     33  O   UNL     1      -3.221   8.514  -3.232  0.00  0.00    -0.250 OA
BRANCH  32  34
ATOM     34  O   UNL     1      -1.487   9.737  -2.616  0.00  0.00    -0.467 OA
ATOM     35  C   UNL     1      -1.320  10.139  -4.001  0.00  0.00    +0.280 C 
ENDBRANCH  32  34
ENDBRANCH  20  32
TORSDOF 3
