REMARK  Name = ZINC09116708
REMARK  12 active torsions:
REMARK  status: ('A' for Active; 'I' for Inactive)
REMARK    1  A    between atoms: C_1  and  C_2
REMARK    2  A    between atoms: C_5  and  S_8
REMARK    3  A    between atoms: S_8  and  N_11
REMARK    4  A    between atoms: N_11  and  C_12
REMARK    5  A    between atoms: C_12  and  C_13
REMARK    6  A    between atoms: C_13  and  C_14
REMARK    7  A    between atoms: C_20  and  S_23
REMARK    8  A    between atoms: S_23  and  C_24
REMARK    9  A    between atoms: C_24  and  C_25
REMARK   10  A    between atoms: N_27  and  C_28
REMARK   11  A    between atoms: C_31  and  C_35
REMARK   12  A    between atoms: C_33  and  C_34
REMARK                            x       y       z     vdW  Elec       q    Type
REMARK                         _______ _______ _______ _____ _____    ______ ____
ROOT
ATOM      1  C   UNL     1       3.436  -3.175  -4.672  0.00  0.00    +0.156 A 
ATOM      2  N   UNL     1       3.460  -2.264  -5.614  0.00  0.00    -0.132 NA
ATOM      3  N   UNL     1       4.615  -2.245  -6.184  0.00  0.00    -0.128 NA
ATOM      4  C   UNL     1       5.390  -3.163  -5.629  0.00  0.00    +0.178 A 
ATOM      5  N   UNL     1       4.645  -3.774  -4.651  0.00  0.00    -0.196 N 
ATOM      6  N   UNL     1       5.203  -4.799  -3.884  0.00  0.00    -0.157 NA
ATOM      7  C   UNL     1       6.441  -5.187  -4.089  0.00  0.00    +0.118 A 
ATOM      8  C   UNL     1       7.231  -4.580  -5.086  0.00  0.00    +0.040 A 
ATOM      9  C   UNL     1       6.717  -3.580  -5.849  0.00  0.00    +0.053 A 
ENDROOT
BRANCH   1  10
ATOM     10  C   UNL     1       2.267  -3.499  -3.779  0.00  0.00    +0.095 C 
BRANCH  10  11
ATOM     11  C   UNL     1       2.335  -2.637  -2.516  0.00  0.00    +0.113 C 
BRANCH  11  12
ATOM     12  N   UNL     1       1.199  -2.952  -1.647  0.00  0.00    -0.190 NA
ATOM     13  H   UNL     1       0.443  -3.449  -1.998  0.00  0.00    +0.148 HD
BRANCH  12  14
ATOM     14  S   UNL     1       1.204  -2.459  -0.066  0.00  0.00    +0.058 S 
ATOM     15  O   UNL     1       2.461  -2.842   0.474  0.00  0.00    -0.153 OA
ATOM     16  O   UNL     1      -0.029  -2.887   0.496  0.00  0.00    -0.153 OA
BRANCH  14  21
ATOM     17  C   UNL     1       1.093   3.573  -0.074  0.00  0.00    +0.044 C 
ATOM     18  C   UNL     1       1.121   2.067  -0.072  0.00  0.00    -0.050 A 
ATOM     19  C   UNL     1      -0.063   1.354  -0.061  0.00  0.00    +0.005 A 
ATOM     20  C   UNL     1      -0.038  -0.029  -0.060  0.00  0.00    +0.029 A 
ATOM     21  C   UNL     1       1.171  -0.698  -0.069  0.00  0.00    +0.105 A 
ATOM     22  C   UNL     1       2.356   0.015  -0.080  0.00  0.00    +0.029 A 
ATOM     23  C   UNL     1       2.330   1.397  -0.083  0.00  0.00    +0.005 A 
ENDBRANCH  14  21
ENDBRANCH  12  14
ENDBRANCH  11  12
ENDBRANCH  10  11
ENDBRANCH   1  10
BRANCH   7  24
ATOM     24  S   UNL     1       7.122  -6.482  -3.107  0.00  0.00    -0.095 S 
BRANCH  24  25
ATOM     25  C   UNL     1       5.770  -6.941  -1.988  0.00  0.00    +0.172 C 
BRANCH  25  26
ATOM     26  C   UNL     1       6.225  -8.055  -1.081  0.00  0.00    +0.227 C 
ATOM     27  O   UNL     1       7.351  -8.495  -1.179  0.00  0.00    -0.275 OA
ATOM     28  N   UNL     1       5.381  -8.561  -0.160  0.00  0.00    -0.285 N 
ATOM     29  H   UNL     1       4.510  -8.157  -0.027  0.00  0.00    +0.155 HD
BRANCH  28  30
ATOM     30  C   UNL     1       5.763  -9.670   0.603  0.00  0.00    +0.036 A 
ATOM     31  C   UNL     1       6.716 -10.555   0.117  0.00  0.00    +0.024 A 
ATOM     32  C   UNL     1       7.091 -11.649   0.873  0.00  0.00    +0.005 A 
ATOM     33  C   UNL     1       6.517 -11.863   2.112  0.00  0.00    -0.050 A 
ATOM     34  C   UNL     1       5.568 -10.984   2.600  0.00  0.00    +0.008 A 
ATOM     35  C   UNL     1       5.193  -9.885   1.851  0.00  0.00    -0.029 A 
ATOM     36  C   UNL     1       4.163  -8.924   2.385  0.00  0.00    +0.045 C 
ATOM     37  C   UNL     1       6.928 -13.058   2.935  0.00  0.00    +0.044 C 
ENDBRANCH  28  30
ENDBRANCH  25  26
ENDBRANCH  24  25
ENDBRANCH   7  24
TORSDOF 9
