REMARK  Name = ZINC34949630
REMARK  10 active torsions:
REMARK  status: ('A' for Active; 'I' for Inactive)
REMARK    1  A    between atoms: C_1  and  C_2
REMARK    2  A    between atoms: N_11  and  C_12
REMARK    3  A    between atoms: C_18  and  C_20
REMARK    4  A    between atoms: C_20  and  C_22
REMARK    5  A    between atoms: C_20  and  N_29
REMARK    6  A    between atoms: C_22  and  C_23
REMARK    7  A    between atoms: C_30  and  C_32
REMARK    8  A    between atoms: C_32  and  C_33
REMARK    9  A    between atoms: C_32  and  C_34
REMARK   10  A    between atoms: C_32  and  C_35
REMARK                            x       y       z     vdW  Elec       q    Type
REMARK                         _______ _______ _______ _____ _____    ______ ____
ROOT
ATOM      1  C   UNL     1       0.010   1.527  -0.008  0.00  0.00    +0.030 C 
ATOM      2  C   UNL     1       0.015  -0.003  -0.006  0.00  0.00    +0.092 C 
ATOM      3  C   UNL     1       0.633  -0.518  -1.312  0.00  0.00    +0.130 C 
ATOM      4  N   UNL     1       0.866  -1.963  -1.184  0.00  0.00    -0.297 N 
ATOM      5  C   UNL     1       1.673  -2.453  -0.058  0.00  0.00    +0.127 C 
ATOM      6  C   UNL     1       1.055  -1.938   1.248  0.00  0.00    +0.128 C 
ATOM      7  N   UNL     1       0.818  -0.493   1.122  0.00  0.00    -0.280 N 
ATOM      8  C   UNL     1       1.333   0.368   2.023  0.00  0.00    +0.303 C 
ATOM      9  O   UNL     1       1.047   1.549   1.967  0.00  0.00    -0.253 OA
ATOM     10  N   UNL     1       2.163  -0.080   2.985  0.00  0.00    -0.296 N 
ATOM     11  C   UNL     1       0.350  -2.824  -2.083  0.00  0.00    +0.236 C 
ATOM     12  O   UNL     1      -0.314  -2.408  -3.009  0.00  0.00    -0.274 OA
ATOM     13  H   UNL     1       2.450  -1.006   2.986  0.00  0.00    +0.151 HD
ENDROOT
BRANCH  10  14
ATOM     14  C   UNL     1       2.633   0.833   4.030  0.00  0.00    +0.074 C 
ATOM     15  C   UNL     1       3.862   1.594   3.528  0.00  0.00    +0.022 C 
ATOM     16  C   UNL     1       4.353   2.547   4.619  0.00  0.00    +0.002 C 
ATOM     17  C   UNL     1       4.725   1.745   5.868  0.00  0.00    +0.000 C 
ATOM     18  C   UNL     1       3.496   0.985   6.370  0.00  0.00    +0.002 C 
ATOM     19  C   UNL     1       3.005   0.031   5.279  0.00  0.00    +0.022 C 
ENDBRANCH  10  14
BRANCH  11  20
ATOM     20  C   UNL     1       0.598  -4.303  -1.939  0.00  0.00    +0.163 C 
BRANCH  20  21
ATOM     21  N   UNL     1       0.372  -4.964  -3.226  0.00  0.00    -0.303 N 
ATOM     22  C   UNL     1      -0.838  -4.893  -3.817  0.00  0.00    +0.220 C 
ATOM     23  O   UNL     1      -1.739  -4.282  -3.283  0.00  0.00    -0.275 OA
ATOM     24  H   UNL     1       1.092  -5.453  -3.654  0.00  0.00    +0.149 HD
BRANCH  22  25
ATOM     25  C   UNL     1      -1.071  -5.573  -5.141  0.00  0.00    +0.055 C 
ATOM     26  C   UNL     1      -0.114  -4.995  -6.187  0.00  0.00    +0.022 C 
ATOM     27  C   UNL     1      -0.819  -7.075  -4.995  0.00  0.00    +0.022 C 
BRANCH  25  28
ATOM     28  C   UNL     1      -2.515  -5.340  -5.588  0.00  0.00    +0.124 C 
ATOM     29 CL   UNL     1      -2.794  -6.153  -7.172  0.00  0.00    -0.124 Cl
ENDBRANCH  25  28
ENDBRANCH  22  25
ENDBRANCH  20  21
BRANCH  20  30
ATOM     30  C   UNL     1      -0.358  -4.881  -0.894  0.00  0.00    +0.067 C 
BRANCH  30  31
ATOM     31  C   UNL     1      -0.029  -6.333  -0.659  0.00  0.00    -0.045 A 
ATOM     32  C   UNL     1      -0.635  -7.311  -1.425  0.00  0.00    +0.004 A 
ATOM     33  C   UNL     1      -0.333  -8.643  -1.211  0.00  0.00    +0.000 A 
ATOM     34  C   UNL     1       0.575  -8.996  -0.230  0.00  0.00    +0.000 A 
ATOM     35  C   UNL     1       1.182  -8.018   0.535  0.00  0.00    +0.000 A 
ATOM     36  C   UNL     1       0.883  -6.686   0.317  0.00  0.00    +0.004 A 
ENDBRANCH  30  31
ENDBRANCH  20  30
ENDBRANCH  11  20
TORSDOF 7
