REMARK  Name = ZINC28783611
REMARK  3 active torsions:
REMARK  status: ('A' for Active; 'I' for Inactive)
REMARK    1  A    between atoms: C_5  and  S_7
REMARK    2  A    between atoms: S_7  and  N_10
REMARK    3  A    between atoms: N_10  and  C_11
REMARK                            x       y       z     vdW  Elec       q    Type
REMARK                         _______ _______ _______ _____ _____    ______ ____
ROOT
ATOM      1  C   UNL     1       2.067  -0.219   1.822  0.00  0.00    +0.052 A 
ATOM      2  C   UNL     1       1.923  -1.295   0.956  0.00  0.00    +0.028 A 
ATOM      3  C   UNL     1       1.118  -2.362   1.306  0.00  0.00    +0.051 A 
ATOM      4  C   UNL     1       0.453  -2.362   2.521  0.00  0.00    +0.167 A 
ATOM      5  C   UNL     1       0.594  -1.283   3.391  0.00  0.00    +0.169 A 
ATOM      6  C   UNL     1       1.406  -0.217   3.042  0.00  0.00    +0.074 A 
ATOM      7  O   UNL     1      -0.156  -1.521   4.508  0.00  0.00    -0.447 OA
ATOM      8  C   UNL     1      -1.063  -2.570   4.142  0.00  0.00    +0.254 C 
ATOM      9  O   UNL     1      -0.385  -3.278   3.094  0.00  0.00    -0.448 OA
ATOM     10  C   UNL     1      -1.316  -3.493   5.329  0.00  0.00    +0.093 C 
ATOM     11  C   UNL     1      -2.258  -4.623   4.908  0.00  0.00    +0.008 C 
ATOM     12  C   UNL     1      -3.578  -4.027   4.414  0.00  0.00    +0.000 C 
ATOM     13  C   UNL     1      -3.312  -3.122   3.210  0.00  0.00    +0.008 C 
ATOM     14  C   UNL     1      -2.374  -1.986   3.626  0.00  0.00    +0.093 C 
ENDROOT
BRANCH   1  15
ATOM     15  N   UNL     1       2.882   0.861   1.466  0.00  0.00    -0.216 N 
ATOM     16  H   UNL     1       3.598   1.273   2.193  0.00  0.00    +0.174 HD
BRANCH  15  17
ATOM     17  S   UNL     1       2.771   1.519  -0.050  0.00  0.00    +0.074 S 
ATOM     18  O   UNL     1       2.902   0.443  -0.970  0.00  0.00    -0.150 OA
ATOM     19  O   UNL     1       3.636   2.646  -0.068  0.00  0.00    -0.150 OA
BRANCH  17  24
ATOM     20  C   UNL     1      -1.002   2.075  -1.314  0.00  0.00    +0.002 A 
ATOM     21  C   UNL     1      -1.442   3.112  -0.511  0.00  0.00    +0.002 A 
ATOM     22  C   UNL     1      -0.597   3.659   0.436  0.00  0.00    +0.022 A 
ATOM     23  C   UNL     1       0.693   3.176   0.574  0.00  0.00    +0.068 A 
ATOM     24  C   UNL     1       1.132   2.139  -0.230  0.00  0.00    +0.127 A 
ATOM     25  C   UNL     1       0.284   1.589  -1.173  0.00  0.00    +0.030 A 
ATOM     26 CL   UNL     1       1.756   3.866   1.759  0.00  0.00    -0.082 Cl
ENDBRANCH  17  24
ENDBRANCH  15  17
ENDBRANCH   1  15
TORSDOF 3
