REMARK  Name = ZINC03253482
REMARK  6 active torsions:
REMARK  status: ('A' for Active; 'I' for Inactive)
REMARK    1  A    between atoms: C_4  and  C_7
REMARK    2  A    between atoms: C_8  and  C_20
REMARK    3  A    between atoms: N_10  and  C_13
REMARK    4  A    between atoms: C_11  and  N_12
REMARK    5  A    between atoms: C_20  and  S_21
REMARK    6  A    between atoms: S_21  and  C_22
REMARK                            x       y       z     vdW  Elec       q    Type
REMARK                         _______ _______ _______ _____ _____    ______ ____
ROOT
ATOM      1  C   UNL     1       0.002  -0.004   0.002  0.00  0.00    +0.045 A 
ATOM      2  C   UNL     1       1.353  -0.405  -0.013  0.00  0.00    +0.083 A 
ATOM      3  N   UNL     1       2.101   0.666  -0.014  0.00  0.00    -0.168 NA
ATOM      4  N   UNL     1       1.278   1.798  -0.001  0.00  0.00    -0.218 N 
ATOM      5  C   UNL     1      -0.017   1.380   0.010  0.00  0.00    +0.128 A 
ENDROOT
BRANCH   4   6
ATOM      6  C   UNL     1       1.712   3.130   0.002  0.00  0.00    +0.069 A 
ATOM      7  C   UNL     1       0.988   4.099  -0.680  0.00  0.00    +0.028 A 
ATOM      8  C   UNL     1       1.415   5.412  -0.672  0.00  0.00    +0.003 A 
ATOM      9  C   UNL     1       2.568   5.762   0.005  0.00  0.00    +0.020 A 
ATOM     10  C   UNL     1       3.295   4.799   0.682  0.00  0.00    +0.043 A 
ATOM     11  C   UNL     1       2.869   3.483   0.682  0.00  0.00    +0.047 A 
ATOM     12 CL   UNL     1       4.742   5.242   1.532  0.00  0.00    -0.083 Cl
ENDBRANCH   4   6
BRANCH   1  16
ATOM     13  C   UNL     1      -3.387  -2.571   0.021  0.00  0.00    +0.000 A 
ATOM     14  C   UNL     1      -3.154  -1.745  -1.064  0.00  0.00    +0.001 A 
ATOM     15  C   UNL     1      -2.056  -0.910  -1.075  0.00  0.00    +0.008 A 
ATOM     16  C   UNL     1      -1.180  -0.899   0.009  0.00  0.00    -0.013 A 
ATOM     17  C   UNL     1      -1.417  -1.737   1.097  0.00  0.00    +0.008 A 
ATOM     18  C   UNL     1      -2.521  -2.565   1.100  0.00  0.00    +0.001 A 
ENDBRANCH   1  16
BRANCH   5  19
ATOM     19  N   UNL     1      -1.144   2.189   0.020  0.00  0.00    -0.343 N 
ATOM     20  H   UNL     1      -2.028   1.790   0.022  0.00  0.00    +0.144 HD
ATOM     21  H   UNL     1      -1.048   3.155   0.024  0.00  0.00    +0.144 HD
ENDBRANCH   5  19
BRANCH   2  22
ATOM     22  C   UNL     1       1.850  -1.827  -0.026  0.00  0.00    +0.134 C 
BRANCH  22  23
ATOM     23  S   UNL     1       2.033  -2.386  -1.738  0.00  0.00    -0.092 S 
BRANCH  23  24
ATOM     24  C   UNL     1       2.609  -4.029  -1.463  0.00  0.00    +0.136 A 
ATOM     25  N   UNL     1       2.924  -4.950  -2.346  0.00  0.00    -0.233 NA
ATOM     26  C   UNL     1       3.357  -6.179  -1.988  0.00  0.00    +0.079 A 
ATOM     27  C   UNL     1       3.727  -7.253  -2.829  0.00  0.00    +0.029 A 
ATOM     28  C   UNL     1       4.149  -8.445  -2.300  0.00  0.00    +0.002 A 
ATOM     29  C   UNL     1       4.228  -8.641  -0.928  0.00  0.00    +0.001 A 
ATOM     30  C   UNL     1       3.873  -7.611  -0.076  0.00  0.00    +0.017 A 
ATOM     31  C   UNL     1       3.450  -6.415  -0.597  0.00  0.00    +0.040 A 
ATOM     32  S   UNL     1       2.920  -4.863   0.087  0.00  0.00    -0.061 S 
ENDBRANCH  23  24
ENDBRANCH  22  23
ENDBRANCH   2  22
TORSDOF 6
