REMARK  Name = ZINC06147993
REMARK  12 active torsions:
REMARK  status: ('A' for Active; 'I' for Inactive)
REMARK    1  A    between atoms: C_1  and  C_2
REMARK    2  A    between atoms: C_2  and  O_3
REMARK    3  A    between atoms: O_3  and  C_4
REMARK    4  A    between atoms: C_4  and  C_6
REMARK    5  A    between atoms: C_8  and  C_20
REMARK    6  A    between atoms: C_14  and  C_15
REMARK    7  A    between atoms: C_14  and  O_19
REMARK    8  A    between atoms: C_23  and  O_28
REMARK    9  A    between atoms: C_24  and  O_26
REMARK   10  A    between atoms: O_26  and  C_27
REMARK   11  A    between atoms: O_28  and  C_29
REMARK   12  A    between atoms: C_29  and  C_30
REMARK                            x       y       z     vdW  Elec       q    Type
REMARK                         _______ _______ _______ _____ _____    ______ ____
ROOT
ATOM      1  C   UNL     1       2.722  -8.717  -2.108  0.00  0.00    +0.181 C 
ATOM      2  C   UNL     1       1.270  -8.235  -2.194  0.00  0.00    +0.121 C 
ATOM      3  N   UNL     1       0.489  -8.868  -1.131  0.00  0.00    -0.319 N 
ATOM      4  C   UNL     1       0.817 -10.078  -0.651  0.00  0.00    +0.133 C 
ATOM      5  S   UNL     1      -0.151 -10.762   0.584  0.00  0.00    -0.019 S 
ATOM      6  N   UNL     1       1.872 -10.773  -1.101  0.00  0.00    -0.291 N 
ATOM      7  C   UNL     1       2.732 -10.248  -2.164  0.00  0.00    +0.244 C 
ATOM      8  H   UNL     1      -0.281  -8.404  -0.765  0.00  0.00    +0.148 HD
ATOM      9  H   UNL     1       2.070 -11.641  -0.716  0.00  0.00    +0.151 HD
ENDROOT
BRANCH   2  10
ATOM     10  C   UNL     1       1.226  -6.737  -2.027  0.00  0.00    -0.023 A 
ATOM     11  C   UNL     1       1.195  -6.185  -0.760  0.00  0.00    +0.009 A 
ATOM     12  C   UNL     1       1.155  -4.812  -0.602  0.00  0.00    +0.050 A 
ATOM     13  C   UNL     1       1.146  -3.987  -1.715  0.00  0.00    +0.162 A 
ATOM     14  C   UNL     1       1.171  -4.543  -2.990  0.00  0.00    +0.162 A 
ATOM     15  C   UNL     1       1.216  -5.920  -3.142  0.00  0.00    +0.055 A 
BRANCH  14  16
ATOM     16  O   UNL     1       1.155  -3.737  -4.085  0.00  0.00    -0.491 OA
ATOM     17  C   UNL     1       1.183  -4.377  -5.363  0.00  0.00    +0.277 C 
ENDBRANCH  14  16
BRANCH  13  18
ATOM     18  O   UNL     1       1.106  -2.636  -1.561  0.00  0.00    -0.484 OA
BRANCH  18  19
ATOM     19  C   UNL     1       1.077  -2.136  -0.223  0.00  0.00    +0.264 C 
BRANCH  19  20
ATOM     20  C   UNL     1       1.035  -0.630  -0.250  0.00  0.00    -0.010 A 
ATOM     21  C   UNL     1      -0.181   0.027  -0.276  0.00  0.00    +0.008 A 
ATOM     22  C   UNL     1      -0.220   1.409  -0.301  0.00  0.00    +0.020 A 
ATOM     23  C   UNL     1       0.959   2.134  -0.299  0.00  0.00    +0.041 A 
ATOM     24  C   UNL     1       2.175   1.475  -0.273  0.00  0.00    +0.020 A 
ATOM     25  C   UNL     1       2.213   0.094  -0.248  0.00  0.00    +0.008 A 
ATOM     26 CL   UNL     1       0.911   3.869  -0.330  0.00  0.00    -0.084 Cl
ENDBRANCH  19  20
ENDBRANCH  18  19
ENDBRANCH  13  18
ENDBRANCH   2  10
BRANCH   7  27
ATOM     27  C   UNL     1       4.160 -10.758  -1.966  0.00  0.00    +0.436 C 
ATOM     28  F   UNL     1       4.592 -10.447  -0.672  0.00  0.00    -0.166 F 
ATOM     29  F   UNL     1       4.190 -12.145  -2.147  0.00  0.00    -0.166 F 
ATOM     30  F   UNL     1       5.006 -10.149  -2.899  0.00  0.00    -0.166 F 
ENDBRANCH   7  27
BRANCH   1  31
ATOM     31  C   UNL     1       3.335  -8.250  -0.813  0.00  0.00    +0.317 C 
ATOM     32  O   UNL     1       2.908  -8.661   0.240  0.00  0.00    -0.250 OA
BRANCH  31  33
ATOM     33  O   UNL     1       4.354  -7.377  -0.829  0.00  0.00    -0.465 OA
BRANCH  33  35
ATOM     34  C   UNL     1       6.041  -5.981   0.237  0.00  0.00    +0.048 C 
ATOM     35  C   UNL     1       4.895  -6.971   0.456  0.00  0.00    +0.229 C 
ENDBRANCH  33  35
ENDBRANCH  31  33
ENDBRANCH   1  31
BRANCH   7  36
ATOM     36  O   UNL     1       2.241 -10.683  -3.434  0.00  0.00    -0.364 OA
ATOM     37  H   UNL     1       2.219 -11.644  -3.539  0.00  0.00    +0.212 HD
ENDBRANCH   7  36
TORSDOF 10
