REMARK  Name = ZINC64671006
REMARK  12 active torsions:
REMARK  status: ('A' for Active; 'I' for Inactive)
REMARK    1  A    between atoms: C_1  and  C_2
REMARK    2  A    between atoms: C_4  and  C_12
REMARK    3  A    between atoms: C_12  and  C_13
REMARK    4  A    between atoms: C_13  and  N_14
REMARK    5  A    between atoms: N_14  and  C_15
REMARK    6  A    between atoms: C_15  and  C_16
REMARK    7  A    between atoms: C_19  and  C_22
REMARK    8  A    between atoms: C_22  and  C_23
REMARK    9  A    between atoms: C_25  and  O_34
REMARK   10  A    between atoms: C_28  and  O_29
REMARK   11  A    between atoms: O_29  and  C_30
REMARK   12  A    between atoms: O_34  and  C_35
REMARK                            x       y       z     vdW  Elec       q    Type
REMARK                         _______ _______ _______ _____ _____    ______ ____
ROOT
ATOM      1  C   UNL     1       1.592  -1.154  -7.298  0.00  0.00    +0.044 C 
ATOM      2  N   UNL     1       0.591  -0.474  -7.704  0.00  0.00    -0.096 NA
ATOM      3  O   UNL     1       0.485  -0.427  -9.113  0.00  0.00    -0.390 OA
ATOM      4  C   UNL     1       1.762  -0.817  -9.658  0.00  0.00    +0.214 C 
ATOM      5  C   UNL     1       2.342  -1.675  -8.510  0.00  0.00    +0.099 C 
ENDROOT
BRANCH   1   6
ATOM      6  C   UNL     1       1.968  -1.395  -5.859  0.00  0.00    -0.027 C 
BRANCH   6   7
ATOM      7  N   UNL     1       0.997  -0.728  -4.981  0.00  0.00    +0.383 N 
ATOM      8  H   UNL     1       0.076  -1.101  -5.155  0.00  0.00    -0.085 HD
ATOM      9  H   UNL     1       1.000   0.263  -5.168  0.00  0.00    -0.085 HD
BRANCH   7  10
ATOM     10  C   UNL     1       1.364  -0.963  -3.578  0.00  0.00    -0.078 C 
BRANCH  10  11
ATOM     11  C   UNL     1       0.353  -0.268  -2.664  0.00  0.00    +0.014 C 
BRANCH  11  14
ATOM     12  C   UNL     1      -0.019   1.526   0.010  0.00  0.00    +0.035 C 
ATOM     13  C   UNL     1       0.002  -0.004   0.002  0.00  0.00    +0.103 C 
ATOM     14  C   UNL     1       0.729  -0.509  -1.224  0.00  0.00    -0.041 C 
ATOM     15  C   UNL     1       1.785  -1.220  -0.768  0.00  0.00    -0.001 A 
ATOM     16  C   UNL     1       2.858  -1.954  -1.449  0.00  0.00    +0.010 A 
ATOM     17  C   UNL     1       3.797  -2.583  -0.705  0.00  0.00    +0.001 A 
ATOM     18  C   UNL     1       3.770  -2.551   0.696  0.00  0.00    +0.002 A 
ATOM     19  C   UNL     1       2.817  -1.897   1.393  0.00  0.00    +0.026 A 
ATOM     20  C   UNL     1       1.780  -1.201   0.712  0.00  0.00    +0.043 A 
ATOM     21  N   UNL     1       0.758  -0.506   1.155  0.00  0.00    -0.378 N 
ATOM     22  H   UNL     1       0.540  -0.349   2.087  0.00  0.00    +0.160 HD
ENDBRANCH  11  14
ENDBRANCH  10  11
ENDBRANCH   7  10
ENDBRANCH   6   7
ENDBRANCH   1   6
BRANCH   4  23
ATOM     23  C   UNL     1       1.586  -1.645 -10.932  0.00  0.00    +0.086 C 
BRANCH  23  24
ATOM     24  C   UNL     1       0.993  -0.780 -12.015  0.00  0.00    +0.005 A 
ATOM     25  C   UNL     1      -0.375  -0.770 -12.220  0.00  0.00    +0.057 A 
ATOM     26  C   UNL     1      -0.923   0.023 -13.214  0.00  0.00    +0.166 A 
ATOM     27  C   UNL     1      -0.099   0.812 -14.009  0.00  0.00    +0.211 A 
ATOM     28  C   UNL     1       1.275   0.803 -13.803  0.00  0.00    +0.211 A 
ATOM     29  C   UNL     1       1.819   0.008 -12.800  0.00  0.00    +0.169 A 
ATOM     30  O   UNL     1       1.857   1.651 -14.702  0.00  0.00    -0.449 OA
ATOM     31  C   UNL     1       0.867   1.867 -15.724  0.00  0.00    +0.467 C 
ATOM     32  O   UNL     1      -0.382   1.666 -15.037  0.00  0.00    -0.449 OA
BRANCH  29  33
ATOM     33  O   UNL     1       3.164   0.001 -12.593  0.00  0.00    -0.491 OA
ATOM     34  C   UNL     1       3.928  -0.959 -13.325  0.00  0.00    +0.277 C 
ENDBRANCH  29  33
BRANCH  26  35
ATOM     35  O   UNL     1      -2.269   0.030 -13.414  0.00  0.00    -0.491 OA
ATOM     36  C   UNL     1      -3.056  -0.805 -12.561  0.00  0.00    +0.277 C 
ENDBRANCH  26  35
ENDBRANCH  23  24
ENDBRANCH   4  23
TORSDOF 9
