REMARK  Name = ZINC44136130
REMARK  8 active torsions:
REMARK  status: ('A' for Active; 'I' for Inactive)
REMARK    1  A    between atoms: C_1  and  C_2
REMARK    2  A    between atoms: C_2  and  C_3
REMARK    3  A    between atoms: C_2  and  C_4
REMARK    4  A    between atoms: C_2  and  O_5
REMARK    5  A    between atoms: O_5  and  C_6
REMARK    6  A    between atoms: C_10  and  C_17
REMARK    7  A    between atoms: C_13  and  N_16
REMARK    8  A    between atoms: C_20  and  C_23
REMARK                            x       y       z     vdW  Elec       q    Type
REMARK                         _______ _______ _______ _____ _____    ______ ____
ROOT
ATOM      1  C   UNL     1       1.952  -0.085  -1.337  0.00  0.00    +0.403 C 
ATOM      2  O   UNL     1       2.488   0.619  -0.503  0.00  0.00    -0.226 OA
ATOM      3  N   UNL     1       2.641  -0.485  -2.424  0.00  0.00    -0.268 N 
ATOM      4  C   UNL     1       4.041  -0.083  -2.613  0.00  0.00    +0.119 C 
ATOM      5  C   UNL     1       4.186   0.569  -3.991  0.00  0.00    +0.035 C 
ATOM      6  C   UNL     1       3.656  -0.387  -5.062  0.00  0.00    -0.005 C 
ATOM      7  C   UNL     1       2.172  -0.665  -4.812  0.00  0.00    -0.057 C 
ATOM      8  C   UNL     1       2.007  -1.336  -3.440  0.00  0.00    +0.095 C 
ENDROOT
BRANCH   5   9
ATOM      9  C   UNL     1       5.639   0.868  -4.256  0.00  0.00    -0.043 A 
ATOM     10  C   UNL     1       6.562  -0.160  -4.281  0.00  0.00    +0.004 A 
ATOM     11  C   UNL     1       7.895   0.114  -4.524  0.00  0.00    +0.012 A 
ATOM     12  C   UNL     1       8.305   1.416  -4.744  0.00  0.00    +0.055 A 
ATOM     13  C   UNL     1       7.381   2.444  -4.720  0.00  0.00    +0.012 A 
ATOM     14  C   UNL     1       6.047   2.169  -4.481  0.00  0.00    +0.004 A 
BRANCH  12  15
ATOM     15  C   UNL     1       9.758   1.715  -5.008  0.00  0.00    +0.417 C 
ATOM     16  F   UNL     1      10.004   1.653  -6.384  0.00  0.00    -0.166 F 
ATOM     17  F   UNL     1      10.064   2.996  -4.537  0.00  0.00    -0.166 F 
ATOM     18  F   UNL     1      10.555   0.772  -4.349  0.00  0.00    -0.166 F 
ENDBRANCH  12  15
ENDBRANCH   5   9
BRANCH   7  19
ATOM     19  N   UNL     1       1.657  -1.557  -5.859  0.00  0.00    +0.381 N 
ATOM     20  H   UNL     1       2.169  -2.427  -5.842  0.00  0.00    -0.090 HD
ATOM     21  H   UNL     1       0.679  -1.740  -5.694  0.00  0.00    -0.090 HD
ATOM     22  H   UNL     1       1.770  -1.119  -6.761  0.00  0.00    -0.090 HD
ENDBRANCH   7  19
BRANCH   1  23
ATOM     23  O   UNL     1       0.671  -0.465  -1.174  0.00  0.00    -0.445 OA
BRANCH  23  25
ATOM     24  C   UNL     1      -0.019   1.526   0.010  0.00  0.00    +0.055 C 
ATOM     25  C   UNL     1       0.002  -0.004   0.002  0.00  0.00    +0.107 C 
ATOM     26  C   UNL     1       0.742  -0.511   1.242  0.00  0.00    +0.055 C 
ATOM     27  C   UNL     1      -1.433  -0.534   0.013  0.00  0.00    +0.055 C 
ENDBRANCH  23  25
ENDBRANCH   1  23
TORSDOF 5
