REMARK  Name = ZINC38677626
REMARK  4 active torsions:
REMARK  status: ('A' for Active; 'I' for Inactive)
REMARK    1  A    between atoms: C_4  and  C_8
REMARK    2  A    between atoms: C_8  and  S_9
REMARK    3  A    between atoms: S_9  and  C_10
REMARK    4  A    between atoms: C_12  and  N_20
REMARK                            x       y       z     vdW  Elec       q    Type
REMARK                         _______ _______ _______ _____ _____    ______ ____
ROOT
ATOM      1  C   UNL     1       5.788  -1.866   1.476  0.00  0.00    +0.102 C 
ATOM      2  N   UNL     1       6.327  -2.162   0.290  0.00  0.00    -0.320 N 
ATOM      3  C   UNL     1       7.494  -2.821   0.204  0.00  0.00    +0.208 C 
ATOM      4  N   UNL     1       8.367  -2.987   1.161  0.00  0.00    -0.220 NA
ATOM      5  C   UNL     1       8.131  -2.373   2.468  0.00  0.00    +0.277 C 
ATOM      6  C   UNL     1       6.610  -2.326   2.612  0.00  0.00    +0.119 C 
ATOM      7  N   UNL     1       6.368  -2.773   3.785  0.00  0.00    -0.234 NA
ATOM      8  C   UNL     1       7.461  -3.348   4.326  0.00  0.00    +0.218 C 
ATOM      9  N   UNL     1       8.544  -3.192   3.605  0.00  0.00    -0.240 NA
ATOM     10  H   UNL     1       5.868  -1.896  -0.522  0.00  0.00    +0.169 HD
ENDROOT
BRANCH   3  11
ATOM     11  N   UNL     1       7.801  -3.379  -1.020  0.00  0.00    -0.234 NA
ATOM     12  H   UNL     1       8.633  -3.866  -1.136  0.00  0.00    +0.173 HD
ENDBRANCH   3  11
BRANCH   1  13
ATOM     13  S   UNL     1       4.258  -1.011   1.665  0.00  0.00    -0.101 S 
BRANCH  13  14
ATOM     14  C   UNL     1       3.713  -0.707  -0.038  0.00  0.00    +0.114 C 
BRANCH  14  18
ATOM     15  C   UNL     1      -0.017   1.378   0.010  0.00  0.00    +0.003 A 
ATOM     16  C   UNL     1       1.171   2.086   0.002  0.00  0.00    +0.020 A 
ATOM     17  C   UNL     1       2.378   1.411  -0.013  0.00  0.00    +0.046 A 
ATOM     18  C   UNL     1       2.398   0.028  -0.021  0.00  0.00    -0.001 A 
ATOM     19  C   UNL     1       1.209  -0.680  -0.013  0.00  0.00    +0.046 A 
ATOM     20  C   UNL     1       0.002  -0.004   0.002  0.00  0.00    +0.020 A 
ATOM     21 CL   UNL     1       1.233  -2.416  -0.023  0.00  0.00    -0.083 Cl
ATOM     22 CL   UNL     1       3.869   2.300  -0.024  0.00  0.00    -0.083 Cl
ENDBRANCH  14  18
ENDBRANCH  13  14
ENDBRANCH   1  13
TORSDOF 4
