REMARK  Name = ZINC63531052
REMARK  14 active torsions:
REMARK  status: ('A' for Active; 'I' for Inactive)
REMARK    1  A    between atoms: C_1  and  C_2
REMARK    2  A    between atoms: C_2  and  C_3
REMARK    3  A    between atoms: C_2  and  N_4
REMARK    4  A    between atoms: N_4  and  C_5
REMARK    5  A    between atoms: N_4  and  C_30
REMARK    6  A    between atoms: C_5  and  C_6
REMARK    7  A    between atoms: C_6  and  C_7
REMARK    8  A    between atoms: C_7  and  N_8
REMARK    9  A    between atoms: C_9  and  C_11
REMARK   10  A    between atoms: C_13  and  S_23
REMARK   11  A    between atoms: C_17  and  O_21
REMARK   12  A    between atoms: O_21  and  C_22
REMARK   13  A    between atoms: S_23  and  C_24
REMARK   14  A    between atoms: C_30  and  C_31
REMARK                            x       y       z     vdW  Elec       q    Type
REMARK                         _______ _______ _______ _____ _____    ______ ____
ROOT
ATOM      1  N   UNL     1      -4.158   3.501  -2.198  0.00  0.00    -0.313 N 
ATOM      2  C   UNL     1      -5.035   4.249  -2.897  0.00  0.00    +0.240 C 
ATOM      3  O   UNL     1      -5.084   4.155  -4.105  0.00  0.00    -0.273 OA
ATOM      4  H   UNL     1      -4.119   3.576  -1.231  0.00  0.00    +0.149 HD
ENDROOT
BRANCH   2   5
ATOM      5  C   UNL     1      -5.954   5.203  -2.177  0.00  0.00    +0.204 C 
ATOM      6  C   UNL     1      -5.221   6.486  -1.851  0.00  0.00    +0.030 C 
ATOM      7  C   UNL     1      -5.912   7.492  -2.514  0.00  0.00    +0.010 A 
ATOM      8  C   UNL     1      -5.712   8.889  -2.593  0.00  0.00    +0.014 A 
ATOM      9  C   UNL     1      -6.559   9.650  -3.330  0.00  0.00    +0.046 A 
ATOM     10  C   UNL     1      -7.638   9.083  -4.023  0.00  0.00    +0.122 A 
ATOM     11  C   UNL     1      -7.886   7.743  -3.989  0.00  0.00    +0.071 A 
ATOM     12  C   UNL     1      -7.042   6.891  -3.239  0.00  0.00    +0.048 A 
ATOM     13  N   UNL     1      -7.070   5.582  -3.048  0.00  0.00    -0.369 N 
ATOM     14  H   UNL     1      -7.724   4.971  -3.423  0.00  0.00    +0.161 HD
BRANCH  10  15
ATOM     15  O   UNL     1      -8.456   9.889  -4.746  0.00  0.00    -0.495 OA
ATOM     16  C   UNL     1      -8.153  11.285  -4.750  0.00  0.00    +0.277 C 
ENDBRANCH  10  15
BRANCH   6  17
ATOM     17  S   UNL     1      -3.873   6.655  -0.898  0.00  0.00    -0.091 S 
BRANCH  17  18
ATOM     18  C   UNL     1      -4.457   6.320   0.730  0.00  0.00    +0.013 A 
ATOM     19  C   UNL     1      -5.816   6.142   0.960  0.00  0.00    +0.015 A 
ATOM     20  C   UNL     1      -6.270   5.880   2.237  0.00  0.00    +0.001 A 
ATOM     21  C   UNL     1      -5.374   5.794   3.287  0.00  0.00    +0.000 A 
ATOM     22  C   UNL     1      -4.021   5.971   3.063  0.00  0.00    +0.001 A 
ATOM     23  C   UNL     1      -3.559   6.228   1.787  0.00  0.00    +0.015 A 
ENDBRANCH  17  18
ENDBRANCH   6  17
ENDBRANCH   2   5
BRANCH   1  24
ATOM     24  C   UNL     1      -3.265   2.574  -2.897  0.00  0.00    +0.102 C 
BRANCH  24  25
ATOM     25  C   UNL     1      -2.379   1.854  -1.879  0.00  0.00    +0.000 C 
BRANCH  25  26
ATOM     26  C   UNL     1      -1.446   0.886  -2.610  0.00  0.00    -0.076 C 
BRANCH  26  27
ATOM     27  N   UNL     1      -0.673   0.115  -1.627  0.00  0.00    +0.384 N 
ATOM     28  H   UNL     1      -1.302  -0.420  -1.048  0.00  0.00    -0.081 HD
BRANCH  27  30
ATOM     29  C   UNL     1       0.800   0.246   0.325  0.00  0.00    -0.014 C 
ATOM     30  C   UNL     1       0.104   1.035  -0.786  0.00  0.00    -0.074 C 
ATOM     31  C   UNL     1       1.155   1.745  -1.642  0.00  0.00    -0.014 C 
ENDBRANCH  27  30
BRANCH  27  32
ATOM     32  C   UNL     1       0.241  -0.796  -2.329  0.00  0.00    -0.043 C 
BRANCH  32  33
ATOM     33  C   UNL     1       0.913  -1.702  -1.329  0.00  0.00    -0.064 A 
ATOM     34  C   UNL     1       2.292  -1.756  -1.263  0.00  0.00    +0.002 A 
ATOM     35  C   UNL     1       2.909  -2.587  -0.346  0.00  0.00    +0.000 A 
ATOM     36  C   UNL     1       2.145  -3.364   0.505  0.00  0.00    +0.000 A 
ATOM     37  C   UNL     1       0.765  -3.310   0.439  0.00  0.00    +0.000 A 
ATOM     38  C   UNL     1       0.149  -2.475  -0.475  0.00  0.00    +0.002 A 
ENDBRANCH  32  33
ENDBRANCH  27  32
ENDBRANCH  26  27
ENDBRANCH  25  26
ENDBRANCH  24  25
ENDBRANCH   1  24
TORSDOF 11
