REMARK  Name = ZINC35271271
REMARK  16 active torsions:
REMARK  status: ('A' for Active; 'I' for Inactive)
REMARK    1  A    between atoms: C_1  and  C_2
REMARK    2  A    between atoms: C_3  and  C_4
REMARK    3  A    between atoms: C_3  and  C_5
REMARK    4  A    between atoms: C_5  and  O_7
REMARK    5  A    between atoms: O_7  and  C_8
REMARK    6  A    between atoms: C_10  and  O_40
REMARK    7  A    between atoms: C_12  and  O_39
REMARK    8  A    between atoms: C_14  and  C_38
REMARK    9  A    between atoms: C_17  and  O_19
REMARK   10  A    between atoms: O_19  and  C_20
REMARK   11  A    between atoms: C_20  and  C_37
REMARK   12  A    between atoms: C_23  and  O_36
REMARK   13  A    between atoms: C_25  and  C_35
REMARK   14  A    between atoms: C_29  and  C_32
REMARK   15  A    between atoms: C_32  and  C_33
REMARK   16  A    between atoms: C_32  and  C_34
REMARK                            x       y       z     vdW  Elec       q    Type
REMARK                         _______ _______ _______ _____ _____    ______ ____
ROOT
ATOM      1  C   UNL     1       2.237  -0.376   3.456  0.00  0.00    +0.263 C 
ATOM      2  C   UNL     1       1.048  -0.370   4.421  0.00  0.00    +0.191 C 
ATOM      3  C   UNL     1       1.490   0.239   5.756  0.00  0.00    +0.175 C 
ATOM      4  C   UNL     1       2.678  -0.557   6.302  0.00  0.00    +0.149 C 
ATOM      5  O   UNL     1       3.737  -0.548   5.343  0.00  0.00    -0.342 OA
ATOM      6  C   UNL     1       3.397  -1.147   4.091  0.00  0.00    +0.295 C 
ATOM      7  C   UNL     1       3.163   0.082   7.605  0.00  0.00    +0.041 C 
ENDROOT
BRANCH   3   8
ATOM      8  O   UNL     1       1.877   1.600   5.554  0.00  0.00    -0.387 OA
ATOM      9  H   UNL     1       2.169   2.049   6.359  0.00  0.00    +0.210 HD
ENDBRANCH   3   8
BRANCH   2  10
ATOM     10  O   UNL     1       0.596  -1.709   4.632  0.00  0.00    -0.385 OA
ATOM     11  H   UNL     1      -0.157  -1.780   5.234  0.00  0.00    +0.210 HD
ENDBRANCH   2  10
BRANCH   1  12
ATOM     12  O   UNL     1       1.856  -1.008   2.233  0.00  0.00    -0.450 OA
BRANCH  12  13
ATOM     13  C   UNL     1       1.344  -0.217   1.269  0.00  0.00    +0.335 C 
ATOM     14  O   UNL     1       1.225   0.977   1.462  0.00  0.00    -0.245 OA
BRANCH  13  17
ATOM     15  C   UNL     1       0.278   1.464  -0.728  0.00  0.00    +0.036 C 
ATOM     16  C   UNL     1       0.426  -0.017  -0.968  0.00  0.00    -0.020 C 
ATOM     17  C   UNL     1       0.931  -0.798  -0.016  0.00  0.00    +0.029 C 
ATOM     18  C   UNL     1       1.079  -2.278  -0.256  0.00  0.00    +0.051 C 
ENDBRANCH  13  17
ENDBRANCH  12  13
ENDBRANCH   1  12
BRANCH   6  19
ATOM     19  O   UNL     1       4.529  -1.108   3.220  0.00  0.00    -0.341 OA
BRANCH  19  20
ATOM     20  C   UNL     1       5.591  -1.981   3.607  0.00  0.00    +0.074 C 
ATOM     21  C   UNL     1       6.071  -1.605   5.009  0.00  0.00    +0.037 C 
ATOM     22  C   UNL     1       6.561  -0.155   4.995  0.00  0.00    +0.035 C 
ATOM     23  C   UNL     1       7.729  -0.033   4.018  0.00  0.00    +0.121 C 
ATOM     24  C   UNL     1       7.276  -0.417   2.606  0.00  0.00    +0.003 C 
ATOM     25  C   UNL     1       6.743  -1.855   2.606  0.00  0.00    +0.033 C 
ATOM     26  C   UNL     1       6.198  -2.172   1.208  0.00  0.00    +0.037 C 
ATOM     27  C   UNL     1       7.193  -1.789   0.155  0.00  0.00    -0.070 C 
ATOM     28  C   UNL     1       8.190  -0.990   0.359  0.00  0.00    -0.027 C 
ATOM     29  C   UNL     1       8.495  -0.350   1.679  0.00  0.00    +0.036 C 
ATOM     30  C   UNL     1       6.196   0.553   2.122  0.00  0.00    +0.014 C 
ATOM     31  C   UNL     1       5.083  -3.425   3.617  0.00  0.00    +0.042 C 
BRANCH  27  32
ATOM     32  C   UNL     1       7.021  -2.370  -1.225  0.00  0.00    +0.008 C 
ATOM     33  C   UNL     1       7.092  -3.896  -1.148  0.00  0.00    +0.012 C 
ATOM     34  C   UNL     1       5.663  -1.950  -1.790  0.00  0.00    +0.012 C 
ENDBRANCH  27  32
BRANCH  23  35
ATOM     35  O   UNL     1       8.202   1.316   4.010  0.00  0.00    -0.391 OA
ATOM     36  H   UNL     1       8.515   1.627   4.871  0.00  0.00    +0.210 HD
ENDBRANCH  23  35
ENDBRANCH  19  20
ENDBRANCH   6  19
TORSDOF 9
