REMARK  Name = ZINC44714078
REMARK  10 active torsions:
REMARK  status: ('A' for Active; 'I' for Inactive)
REMARK    1  A    between atoms: C_1  and  C_2
REMARK    2  A    between atoms: C_5  and  O_8
REMARK    3  A    between atoms: O_8  and  C_9
REMARK    4  A    between atoms: C_10  and  C_15
REMARK    5  A    between atoms: C_19  and  C_28
REMARK    6  A    between atoms: N_30  and  C_31
REMARK    7  A    between atoms: C_31  and  C_33
REMARK    8  A    between atoms: C_31  and  C_34
REMARK    9  A    between atoms: C_35  and  C_41
REMARK   10  A    between atoms: C_39  and  C_40
REMARK                            x       y       z     vdW  Elec       q    Type
REMARK                         _______ _______ _______ _____ _____    ______ ____
ROOT
ATOM      1  C   UNL     1       0.216  -6.877  -0.208  0.00  0.00    +0.252 C 
ATOM      2  O   UNL     1       0.183  -6.320  -1.289  0.00  0.00    -0.270 OA
ATOM      3  N   UNL     1       0.260  -8.223  -0.146  0.00  0.00    -0.296 N 
ATOM      4  C   UNL     1       0.376  -9.072   1.063  0.00  0.00    +0.121 C 
ATOM      5  C   UNL     1      -0.561 -10.271   0.789  0.00  0.00    +0.100 C 
ATOM      6  C   UNL     1      -0.669 -10.342  -0.743  0.00  0.00    -0.004 C 
ATOM      7  C   UNL     1       0.196  -9.188  -1.270  0.00  0.00    +0.115 C 
ATOM      8  C   UNL     1      -0.134 -11.678  -1.249  0.00  0.00    -0.010 C 
ATOM      9  C   UNL     1      -0.305 -11.749  -2.769  0.00  0.00    -0.082 C 
ATOM     10  N   UNL     1      -1.726 -11.608  -3.110  0.00  0.00    +0.379 N 
ATOM     11  C   UNL     1      -2.209 -10.283  -2.703  0.00  0.00    -0.082 C 
ATOM     12  C   UNL     1      -2.118 -10.150  -1.180  0.00  0.00    -0.010 C 
ATOM     13  H   UNL     1      -1.844 -11.715  -4.106  0.00  0.00    -0.086 HD
ATOM     14  H   UNL     1      -2.258 -12.320  -2.632  0.00  0.00    -0.086 HD
ENDROOT
BRANCH   1  16
ATOM     15  C   UNL     1      -0.536  -4.894   1.116  0.00  0.00    +0.233 A 
ATOM     16  C   UNL     1       0.208  -6.081   1.033  0.00  0.00    +0.099 A 
ATOM     17  C   UNL     1       0.944  -6.495   2.150  0.00  0.00    +0.020 A 
ATOM     18  C   UNL     1       0.903  -5.713   3.290  0.00  0.00    +0.021 A 
ATOM     19  C   UNL     1       0.145  -4.556   3.295  0.00  0.00    +0.114 A 
ATOM     20  N   UNL     1      -0.536  -4.181   2.229  0.00  0.00    -0.220 NA
BRANCH  15  21
ATOM     21  O   UNL     1      -1.255  -4.475   0.048  0.00  0.00    -0.437 OA
BRANCH  21  26
ATOM     22  C   UNL     1      -3.823   0.527   0.386  0.00  0.00    +0.044 C 
ATOM     23  C   UNL     1      -3.136  -0.811   0.296  0.00  0.00    -0.050 A 
ATOM     24  C   UNL     1      -1.755  -0.880   0.305  0.00  0.00    +0.007 A 
ATOM     25  C   UNL     1      -1.123  -2.106   0.222  0.00  0.00    +0.046 A 
ATOM     26  C   UNL     1      -1.875  -3.268   0.130  0.00  0.00    +0.130 A 
ATOM     27  C   UNL     1      -3.260  -3.196   0.120  0.00  0.00    +0.046 A 
ATOM     28  C   UNL     1      -3.888  -1.968   0.209  0.00  0.00    +0.007 A 
ENDBRANCH  21  26
ENDBRANCH  15  21
ENDBRANCH   1  16
BRANCH   5  29
ATOM     29  C   UNL     1       0.039 -11.541   1.335  0.00  0.00    +0.219 C 
ATOM     30  O   UNL     1       1.240 -11.634   1.472  0.00  0.00    -0.275 OA
ATOM     31  N   UNL     1      -0.760 -12.573   1.671  0.00  0.00    -0.308 N 
ATOM     32  H   UNL     1      -1.721 -12.498   1.562  0.00  0.00    +0.149 HD
BRANCH  31  33
ATOM     33  C   UNL     1      -0.177 -13.808   2.202  0.00  0.00    +0.104 C 
ATOM     34  C   UNL     1       0.370 -14.650   1.048  0.00  0.00    +0.033 C 
BRANCH  33  35
ATOM     35  C   UNL     1      -1.237 -14.589   2.936  0.00  0.00    +0.015 A 
ATOM     36  C   UNL     1      -1.121 -15.117   4.176  0.00  0.00    +0.038 A 
ATOM     37  N   UNL     1      -2.283 -15.736   4.470  0.00  0.00    -0.281 N 
ATOM     38  H   UNL     1      -2.488 -16.204   5.294  0.00  0.00    +0.189 HD
ATOM     39  N   UNL     1      -3.142 -15.583   3.374  0.00  0.00    -0.179 NA
ATOM     40  C   UNL     1      -2.516 -14.890   2.458  0.00  0.00    +0.065 A 
ATOM     41  C   UNL     1      -3.076 -14.489   1.117  0.00  0.00    +0.068 C 
ATOM     42  C   UNL     1       0.090 -15.030   5.069  0.00  0.00    +0.065 C 
ENDBRANCH  33  35
ENDBRANCH  31  33
ENDBRANCH   5  29
TORSDOF 6
