REMARK  Name = ZINC63182707
REMARK  10 active torsions:
REMARK  status: ('A' for Active; 'I' for Inactive)
REMARK    1  A    between atoms: C_1  and  C_2
REMARK    2  A    between atoms: C_5  and  N_9
REMARK    3  A    between atoms: C_7  and  C_8
REMARK    4  A    between atoms: C_10  and  C_37
REMARK    5  A    between atoms: C_13  and  C_16
REMARK    6  A    between atoms: C_14  and  C_15
REMARK    7  A    between atoms: C_16  and  C_18
REMARK    8  A    between atoms: C_18  and  N_19
REMARK    9  A    between atoms: C_22  and  C_27
REMARK   10  A    between atoms: C_27  and  C_28
REMARK                            x       y       z     vdW  Elec       q    Type
REMARK                         _______ _______ _______ _____ _____    ______ ____
ROOT
ATOM      1  N   UNL     1       0.319  -9.621   2.470  0.00  0.00    -0.217 N 
ATOM      2  C   UNL     1       1.484 -10.063   2.981  0.00  0.00    +0.244 C 
ATOM      3  O   UNL     1       2.601  -9.817   2.578  0.00  0.00    -0.273 OA
ATOM      4  C   UNL     1       1.110 -10.930   4.167  0.00  0.00    +0.165 C 
ATOM      5  N   UNL     1      -0.362 -10.871   4.188  0.00  0.00    -0.287 N 
ATOM      6  C   UNL     1      -0.730 -10.079   3.163  0.00  0.00    +0.310 C 
ATOM      7  O   UNL     1      -1.885  -9.814   2.896  0.00  0.00    -0.252 OA
ATOM      8  H   UNL     1      -0.951 -11.313   4.819  0.00  0.00    +0.151 HD
ENDROOT
BRANCH   1   9
ATOM      9  C   UNL     1       0.212  -8.742   1.303  0.00  0.00    +0.197 C 
BRANCH   9  10
ATOM     10  C   UNL     1       0.240  -7.304   1.753  0.00  0.00    +0.178 C 
ATOM     11  O   UNL     1       0.340  -7.039   2.935  0.00  0.00    -0.291 OA
BRANCH  10  15
ATOM     12  N   UNL     1       0.065  -4.168  -0.022  0.00  0.00    -0.300 N 
ATOM     13  C   UNL     1      -0.032  -5.006  -1.224  0.00  0.00    +0.080 C 
ATOM     14  C   UNL     1       0.025  -6.450  -0.689  0.00  0.00    +0.062 C 
ATOM     15  C   UNL     1       0.152  -6.271   0.809  0.00  0.00    +0.015 C 
ATOM     16  C   UNL     1       0.170  -4.950   1.079  0.00  0.00    +0.015 C 
ATOM     17  C   UNL     1       0.292  -4.396   2.475  0.00  0.00    +0.061 C 
ATOM     18  C   UNL     1      -1.356  -4.753  -1.948  0.00  0.00    +0.029 C 
BRANCH  12  23
ATOM     19  C   UNL     1       0.026   1.503   0.004  0.00  0.00    +0.044 C 
ATOM     20  C   UNL     1       0.036  -0.004  -0.002  0.00  0.00    -0.047 A 
ATOM     21  C   UNL     1       1.080  -0.684  -0.604  0.00  0.00    +0.005 A 
ATOM     22  C   UNL     1       1.092  -2.064  -0.612  0.00  0.00    +0.024 A 
ATOM     23  C   UNL     1       0.055  -2.771  -0.015  0.00  0.00    +0.034 A 
ATOM     24  C   UNL     1      -0.991  -2.084   0.589  0.00  0.00    +0.027 A 
ATOM     25  C   UNL     1      -0.995  -0.703   0.598  0.00  0.00    -0.046 A 
ATOM     26  C   UNL     1      -2.126   0.042   1.258  0.00  0.00    +0.044 C 
ENDBRANCH  12  23
ENDBRANCH  10  15
ENDBRANCH   9  10
ENDBRANCH   1   9
BRANCH   4  27
ATOM     27  C   UNL     1       1.693 -10.357   5.459  0.00  0.00    +0.065 C 
BRANCH  27  28
ATOM     28  C   UNL     1       1.411 -11.300   6.600  0.00  0.00    -0.039 C 
ATOM     29  C   UNL     1       2.233 -12.258   7.086  0.00  0.00    -0.001 A 
ATOM     30  C   UNL     1       3.584 -12.692   6.711  0.00  0.00    +0.010 A 
ATOM     31  C   UNL     1       4.163 -13.703   7.399  0.00  0.00    +0.001 A 
ATOM     32  C   UNL     1       3.506 -14.345   8.457  0.00  0.00    +0.002 A 
ATOM     33  C   UNL     1       2.263 -14.003   8.859  0.00  0.00    +0.026 A 
ATOM     34  C   UNL     1       1.561 -12.952   8.207  0.00  0.00    +0.043 A 
ATOM     35  N   UNL     1       0.369 -12.443   8.407  0.00  0.00    -0.380 N 
ATOM     36  C   UNL     1       0.153 -11.363   7.438  0.00  0.00    +0.144 C 
ATOM     37  H   UNL     1      -0.262 -12.730   9.085  0.00  0.00    +0.160 HD
ENDBRANCH  27  28
ENDBRANCH   4  27
TORSDOF 6
