REMARK  Name = ZINC44905555
REMARK  12 active torsions:
REMARK  status: ('A' for Active; 'I' for Inactive)
REMARK    1  A    between atoms: C_1  and  C_2
REMARK    2  A    between atoms: C_2  and  O_3
REMARK    3  A    between atoms: O_3  and  C_4
REMARK    4  A    between atoms: C_7  and  C_13
REMARK    5  A    between atoms: C_9  and  O_10
REMARK    6  A    between atoms: O_10  and  C_11
REMARK    7  A    between atoms: C_11  and  C_12
REMARK    8  A    between atoms: C_13  and  C_15
REMARK    9  A    between atoms: C_13  and  N_16
REMARK   10  A    between atoms: C_17  and  C_19
REMARK   11  A    between atoms: N_24  and  C_26
REMARK   12  A    between atoms: C_26  and  C_27
REMARK                            x       y       z     vdW  Elec       q    Type
REMARK                         _______ _______ _______ _____ _____    ______ ____
ROOT
ATOM      1  N   UNL     1      -0.997  -6.708   0.869  0.00  0.00    -0.309 N 
ATOM      2  C   UNL     1      -1.235  -7.913   1.424  0.00  0.00    +0.215 C 
ATOM      3  O   UNL     1      -2.276  -8.491   1.195  0.00  0.00    -0.276 OA
ATOM      4  H   UNL     1      -0.165  -6.245   1.052  0.00  0.00    +0.149 HD
ENDROOT
BRANCH   2   5
ATOM      5  C   UNL     1      -0.207  -8.541   2.329  0.00  0.00    +0.058 C 
ATOM      6  C   UNL     1       1.099  -8.743   1.557  0.00  0.00    +0.009 C 
ATOM      7  C   UNL     1       2.111  -9.453   2.461  0.00  0.00    -0.018 C 
ATOM      8  C   UNL     1       1.513 -10.776   2.946  0.00  0.00    -0.078 C 
ATOM      9  N   UNL     1       0.281 -10.513   3.700  0.00  0.00    +0.383 N 
ATOM     10  C   UNL     1      -0.720  -9.897   2.820  0.00  0.00    -0.066 C 
ATOM     11  H   UNL     1       0.483  -9.888   4.466  0.00  0.00    -0.081 HD
BRANCH   9  12
ATOM     12  C   UNL     1      -0.246 -11.778   4.229  0.00  0.00    -0.043 C 
BRANCH  12  13
ATOM     13  C   UNL     1       0.723 -12.345   5.234  0.00  0.00    -0.063 A 
ATOM     14  C   UNL     1       1.728 -13.199   4.819  0.00  0.00    +0.002 A 
ATOM     15  C   UNL     1       2.617 -13.720   5.740  0.00  0.00    +0.001 A 
ATOM     16  C   UNL     1       2.502 -13.387   7.077  0.00  0.00    +0.015 A 
ATOM     17  C   UNL     1       1.497 -12.532   7.492  0.00  0.00    +0.018 A 
ATOM     18  C   UNL     1       0.611 -12.007   6.569  0.00  0.00    +0.017 A 
ATOM     19 BR   UNL     1       1.339 -12.076   9.321  0.00  0.00    -0.050 Br
ENDBRANCH  12  13
ENDBRANCH   9  12
ENDBRANCH   2   5
BRANCH   1  20
ATOM     20  C   UNL     1      -1.996  -6.097  -0.011  0.00  0.00    +0.100 C 
ATOM     21  C   UNL     1      -1.813  -6.625  -1.435  0.00  0.00    +0.033 C 
BRANCH  20  25
ATOM     22  C   UNL     1      -1.498  -1.849   0.006  0.00  0.00    +0.162 A 
ATOM     23  C   UNL     1      -0.389  -2.680  -0.003  0.00  0.00    +0.050 A 
ATOM     24  C   UNL     1      -0.553  -4.052  -0.008  0.00  0.00    +0.009 A 
ATOM     25  C   UNL     1      -1.823  -4.600  -0.005  0.00  0.00    -0.024 A 
ATOM     26  C   UNL     1      -2.934  -3.777   0.004  0.00  0.00    +0.055 A 
ATOM     27  C   UNL     1      -2.776  -2.400   0.016  0.00  0.00    +0.162 A 
BRANCH  22  28
ATOM     28  O   UNL     1      -1.339  -0.499   0.012  0.00  0.00    -0.489 OA
BRANCH  28  30
ATOM     29  C   UNL     1      -0.019   1.526   0.010  0.00  0.00    +0.048 C 
ATOM     30  C   UNL     1       0.002  -0.004   0.002  0.00  0.00    +0.226 C 
ENDBRANCH  28  30
ENDBRANCH  22  28
BRANCH  27  31
ATOM     31  O   UNL     1      -3.868  -1.589   0.030  0.00  0.00    -0.489 OA
BRANCH  31  32
ATOM     32  C   UNL     1      -5.148  -2.225   0.039  0.00  0.00    +0.226 C 
ATOM     33  C   UNL     1      -6.246  -1.159   0.055  0.00  0.00    +0.048 C 
ENDBRANCH  31  32
ENDBRANCH  27  31
ENDBRANCH  20  25
ENDBRANCH   1  20
TORSDOF 9
