REMARK  Name = ZINC04085246
REMARK  4 active torsions:
REMARK  status: ('A' for Active; 'I' for Inactive)
REMARK    1  A    between atoms: C_4  and  C_7
REMARK    2  A    between atoms: C_7  and  C_8
REMARK    3  A    between atoms: C_8  and  N_9
REMARK    4  A    between atoms: C_10  and  C_12
REMARK                            x       y       z     vdW  Elec       q    Type
REMARK                         _______ _______ _______ _____ _____    ______ ____
ROOT
ATOM      1  C   UNL     1      -4.618  -0.053  -0.338  0.00  0.00    +0.167 C 
ATOM      2  C   UNL     1      -3.089  -0.182  -0.285  0.00  0.00    +0.069 C 
ATOM      3  C   UNL     1      -2.451   1.184  -0.268  0.00  0.00    -0.015 A 
ATOM      4  C   UNL     1      -1.062   1.508  -0.539  0.00  0.00    +0.003 A 
ATOM      5  C   UNL     1       0.043   0.718  -0.873  0.00  0.00    +0.010 A 
ATOM      6  C   UNL     1       1.238   1.370  -1.056  0.00  0.00    +0.001 A 
ATOM      7  C   UNL     1       1.356   2.743  -0.915  0.00  0.00    +0.002 A 
ATOM      8  C   UNL     1       0.280   3.547  -0.580  0.00  0.00    +0.026 A 
ATOM      9  C   UNL     1      -0.946   2.913  -0.388  0.00  0.00    +0.047 A 
ATOM     10  N   UNL     1      -2.181   3.388  -0.057  0.00  0.00    -0.356 N 
ATOM     11  H   UNL     1      -2.395   4.320   0.109  0.00  0.00    +0.166 HD
ATOM     12  C   UNL     1      -3.074   2.353   0.006  0.00  0.00    +0.046 A 
ATOM     13  C   UNL     1      -4.549   2.446   0.312  0.00  0.00    +0.155 C 
ATOM     14  N   UNL     1      -5.004   1.056   0.542  0.00  0.00    -0.273 N 
ATOM     15  C   UNL     1      -5.716   1.019   1.677  0.00  0.00    +0.248 C 
ATOM     16  O   UNL     1      -6.393   0.081   2.050  0.00  0.00    -0.270 OA
ATOM     17  C   UNL     1      -5.553   2.285   2.400  0.00  0.00    +0.042 A 
ATOM     18  C   UNL     1      -4.826   3.195   1.571  0.00  0.00    -0.009 A 
ATOM     19  C   UNL     1      -4.503   4.443   2.009  0.00  0.00    +0.006 A 
ATOM     20  C   UNL     1      -4.941   4.816   3.277  0.00  0.00    +0.000 A 
ATOM     21  C   UNL     1      -5.669   3.958   4.077  0.00  0.00    +0.001 A 
ATOM     22  C   UNL     1      -5.997   2.675   3.665  0.00  0.00    +0.013 A 
ENDROOT
BRANCH   1  24
ATOM     23  N   UNL     1      -5.943  -2.106  -0.723  0.00  0.00    -0.313 N 
ATOM     24  C   UNL     1      -5.257  -1.331   0.140  0.00  0.00    +0.234 C 
ATOM     25  O   UNL     1      -5.154  -1.663   1.302  0.00  0.00    -0.274 OA
ATOM     26  H   UNL     1      -6.026  -1.841  -1.652  0.00  0.00    +0.149 HD
BRANCH  23  27
ATOM     27  C   UNL     1      -6.564  -3.349  -0.258  0.00  0.00    +0.109 C 
BRANCH  27  28
ATOM     28  C   UNL     1      -7.275  -4.032  -1.427  0.00  0.00    +0.054 C 
BRANCH  28  32
ATOM     29  C   UNL     1      -9.086  -7.656  -0.071  0.00  0.00    +0.000 A 
ATOM     30  C   UNL     1      -9.797  -6.471  -0.030  0.00  0.00    +0.000 A 
ATOM     31  C   UNL     1      -9.210  -5.298  -0.469  0.00  0.00    +0.004 A 
ATOM     32  C   UNL     1      -7.914  -5.310  -0.949  0.00  0.00    -0.046 A 
ATOM     33  C   UNL     1      -7.206  -6.497  -0.995  0.00  0.00    +0.004 A 
ATOM     34  C   UNL     1      -7.790  -7.668  -0.551  0.00  0.00    +0.000 A 
ENDBRANCH  28  32
ENDBRANCH  27  28
ENDBRANCH  23  27
ENDBRANCH   1  24
TORSDOF 4
