REMARK  Name = ZINC36072587
REMARK  11 active torsions:
REMARK  status: ('A' for Active; 'I' for Inactive)
REMARK    1  A    between atoms: C_1  and  C_2
REMARK    2  A    between atoms: C_10  and  C_12
REMARK    3  A    between atoms: C_15  and  C_17
REMARK    4  A    between atoms: C_17  and  N_18
REMARK    5  A    between atoms: N_18  and  C_19
REMARK    6  A    between atoms: N_18  and  C_31
REMARK    7  A    between atoms: C_19  and  C_20
REMARK    8  A    between atoms: C_20  and  C_21
REMARK    9  A    between atoms: C_31  and  C_32
REMARK   10  A    between atoms: C_37  and  O_38
REMARK   11  A    between atoms: O_38  and  C_39
REMARK                            x       y       z     vdW  Elec       q    Type
REMARK                         _______ _______ _______ _____ _____    ______ ____
ROOT
ATOM      1  N   UNL     1      -0.011  -7.759  -2.467  0.00  0.00    +0.388 N 
ATOM      2  H   UNL     1      -0.810  -7.234  -2.144  0.00  0.00    -0.081 HD
ENDROOT
BRANCH   1   3
ATOM      3  C   UNL     1       1.145  -6.862  -2.595  0.00  0.00    +0.019 C 
BRANCH   3   7
ATOM      4  C   UNL     1       0.086  -3.781  -4.179  0.00  0.00    +0.164 A 
ATOM      5  C   UNL     1       0.512  -4.481  -5.266  0.00  0.00    +0.230 A 
ATOM      6  O   UNL     1       0.943  -5.672  -4.820  0.00  0.00    -0.449 OA
ATOM      7  C   UNL     1       0.785  -5.703  -3.489  0.00  0.00    +0.179 A 
ATOM      8  N   UNL     1       0.278  -4.575  -3.091  0.00  0.00    -0.210 NA
BRANCH   4  18
ATOM      9  C   UNL     1      -0.157  -0.399   1.640  0.00  0.00    +0.109 C 
ATOM     10  C   UNL     1      -0.341   0.335   0.337  0.00  0.00    +0.213 C 
ATOM     11  O   UNL     1      -0.726   1.485   0.338  0.00  0.00    -0.276 OA
ATOM     12  N   UNL     1      -0.079  -0.287  -0.830  0.00  0.00    -0.299 N 
ATOM     13  C   UNL     1       0.382  -1.682  -0.847  0.00  0.00    +0.126 C 
ATOM     14  C   UNL     1      -0.564  -2.500  -1.736  0.00  0.00    +0.127 C 
ATOM     15  N   UNL     1      -0.734  -1.795  -3.014  0.00  0.00    -0.293 N 
ATOM     16  C   UNL     1      -1.194  -0.399  -2.997  0.00  0.00    +0.127 C 
ATOM     17  C   UNL     1      -0.254   0.416  -2.108  0.00  0.00    +0.126 C 
ATOM     18  C   UNL     1      -0.471  -2.417  -4.180  0.00  0.00    +0.268 C 
ATOM     19  O   UNL     1      -0.695  -1.852  -5.234  0.00  0.00    -0.268 OA
ENDBRANCH   4  18
ENDBRANCH   3   7
ENDBRANCH   1   3
BRANCH   1  20
ATOM     20  C   UNL     1       0.299  -8.823  -1.502  0.00  0.00    -0.073 C 
BRANCH  20  21
ATOM     21  C   UNL     1       0.463  -8.214  -0.108  0.00  0.00    +0.019 C 
BRANCH  21  22
ATOM     22  C   UNL     1       0.869  -9.291   0.865  0.00  0.00    -0.024 A 
ATOM     23  C   UNL     1       0.050 -10.003   1.655  0.00  0.00    +0.087 A 
ATOM     24  N   UNL     1       0.777 -10.889   2.403  0.00  0.00    -0.360 N 
ATOM     25  H   UNL     1       0.404 -11.512   3.047  0.00  0.00    +0.165 HD
ATOM     26  C   UNL     1       2.115 -10.766   2.105  0.00  0.00    +0.047 A 
ATOM     27  C   UNL     1       2.231  -9.764   1.124  0.00  0.00    +0.003 A 
ATOM     28  C   UNL     1       3.487  -9.424   0.620  0.00  0.00    +0.010 A 
ATOM     29  C   UNL     1       4.600 -10.070   1.080  0.00  0.00    +0.001 A 
ATOM     30  C   UNL     1       4.491 -11.062   2.045  0.00  0.00    +0.002 A 
ATOM     31  C   UNL     1       3.261 -11.407   2.562  0.00  0.00    +0.026 A 
ENDBRANCH  21  22
ENDBRANCH  20  21
ENDBRANCH   1  20
BRANCH   1  32
ATOM     32  C   UNL     1      -0.314  -8.357  -3.774  0.00  0.00    -0.039 C 
BRANCH  32  33
ATOM     33  C   UNL     1      -1.589  -9.153  -3.679  0.00  0.00    -0.022 A 
ATOM     34  C   UNL     1      -1.539 -10.531  -3.592  0.00  0.00    +0.005 A 
ATOM     35  C   UNL     1      -2.709 -11.263  -3.505  0.00  0.00    +0.000 A 
ATOM     36  C   UNL     1      -3.932 -10.618  -3.504  0.00  0.00    +0.004 A 
ATOM     37  C   UNL     1      -3.988  -9.241  -3.590  0.00  0.00    +0.046 A 
ATOM     38  C   UNL     1      -2.815  -8.504  -3.672  0.00  0.00    +0.121 A 
BRANCH  38  39
ATOM     39  O   UNL     1      -2.867  -7.148  -3.751  0.00  0.00    -0.495 OA
ATOM     40  C   UNL     1      -4.163  -6.547  -3.739  0.00  0.00    +0.277 C 
ENDBRANCH  38  39
ENDBRANCH  32  33
ENDBRANCH   1  32
TORSDOF 9
