REMARK  Name = ZINC65989044
REMARK  6 active torsions:
REMARK  status: ('A' for Active; 'I' for Inactive)
REMARK    1  A    between atoms: C_1  and  N_2
REMARK    2  A    between atoms: N_2  and  C_3
REMARK    3  A    between atoms: C_7  and  C_10
REMARK    4  A    between atoms: C_10  and  N_11
REMARK    5  A    between atoms: C_17  and  C_20
REMARK    6  A    between atoms: N_22  and  C_23
REMARK                            x       y       z     vdW  Elec       q    Type
REMARK                         _______ _______ _______ _____ _____    ______ ____
ROOT
ATOM      1  N   UNL     1      -1.389  -2.940  -5.351  0.00  0.00    -0.295 N 
ATOM      2  C   UNL     1      -1.637  -3.548  -6.528  0.00  0.00    +0.302 C 
ATOM      3  O   UNL     1      -0.720  -3.818  -7.278  0.00  0.00    -0.253 OA
ATOM      4  N   UNL     1      -2.903  -3.857  -6.872  0.00  0.00    -0.286 N 
ATOM      5  C   UNL     1      -4.032  -3.434  -6.032  0.00  0.00    +0.110 C 
ATOM      6  C   UNL     1      -4.881  -4.663  -5.693  0.00  0.00    +0.032 C 
ATOM      7  C   UNL     1      -5.290  -5.370  -6.987  0.00  0.00    +0.078 C 
ATOM      8  C   UNL     1      -4.039  -5.838  -7.733  0.00  0.00    +0.032 C 
ATOM      9  C   UNL     1      -3.181  -4.617  -8.098  0.00  0.00    +0.110 C 
ATOM     10  H   UNL     1      -2.125  -2.658  -4.785  0.00  0.00    +0.151 HD
ENDROOT
BRANCH   7  11
ATOM     11  C   UNL     1      -6.154  -6.560  -6.659  0.00  0.00    +0.216 C 
ATOM     12  O   UNL     1      -6.416  -6.818  -5.503  0.00  0.00    -0.276 OA
ATOM     13  N   UNL     1      -6.635  -7.337  -7.649  0.00  0.00    -0.312 N 
ATOM     14  H   UNL     1      -6.425  -7.131  -8.573  0.00  0.00    +0.149 HD
BRANCH  13  15
ATOM     15  C   UNL     1      -7.475  -8.495  -7.329  0.00  0.00    +0.073 C 
ATOM     16  C   UNL     1      -6.585  -9.699  -7.014  0.00  0.00    +0.022 C 
ATOM     17  C   UNL     1      -7.462 -10.908  -6.681  0.00  0.00    +0.002 C 
ATOM     18  C   UNL     1      -8.357 -11.234  -7.877  0.00  0.00    +0.000 C 
ATOM     19  C   UNL     1      -9.247 -10.030  -8.192  0.00  0.00    +0.002 C 
ATOM     20  C   UNL     1      -8.370  -8.821  -8.526  0.00  0.00    +0.022 C 
ENDBRANCH  13  15
ENDBRANCH   7  11
BRANCH   1  21
ATOM     21  C   UNL     1      -0.007  -2.704  -4.926  0.00  0.00    +0.142 C 
BRANCH  21  28
ATOM     22  C   UNL     1      -0.016   1.456   0.013  0.00  0.00    +0.130 C 
ATOM     23  N   UNL     1       0.003  -0.009   0.004  0.00  0.00    -0.323 N 
ATOM     24  C   UNL     1       0.024  -0.749   1.269  0.00  0.00    +0.130 C 
ATOM     25  C   UNL     1       0.001  -0.697  -1.203  0.00  0.00    +0.098 A 
ATOM     26  C   UNL     1       0.013  -2.088  -1.205  0.00  0.00    +0.042 A 
ATOM     27  C   UNL     1       0.010  -2.760  -2.414  0.00  0.00    +0.010 A 
ATOM     28  C   UNL     1      -0.004  -2.015  -3.586  0.00  0.00    -0.014 A 
ATOM     29  C   UNL     1      -0.016  -0.636  -3.510  0.00  0.00    +0.089 A 
ATOM     30  N   UNL     1      -0.018  -0.022  -2.342  0.00  0.00    -0.349 N 
ATOM     31  H   UNL     1      -0.031   0.947  -2.318  0.00  0.00    +0.167 HD
ENDBRANCH  21  28
ENDBRANCH   1  21
TORSDOF 4
