REMARK  Name = ZINC63824130
REMARK  3 active torsions:
REMARK  status: ('A' for Active; 'I' for Inactive)
REMARK    1  A    between atoms: C_1  and  C_2
REMARK    2  A    between atoms: C_4  and  C_20
REMARK    3  A    between atoms: C_23  and  O_27
REMARK                            x       y       z     vdW  Elec       q    Type
REMARK                         _______ _______ _______ _____ _____    ______ ____
ROOT
ATOM      1  C   UNL     1       0.054   1.462   0.340  0.00  0.00    +0.067 C 
ATOM      2  C   UNL     1       0.049  -0.045   0.307  0.00  0.00    +0.064 C 
ATOM      3  C   UNL     1      -1.030  -0.793   0.263  0.00  0.00    +0.005 C 
ATOM      4  C   UNL     1      -2.492  -0.499   0.477  0.00  0.00    +0.069 C 
ATOM      5  C   UNL     1      -2.863  -1.301   1.731  0.00  0.00    +0.148 C 
ATOM      6  C   UNL     1      -2.356  -2.708   1.663  0.00  0.00    +0.104 C 
ATOM      7  N   UNL     1      -3.097  -3.692   2.131  0.00  0.00    -0.152 NA
ATOM      8  C   UNL     1      -4.343  -3.509   2.572  0.00  0.00    +0.331 C 
ATOM      9  O   UNL     1      -4.914  -4.434   3.120  0.00  0.00    -0.250 OA
ATOM     10  N   UNL     1      -4.989  -2.340   2.434  0.00  0.00    -0.238 N 
ATOM     11  C   UNL     1      -4.335  -1.257   1.994  0.00  0.00    +0.231 C 
ATOM     12  O   UNL     1      -4.947  -0.226   1.816  0.00  0.00    -0.275 OA
ATOM     13  N   UNL     1      -1.182  -3.054   1.086  0.00  0.00    -0.307 N 
ATOM     14  C   UNL     1      -0.509  -2.212   0.113  0.00  0.00    +0.242 C 
ATOM     15  N   UNL     1       0.931  -2.046   0.258  0.00  0.00    -0.160 NA
ATOM     16  N   UNL     1       1.160  -0.827   0.313  0.00  0.00    -0.157 NA
ATOM     17  H   UNL     1      -5.934  -2.282   2.647  0.00  0.00    +0.159 HD
ATOM     18  H   UNL     1      -0.764  -3.890   1.346  0.00  0.00    +0.149 HD
ENDROOT
BRANCH   4  19
ATOM     19  C   UNL     1      -2.705   0.974   0.708  0.00  0.00    -0.037 A 
ATOM     20  C   UNL     1      -3.187   1.771  -0.315  0.00  0.00    +0.008 A 
ATOM     21  C   UNL     1      -3.382   3.122  -0.106  0.00  0.00    +0.047 A 
ATOM     22  C   UNL     1      -3.095   3.681   1.130  0.00  0.00    +0.135 A 
ATOM     23  C   UNL     1      -2.611   2.880   2.155  0.00  0.00    +0.083 A 
ATOM     24  C   UNL     1      -2.422   1.527   1.943  0.00  0.00    +0.028 A 
ATOM     25 CL   UNL     1      -2.250   3.575   3.705  0.00  0.00    -0.080 Cl
BRANCH  22  26
ATOM     26  O   UNL     1      -3.286   5.011   1.337  0.00  0.00    -0.505 OA
ATOM     27  H   UNL     1      -4.169   5.235   1.662  0.00  0.00    +0.292 HD
ENDBRANCH  22  26
ENDBRANCH   4  19
TORSDOF 2
