REMARK  Name = ZINC39693346
REMARK  7 active torsions:
REMARK  status: ('A' for Active; 'I' for Inactive)
REMARK    1  A    between atoms: C_10  and  C_11
REMARK    2  A    between atoms: C_11  and  C_12
REMARK    3  A    between atoms: N_14  and  C_15
REMARK    4  A    between atoms: C_15  and  C_16
REMARK    5  A    between atoms: C_16  and  N_17
REMARK    6  A    between atoms: C_18  and  C_20
REMARK    7  A    between atoms: C_31  and  C_33
REMARK                            x       y       z     vdW  Elec       q    Type
REMARK                         _______ _______ _______ _____ _____    ______ ____
ROOT
ATOM      1  N   UNL     1       9.967   2.187   4.084  0.00  0.00    -0.314 N 
ATOM      2  C   UNL     1       9.650   3.399   4.581  0.00  0.00    +0.218 C 
ATOM      3  O   UNL     1       9.058   4.202   3.891  0.00  0.00    -0.275 OA
ATOM      4  H   UNL     1      10.440   1.546   4.636  0.00  0.00    +0.149 HD
ENDROOT
BRANCH   2   5
ATOM      5  C   UNL     1      10.031   3.757   5.995  0.00  0.00    +0.100 C 
ATOM      6  C   UNL     1       9.032   4.782   6.578  0.00  0.00    +0.121 C 
ATOM      7  N   UNL     1       9.865   5.690   7.401  0.00  0.00    -0.300 N 
ATOM      8  C   UNL     1      11.107   5.869   6.611  0.00  0.00    +0.115 C 
ATOM      9  C   UNL     1      11.391   4.475   6.017  0.00  0.00    -0.004 C 
ATOM     10  C   UNL     1      11.942   4.608   4.600  0.00  0.00    -0.010 C 
ATOM     11  C   UNL     1      13.321   5.272   4.654  0.00  0.00    -0.082 C 
ATOM     12  N   UNL     1      14.225   4.460   5.478  0.00  0.00    +0.379 N 
ATOM     13  C   UNL     1      13.736   4.415   6.861  0.00  0.00    -0.082 C 
ATOM     14  C   UNL     1      12.375   3.715   6.901  0.00  0.00    -0.010 C 
ATOM     15  C   UNL     1       9.562   6.230   8.598  0.00  0.00    +0.219 C 
ATOM     16  O   UNL     1      10.356   6.962   9.151  0.00  0.00    -0.275 OA
ATOM     17  H   UNL     1      14.266   3.523   5.106  0.00  0.00    -0.086 HD
ATOM     18  H   UNL     1      15.148   4.867   5.462  0.00  0.00    -0.086 HD
BRANCH  15  19
ATOM     19  C   UNL     1       8.238   5.926   9.249  0.00  0.00    +0.079 C 
ATOM     20  C   UNL     1       7.099   6.401   8.341  0.00  0.00    +0.041 C 
ATOM     21  C   UNL     1       5.761   6.160   9.045  0.00  0.00    +0.160 C 
ATOM     22  O   UNL     1       5.754   6.844  10.299  0.00  0.00    -0.380 OA
ATOM     23  C   UNL     1       6.767   6.408  11.207  0.00  0.00    +0.160 C 
ATOM     24  C   UNL     1       8.146   6.659  10.591  0.00  0.00    +0.041 C 
ENDBRANCH  15  19
ENDBRANCH   2   5
BRANCH   1  25
ATOM     25  C   UNL     1       9.596   1.839   2.710  0.00  0.00    +0.123 C 
BRANCH  25  26
ATOM     26  C   UNL     1      10.069   0.418   2.399  0.00  0.00    +0.123 C 
BRANCH  26  29
ATOM     27  C   UNL     1      10.016  -1.142   0.527  0.00  0.00    +0.217 C 
ATOM     28  O   UNL     1      10.608  -1.944   1.218  0.00  0.00    -0.275 OA
ATOM     29  N   UNL     1       9.699   0.070   1.025  0.00  0.00    -0.314 N 
ATOM     30  H   UNL     1       9.226   0.712   0.472  0.00  0.00    +0.149 HD
BRANCH  27  31
ATOM     31  C   UNL     1       9.635  -1.500  -0.886  0.00  0.00    +0.131 C 
BRANCH  31  41
ATOM     32  C   UNL     1       7.765  -6.211  -0.172  0.00  0.00    +0.001 A 
ATOM     33  C   UNL     1       7.318  -4.924   0.120  0.00  0.00    +0.001 A 
ATOM     34  C   UNL     1       8.063  -3.832  -0.204  0.00  0.00    +0.009 A 
ATOM     35  C   UNL     1       9.303  -4.002  -0.843  0.00  0.00    -0.014 A 
ATOM     36  C   UNL     1       9.759  -5.311  -1.140  0.00  0.00    -0.018 A 
ATOM     37  C   UNL     1       8.961  -6.414  -0.790  0.00  0.00    +0.008 A 
ATOM     38  C   UNL     1      10.999  -5.481  -1.779  0.00  0.00    +0.008 A 
ATOM     39  C   UNL     1      11.745  -4.389  -2.103  0.00  0.00    +0.001 A 
ATOM     40  C   UNL     1      11.297  -3.102  -1.810  0.00  0.00    +0.005 A 
ATOM     41  C   UNL     1      10.101  -2.900  -1.193  0.00  0.00    -0.031 A 
ENDBRANCH  31  41
ENDBRANCH  27  31
ENDBRANCH  26  29
ENDBRANCH  25  26
ENDBRANCH   1  25
TORSDOF 7
