REMARK  Name = ZINC36724799
REMARK  3 active torsions:
REMARK  status: ('A' for Active; 'I' for Inactive)
REMARK    1  A    between atoms: C_6  and  C_7
REMARK    2  A    between atoms: C_9  and  C_13
REMARK    3  A    between atoms: N_17  and  N_18
REMARK                            x       y       z     vdW  Elec       q    Type
REMARK                         _______ _______ _______ _____ _____    ______ ____
ROOT
ATOM      1  C   UNL     1      -1.272  -0.766   0.011  0.00  0.00    +0.093 A 
ATOM      2  C   UNL     1      -1.393  -2.165   0.010  0.00  0.00    +0.061 A 
ATOM      3  C   UNL     1      -2.726  -2.468   0.020  0.00  0.00    +0.105 A 
ATOM      4  N   UNL     1      -3.415  -1.289   0.027  0.00  0.00    -0.273 N 
ATOM      5  H   UNL     1      -4.380  -1.192   0.035  0.00  0.00    +0.189 HD
ATOM      6  N   UNL     1      -2.481  -0.245   0.026  0.00  0.00    -0.173 NA
ENDROOT
BRANCH   1  12
ATOM      7  C   UNL     1      -0.017   1.389   0.010  0.00  0.00    +0.013 A 
ATOM      8  C   UNL     1       1.170   2.093   0.002  0.00  0.00    +0.039 A 
ATOM      9  C   UNL     1       2.379   1.417  -0.013  0.00  0.00    +0.123 A 
ATOM     10  C   UNL     1       2.402   0.032  -0.022  0.00  0.00    +0.039 A 
ATOM     11  C   UNL     1       1.220  -0.680  -0.014  0.00  0.00    +0.013 A 
ATOM     12  C   UNL     1       0.002  -0.004   0.002  0.00  0.00    +0.002 A 
ATOM     13  F   UNL     1       3.538   2.110  -0.021  0.00  0.00    -0.205 F 
ENDBRANCH   1  12
BRANCH   3  14
ATOM     14  C   UNL     1      -3.312  -3.820   0.023  0.00  0.00    +0.199 A 
ATOM     15  N   UNL     1      -2.688  -4.943  -0.252  0.00  0.00    -0.125 NA
ATOM     16  N   UNL     1      -3.502  -5.933  -0.154  0.00  0.00    -0.120 NA
ATOM     17  C   UNL     1      -4.696  -5.504   0.190  0.00  0.00    +0.220 A 
ATOM     18  N   UNL     1      -4.617  -4.146   0.319  0.00  0.00    -0.222 N 
ATOM     19  S   UNL     1      -6.130  -6.496   0.442  0.00  0.00    -0.008 SA
BRANCH  18  20
ATOM     20  N   UNL     1      -5.623  -3.290   0.668  0.00  0.00    -0.294 N 
ATOM     21  H   UNL     1      -6.120  -2.966  -0.148  0.00  0.00    +0.163 HD
ATOM     22  H   UNL     1      -6.253  -3.722   1.327  0.00  0.00    +0.163 HD
ENDBRANCH  18  20
ENDBRANCH   3  14
TORSDOF 3
