REMARK  Name = ZINC41253080
REMARK  8 active torsions:
REMARK  status: ('A' for Active; 'I' for Inactive)
REMARK    1  A    between atoms: C_1  and  C_2
REMARK    2  A    between atoms: C_5  and  C_9
REMARK    3  A    between atoms: C_6  and  C_8
REMARK    4  A    between atoms: N_14  and  C_16
REMARK    5  A    between atoms: C_16  and  C_17
REMARK    6  A    between atoms: C_17  and  C_18
REMARK    7  A    between atoms: C_23  and  C_26
REMARK    8  A    between atoms: C_23  and  N_29
REMARK                            x       y       z     vdW  Elec       q    Type
REMARK                         _______ _______ _______ _____ _____    ______ ____
ROOT
ATOM      1  C   UNL     1       2.438  -7.570   2.919  0.00  0.00    +0.217 C 
ATOM      2  O   UNL     1       1.271  -7.875   3.043  0.00  0.00    -0.276 OA
ATOM      3  N   UNL     1       3.342  -7.976   3.832  0.00  0.00    -0.302 N 
ATOM      4  C   UNL     1       4.758  -7.610   3.698  0.00  0.00    +0.107 C 
ATOM      5  C   UNL     1       5.221  -6.946   4.998  0.00  0.00    +0.016 C 
ATOM      6  C   UNL     1       4.921  -7.875   6.176  0.00  0.00    +0.015 C 
ATOM      7  C   UNL     1       3.413  -8.116   6.267  0.00  0.00    +0.016 C 
ATOM      8  C   UNL     1       2.928  -8.789   4.984  0.00  0.00    +0.107 C 
ENDROOT
BRANCH   6   9
ATOM      9  N   UNL     1       5.394  -7.256   7.421  0.00  0.00    +0.389 N 
ATOM     10  C   UNL     1       6.853  -7.102   7.367  0.00  0.00    -0.077 C 
ATOM     11  C   UNL     1       7.341  -6.384   8.627  0.00  0.00    -0.019 C 
ATOM     12  C   UNL     1       6.959  -7.209   9.859  0.00  0.00    -0.004 C 
ATOM     13  C   UNL     1       5.443  -7.425   9.866  0.00  0.00    -0.019 C 
ATOM     14  C   UNL     1       5.025  -8.105   8.560  0.00  0.00    -0.077 C 
ATOM     15  H   UNL     1       4.966  -6.348   7.528  0.00  0.00    -0.080 HD
ENDBRANCH   6   9
BRANCH   6  16
ATOM     16  C   UNL     1       5.628  -9.190   5.971  0.00  0.00    +0.200 C 
ATOM     17  O   UNL     1       6.505  -9.284   5.138  0.00  0.00    -0.278 OA
ATOM     18  N   UNL     1       5.285 -10.263   6.712  0.00  0.00    -0.330 N 
ATOM     19  H   UNL     1       4.536 -10.209   7.325  0.00  0.00    +0.145 HD
ATOM     20  H   UNL     1       5.788 -11.088   6.631  0.00  0.00    +0.145 HD
ENDBRANCH   6  16
BRANCH   1  21
ATOM     21  C   UNL     1       2.878  -6.738   1.742  0.00  0.00    +0.119 C 
BRANCH  21  22
ATOM     22  C   UNL     1       1.667  -6.414   0.865  0.00  0.00    +0.156 C 
BRANCH  22  28
ATOM     23  C   UNL     1       2.466  -3.541  -1.157  0.00  0.00    +0.092 A 
ATOM     24  C   UNL     1       2.884  -4.093  -2.390  0.00  0.00    +0.035 A 
ATOM     25  C   UNL     1       2.888  -5.450  -2.521  0.00  0.00    +0.074 A 
ATOM     26  C   UNL     1       2.474  -6.223  -1.413  0.00  0.00    +0.267 A 
ATOM     27  O   UNL     1       2.462  -7.441  -1.483  0.00  0.00    -0.266 OA
ATOM     28  N   UNL     1       2.094  -5.605  -0.279  0.00  0.00    -0.228 N 
ATOM     29  N   UNL     1       2.100  -4.325  -0.171  0.00  0.00    -0.168 NA
BRANCH  23  34
ATOM     30  C   UNL     1       2.395   2.175  -0.449  0.00  0.00    +0.044 C 
ATOM     31  C   UNL     1       2.413   0.679  -0.634  0.00  0.00    -0.050 A 
ATOM     32  C   UNL     1       1.229  -0.035  -0.593  0.00  0.00    +0.004 A 
ATOM     33  C   UNL     1       1.240  -1.405  -0.762  0.00  0.00    +0.010 A 
ATOM     34  C   UNL     1       2.448  -2.068  -0.975  0.00  0.00    +0.005 A 
ATOM     35  C   UNL     1       3.637  -1.344  -1.016  0.00  0.00    -0.041 A 
ATOM     36  C   UNL     1       3.614   0.027  -0.851  0.00  0.00    +0.007 A 
ATOM     37  C   UNL     1       4.946  -2.054  -1.246  0.00  0.00    +0.044 C 
ENDBRANCH  23  34
ENDBRANCH  22  28
ENDBRANCH  21  22
ENDBRANCH   1  21
TORSDOF 6
