REMARK  Name = ZINC20882266
REMARK  10 active torsions:
REMARK  status: ('A' for Active; 'I' for Inactive)
REMARK    1  A    between atoms: C_1  and  C_2
REMARK    2  A    between atoms: C_2  and  O_3
REMARK    3  A    between atoms: O_3  and  C_4
REMARK    4  A    between atoms: C_7  and  C_10
REMARK    5  A    between atoms: C_15  and  C_25
REMARK    6  A    between atoms: C_28  and  O_31
REMARK    7  A    between atoms: O_31  and  C_32
REMARK    8  A    between atoms: C_32  and  C_33
REMARK    9  A    between atoms: C_33  and  C_34
REMARK   10  A    between atoms: C_33  and  C_35
REMARK                            x       y       z     vdW  Elec       q    Type
REMARK                         _______ _______ _______ _____ _____    ______ ____
ROOT
ATOM      1  C   UNL     1       4.887  -7.787  -0.227  0.00  0.00    +0.032 C 
ATOM      2  C   UNL     1       3.790  -7.596   0.820  0.00  0.00    +0.059 C 
ATOM      3  C   UNL     1       2.482  -7.233   0.135  0.00  0.00    +0.017 C 
ATOM      4  C   UNL     1       2.484  -6.502  -0.991  0.00  0.00    +0.036 C 
ATOM      5  C   UNL     1       1.264  -6.038  -1.751  0.00  0.00    +0.136 C 
ATOM      6  N   UNL     1       0.026  -6.660  -1.330  0.00  0.00    -0.331 N 
ATOM      7  C   UNL     1      -0.485  -6.455  -0.050  0.00  0.00    +0.049 A 
ATOM      8  C   UNL     1      -1.683  -5.789   0.154  0.00  0.00    +0.025 A 
ATOM      9  C   UNL     1      -2.128  -5.569   1.446  0.00  0.00    +0.002 A 
ATOM     10  C   UNL     1      -1.384  -6.006   2.527  0.00  0.00    +0.002 A 
ATOM     11  C   UNL     1      -0.195  -6.686   2.326  0.00  0.00    +0.025 A 
ATOM     12  C   UNL     1       0.241  -6.925   1.035  0.00  0.00    +0.052 A 
ATOM     13  N   UNL     1       1.369  -7.691   0.762  0.00  0.00    -0.316 N 
ATOM     14  C   UNL     1       3.708  -6.097  -1.576  0.00  0.00    +0.163 C 
ATOM     15  O   UNL     1       3.679  -5.425  -2.588  0.00  0.00    -0.292 OA
ATOM     16  C   UNL     1       5.038  -6.466  -0.991  0.00  0.00    +0.088 C 
ATOM     17  H   UNL     1      -0.529  -7.307  -2.025  0.00  0.00    +0.147 HD
ATOM     18  H   UNL     1       1.316  -8.739   1.094  0.00  0.00    +0.152 HD
ENDROOT
BRANCH   1  22
ATOM     19  C   UNL     1       8.571  -8.771   1.704  0.00  0.00    +0.121 A 
ATOM     20  C   UNL     1       8.026  -9.635   0.765  0.00  0.00    +0.046 A 
ATOM     21  C   UNL     1       6.835  -9.314   0.142  0.00  0.00    +0.007 A 
ATOM     22  C   UNL     1       6.186  -8.134   0.454  0.00  0.00    -0.043 A 
ATOM     23  C   UNL     1       6.730  -7.268   1.385  0.00  0.00    +0.007 A 
ATOM     24  C   UNL     1       7.918  -7.587   2.014  0.00  0.00    +0.046 A 
BRANCH  19  25
ATOM     25  O   UNL     1       9.742  -9.084   2.318  0.00  0.00    -0.492 OA
BRANCH  25  27
ATOM     26  C   UNL     1      11.560  -8.669   3.854  0.00  0.00    +0.048 C 
ATOM     27  C   UNL     1      10.244  -8.148   3.273  0.00  0.00    +0.225 C 
ENDBRANCH  25  27
ENDBRANCH  19  25
ENDBRANCH   1  22
BRANCH   5  28
ATOM     28  C   UNL     1       1.132  -4.547  -1.580  0.00  0.00    -0.023 A 
ATOM     29  C   UNL     1       0.865  -4.016  -0.331  0.00  0.00    +0.009 A 
ATOM     30  C   UNL     1       0.744  -2.649  -0.172  0.00  0.00    +0.046 A 
ATOM     31  C   UNL     1       0.890  -1.809  -1.266  0.00  0.00    +0.121 A 
ATOM     32  C   UNL     1       1.151  -2.344  -2.519  0.00  0.00    +0.046 A 
ATOM     33  C   UNL     1       1.277  -3.711  -2.672  0.00  0.00    +0.009 A 
BRANCH  31  34
ATOM     34  O   UNL     1       0.771  -0.464  -1.111  0.00  0.00    -0.492 OA
BRANCH  34  35
ATOM     35  C   UNL     1       0.933   0.340  -2.281  0.00  0.00    +0.232 C 
BRANCH  35  36
ATOM     36  C   UNL     1       0.766   1.816  -1.913  0.00  0.00    +0.020 C 
ATOM     37  C   UNL     1       1.896   2.238  -0.972  0.00  0.00    +0.010 C 
ATOM     38  C   UNL     1       0.816   2.667  -3.184  0.00  0.00    +0.010 C 
ENDBRANCH  35  36
ENDBRANCH  34  35
ENDBRANCH  31  34
ENDBRANCH   5  28
TORSDOF 7
