REMARK  Name = ZINC08919205
REMARK  6 active torsions:
REMARK  status: ('A' for Active; 'I' for Inactive)
REMARK    1  A    between atoms: C_6  and  N_7
REMARK    2  A    between atoms: C_8  and  C_10
REMARK    3  A    between atoms: C_14  and  N_15
REMARK    4  A    between atoms: C_16  and  C_18
REMARK    5  A    between atoms: C_18  and  C_19
REMARK    6  A    between atoms: C_19  and  N_55
REMARK                            x       y       z     vdW  Elec       q    Type
REMARK                         _______ _______ _______ _____ _____    ______ ____
ROOT
ATOM      1  C   UNL     1       3.640   1.747  -0.029  0.00  0.00    +0.069 A 
ATOM      2  C   UNL     1       4.765   0.812  -0.034  0.00  0.00    -0.023 A 
ATOM      3  C   UNL     1       4.426  -0.490  -0.038  0.00  0.00    -0.004 A 
ATOM      4  S   UNL     1       2.650  -0.494  -0.030  0.00  0.00    -0.077 S 
ATOM      5  C   UNL     1       2.363   1.213  -0.020  0.00  0.00    +0.084 A 
ATOM      6  C   UNL     1       5.633  -1.387  -0.046  0.00  0.00    +0.043 C 
ATOM      7  C   UNL     1       6.800  -0.474   0.391  0.00  0.00    +0.010 C 
ATOM      8  C   UNL     1       6.291   0.915  -0.043  0.00  0.00    +0.037 C 
ENDROOT
BRANCH   1  10
ATOM      9  N   UNL     1       3.948   3.864  -1.198  0.00  0.00    -0.281 N 
ATOM     10  C   UNL     1       3.858   3.197  -0.030  0.00  0.00    +0.251 C 
ATOM     11  O   UNL     1       3.956   3.798   1.024  0.00  0.00    -0.270 OA
ATOM     12  H   UNL     1       3.937   3.377  -2.036  0.00  0.00    +0.155 HD
BRANCH   9  18
ATOM     13  C   UNL     1       3.462   6.002  -2.209  0.00  0.00    +0.024 A 
ATOM     14  C   UNL     1       3.567   7.379  -2.205  0.00  0.00    +0.017 A 
ATOM     15  C   UNL     1       4.277   8.017  -1.204  0.00  0.00    +0.018 A 
ATOM     16  C   UNL     1       4.878   7.278  -0.200  0.00  0.00    +0.017 A 
ATOM     17  C   UNL     1       4.770   5.902  -0.195  0.00  0.00    +0.024 A 
ATOM     18  C   UNL     1       4.059   5.259  -1.199  0.00  0.00    +0.034 A 
ATOM     19 BR   UNL     1       4.427   9.902  -1.206  0.00  0.00    -0.050 Br
ENDBRANCH   9  18
ENDBRANCH   1  10
BRANCH   5  20
ATOM     20  N   UNL     1       1.149   1.883  -0.012  0.00  0.00    -0.279 N 
ATOM     21  C   UNL     1      -0.005   1.186  -0.010  0.00  0.00    +0.216 C 
ATOM     22  O   UNL     1       0.019  -0.026  -0.015  0.00  0.00    -0.276 OA
ATOM     23  H   UNL     1       1.130   2.853  -0.007  0.00  0.00    +0.155 HD
BRANCH  21  24
ATOM     24  C   UNL     1      -1.324   1.914  -0.006  0.00  0.00    +0.077 C 
BRANCH  24  25
ATOM     25  C   UNL     1      -2.468   0.898  -0.012  0.00  0.00    -0.070 C 
BRANCH  25  31
ATOM     26  C   UNL     1      -3.943   2.348   1.245  0.00  0.00    -0.079 C 
ATOM     27  C   UNL     1      -5.219   3.188   1.155  0.00  0.00    -0.019 C 
ATOM     28  C   UNL     1      -6.415   2.266   0.900  0.00  0.00    -0.004 C 
ATOM     29  C   UNL     1      -6.170   1.471  -0.386  0.00  0.00    -0.019 C 
ATOM     30  C   UNL     1      -4.867   0.681  -0.251  0.00  0.00    -0.079 C 
ATOM     31  N   UNL     1      -3.753   1.627  -0.031  0.00  0.00    +0.380 N 
ATOM     32  H   UNL     1      -3.738   2.308  -0.799  0.00  0.00    -0.082 HD
ENDBRANCH  25  31
ENDBRANCH  24  25
ENDBRANCH  21  24
ENDBRANCH   5  20
TORSDOF 6
