REMARK  Name = ZINC23858804
REMARK  7 active torsions:
REMARK  status: ('A' for Active; 'I' for Inactive)
REMARK    1  A    between atoms: C_1  and  N_2
REMARK    2  A    between atoms: C_10  and  C_12
REMARK    3  A    between atoms: C_12  and  C_14
REMARK    4  A    between atoms: C_12  and  N_28
REMARK    5  A    between atoms: C_14  and  N_15
REMARK    6  A    between atoms: C_16  and  C_18
REMARK    7  A    between atoms: C_23  and  N_24
REMARK                            x       y       z     vdW  Elec       q    Type
REMARK                         _______ _______ _______ _____ _____    ______ ____
ROOT
ATOM      1  C   UNL     1       2.316  -2.867   5.079  0.00  0.00    +0.104 C 
ENDROOT
BRANCH   1  11
ATOM      2  C   UNL     1      -3.957  -2.913   5.826  0.00  0.00    +0.129 C 
ATOM      3  N   UNL     1      -3.329  -2.929   4.498  0.00  0.00    -0.333 N 
ATOM      4  C   UNL     1      -3.880  -1.875   3.644  0.00  0.00    +0.105 C 
ATOM      5  C   UNL     1      -3.170  -1.922   2.285  0.00  0.00    +0.024 C 
ATOM      6  C   UNL     1      -1.717  -1.493   2.497  0.00  0.00    +0.038 C 
ATOM      7  C   UNL     1      -1.139  -2.226   3.682  0.00  0.00    -0.026 A 
ATOM      8  C   UNL     1      -1.940  -2.880   4.601  0.00  0.00    +0.033 A 
ATOM      9  C   UNL     1      -1.348  -3.528   5.686  0.00  0.00    +0.024 A 
ATOM     10  C   UNL     1       0.022  -3.522   5.840  0.00  0.00    +0.007 A 
ATOM     11  C   UNL     1       0.818  -2.872   4.915  0.00  0.00    -0.028 A 
ATOM     12  C   UNL     1       0.238  -2.227   3.841  0.00  0.00    +0.010 A 
ENDBRANCH   1  11
BRANCH   1  13
ATOM     13  N   UNL     1       2.855  -4.179   4.697  0.00  0.00    -0.290 NA
ATOM     14  C   UNL     1       2.759  -4.385   3.245  0.00  0.00    +0.113 C 
ATOM     15  C   UNL     1       3.384  -5.735   2.884  0.00  0.00    +0.175 C 
ATOM     16  O   UNL     1       2.729  -6.770   3.622  0.00  0.00    -0.377 OA
ATOM     17  C   UNL     1       2.803  -6.601   5.041  0.00  0.00    +0.175 C 
ATOM     18  C   UNL     1       2.172  -5.260   5.423  0.00  0.00    +0.113 C 
ENDBRANCH   1  13
BRANCH   1  19
ATOM     19  C   UNL     1       2.668  -2.576   6.540  0.00  0.00    +0.128 C 
BRANCH  19  20
ATOM     20  N   UNL     1       4.117  -2.696   6.726  0.00  0.00    -0.309 N 
ATOM     21  C   UNL     1       4.649  -2.580   7.958  0.00  0.00    +0.246 C 
ATOM     22  O   UNL     1       3.929  -2.376   8.915  0.00  0.00    -0.270 OA
ATOM     23  H   UNL     1       4.769  -2.881   5.859  0.00  0.00    +0.149 HD
BRANCH  21  24
ATOM     24  C   UNL     1       6.111  -2.702   8.146  0.00  0.00    +0.068 A 
ATOM     25  C   UNL     1       6.784  -3.837   7.692  0.00  0.00    +0.035 A 
ATOM     26  C   UNL     1       8.149  -3.944   7.870  0.00  0.00    +0.042 A 
ATOM     27  C   UNL     1       8.849  -2.927   8.498  0.00  0.00    +0.022 A 
ATOM     28  C   UNL     1       8.187  -1.800   8.950  0.00  0.00    +0.035 A 
ATOM     29  C   UNL     1       6.824  -1.679   8.773  0.00  0.00    +0.138 A 
ATOM     30 CL   UNL     1       8.989  -5.354   7.305  0.00  0.00    -0.084 Cl
BRANCH  29  31
ATOM     31  N   UNL     1       6.119  -0.469   9.253  0.00  0.00    +0.057 N 
ATOM     32  O   UNL     1       6.716   0.363   9.911  0.00  0.00    -0.126 OA
ATOM     33  O   UNL     1       4.941  -0.306   8.989  0.00  0.00    -0.126 OA
ENDBRANCH  29  31
ENDBRANCH  21  24
ENDBRANCH  19  20
ENDBRANCH   1  19
TORSDOF 6
