REMARK  Name = ZINC12389028
REMARK  6 active torsions:
REMARK  status: ('A' for Active; 'I' for Inactive)
REMARK    1  A    between atoms: C_4  and  C_7
REMARK    2  A    between atoms: C_7  and  C_8
REMARK    3  A    between atoms: C_8  and  N_9
REMARK    4  A    between atoms: C_10  and  C_12
REMARK    5  A    between atoms: C_29  and  C_32
REMARK    6  A    between atoms: C_32  and  C_33
REMARK                            x       y       z     vdW  Elec       q    Type
REMARK                         _______ _______ _______ _____ _____    ______ ____
ROOT
ATOM      1  C   UNL     1       2.316   1.414   0.857  0.00  0.00    +0.122 C 
ATOM      2  C   UNL     1       1.267   2.127   0.001  0.00  0.00    +0.114 C 
ATOM      3  C   UNL     1      -0.016   1.340   0.009  0.00  0.00    +0.219 C 
ATOM      4  O   UNL     1      -1.078   1.925   0.018  0.00  0.00    -0.275 OA
ATOM      5  N   UNL     1       0.002  -0.004   0.002  0.00  0.00    -0.270 N 
ATOM      6  C   UNL     1       1.194  -0.700   0.109  0.00  0.00    +0.138 A 
ATOM      7  C   UNL     1       2.349  -0.047   0.498  0.00  0.00    +0.069 A 
ATOM      8  C   UNL     1       3.546  -0.767   0.571  0.00  0.00    +0.258 A 
ATOM      9  O   UNL     1       4.584  -0.217   0.904  0.00  0.00    -0.267 OA
ATOM     10  N   UNL     1       3.530  -2.082   0.267  0.00  0.00    -0.295 N 
ATOM     11  H   UNL     1       4.350  -2.599   0.304  0.00  0.00    +0.172 HD
ATOM     12  C   UNL     1       2.363  -2.684  -0.092  0.00  0.00    +0.200 A 
ATOM     13  N   UNL     1       1.235  -2.009  -0.166  0.00  0.00    -0.200 NA
ATOM     14  N   UNL     1       2.362  -4.022  -0.383  0.00  0.00    -0.301 N 
ATOM     15  C   UNL     1       3.413  -4.350  -1.356  0.00  0.00    +0.108 C 
ATOM     16  C   UNL     1       3.478  -5.867  -1.546  0.00  0.00    +0.023 C 
ATOM     17  C   UNL     1       2.121  -6.372  -2.043  0.00  0.00    -0.004 C 
ATOM     18  C   UNL     1       1.038  -5.976  -1.037  0.00  0.00    +0.023 C 
ATOM     19  C   UNL     1       1.043  -4.456  -0.861  0.00  0.00    +0.108 C 
ATOM     20  H   UNL     1      -0.832  -0.493  -0.080  0.00  0.00    +0.156 HD
ENDROOT
BRANCH   1  22
ATOM     21  N   UNL     1       1.872   2.794   2.862  0.00  0.00    -0.314 N 
ATOM     22  C   UNL     1       1.962   1.565   2.314  0.00  0.00    +0.221 C 
ATOM     23  O   UNL     1       1.757   0.582   2.994  0.00  0.00    -0.275 OA
ATOM     24  H   UNL     1       2.036   3.580   2.318  0.00  0.00    +0.149 HD
BRANCH  21  25
ATOM     25  C   UNL     1       1.528   2.941   4.278  0.00  0.00    +0.109 C 
BRANCH  25  26
ATOM     26  C   UNL     1       1.494   4.426   4.643  0.00  0.00    +0.054 C 
BRANCH  26  30
ATOM     27  C   UNL     1       0.489   4.856   8.773  0.00  0.00    +0.000 A 
ATOM     28  C   UNL     1       1.813   4.743   8.391  0.00  0.00    +0.000 A 
ATOM     29  C   UNL     1       2.138   4.603   7.055  0.00  0.00    +0.004 A 
ATOM     30  C   UNL     1       1.139   4.578   6.100  0.00  0.00    -0.046 A 
ATOM     31  C   UNL     1      -0.184   4.696   6.481  0.00  0.00    +0.004 A 
ATOM     32  C   UNL     1      -0.509   4.830   7.817  0.00  0.00    +0.000 A 
ENDBRANCH  26  30
ENDBRANCH  25  26
ENDBRANCH  21  25
ENDBRANCH   1  22
BRANCH  17  33
ATOM     33  C   UNL     1       2.160  -7.896  -2.179  0.00  0.00    +0.038 C 
BRANCH  33  34
ATOM     34  C   UNL     1       3.140  -8.279  -3.258  0.00  0.00    -0.047 A 
ATOM     35  C   UNL     1       2.711  -8.410  -4.566  0.00  0.00    +0.003 A 
ATOM     36  C   UNL     1       3.611  -8.758  -5.557  0.00  0.00    +0.000 A 
ATOM     37  C   UNL     1       4.937  -8.983  -5.238  0.00  0.00    +0.000 A 
ATOM     38  C   UNL     1       5.364  -8.856  -3.930  0.00  0.00    +0.000 A 
ATOM     39  C   UNL     1       4.466  -8.505  -2.940  0.00  0.00    +0.003 A 
ENDBRANCH  33  34
ENDBRANCH  17  33
TORSDOF 6
