REMARK  Name = ZINC00056340
REMARK  4 active torsions:
REMARK  status: ('A' for Active; 'I' for Inactive)
REMARK    1  A    between atoms: C_4  and  C_7
REMARK    2  A    between atoms: C_7  and  N_8
REMARK    3  A    between atoms: N_16  and  C_20
REMARK    4  A    between atoms: C_20  and  C_21
REMARK                            x       y       z     vdW  Elec       q    Type
REMARK                         _______ _______ _______ _____ _____    ______ ____
ROOT
ATOM      1  N   UNL     1       4.152  -0.952   1.338  0.00  0.00    -0.259 N 
ATOM      2  C   UNL     1       4.979  -0.082   2.164  0.00  0.00    +0.205 C 
ATOM      3  C   UNL     1       4.285  -0.432   3.537  0.00  0.00    +0.205 C 
ATOM      4  N   UNL     1       4.167  -1.826   3.436  0.00  0.00    -0.277 N 
ATOM      5  C   UNL     1       3.867  -2.042   2.112  0.00  0.00    +0.305 C 
ATOM      6  O   UNL     1       3.406  -3.081   1.682  0.00  0.00    -0.253 OA
ATOM      7  N   UNL     1       4.753   0.595   4.365  0.00  0.00    -0.259 N 
ATOM      8  C   UNL     1       4.857   1.691   3.547  0.00  0.00    +0.305 C 
ATOM      9  O   UNL     1       5.010   2.828   3.952  0.00  0.00    -0.253 OA
ATOM     10  N   UNL     1       4.765   1.358   2.203  0.00  0.00    -0.277 N 
ATOM     11  H   UNL     1       4.270  -2.485   4.140  0.00  0.00    +0.152 HD
ATOM     12  H   UNL     1       4.605   1.946   1.448  0.00  0.00    +0.152 HD
ENDROOT
BRANCH   1  13
ATOM     13  C   UNL     1       3.711  -0.707  -0.038  0.00  0.00    +0.146 C 
BRANCH  13  17
ATOM     14  C   UNL     1      -0.017   1.378   0.010  0.00  0.00    +0.000 A 
ATOM     15  C   UNL     1       1.171   2.086   0.002  0.00  0.00    +0.000 A 
ATOM     16  C   UNL     1       2.377   1.411  -0.013  0.00  0.00    +0.005 A 
ATOM     17  C   UNL     1       2.396   0.029  -0.020  0.00  0.00    -0.030 A 
ATOM     18  C   UNL     1       1.208  -0.679  -0.012  0.00  0.00    +0.005 A 
ATOM     19  C   UNL     1       0.002  -0.004   0.002  0.00  0.00    +0.000 A 
ENDBRANCH  13  17
ENDBRANCH   1  13
BRANCH   7  20
ATOM     20  C   UNL     1       5.064   0.515   5.795  0.00  0.00    +0.146 C 
BRANCH  20  21
ATOM     21  C   UNL     1       6.509   0.130   5.974  0.00  0.00    -0.030 A 
ATOM     22  C   UNL     1       6.864  -1.204   6.054  0.00  0.00    +0.005 A 
ATOM     23  C   UNL     1       8.190  -1.558   6.218  0.00  0.00    +0.000 A 
ATOM     24  C   UNL     1       9.162  -0.578   6.302  0.00  0.00    +0.000 A 
ATOM     25  C   UNL     1       8.807   0.755   6.221  0.00  0.00    +0.000 A 
ATOM     26  C   UNL     1       7.482   1.109   6.053  0.00  0.00    +0.005 A 
ENDBRANCH  20  21
ENDBRANCH   7  20
TORSDOF 4
