REMARK  Name = ZINC38635417
REMARK  4 active torsions:
REMARK  status: ('A' for Active; 'I' for Inactive)
REMARK    1  A    between atoms: C_1  and  C_2
REMARK    2  A    between atoms: C_1  and  C_10
REMARK    3  A    between atoms: C_3  and  C_4
REMARK    4  A    between atoms: C_4  and  C_5
REMARK                            x       y       z     vdW  Elec       q    Type
REMARK                         _______ _______ _______ _____ _____    ______ ____
ROOT
ATOM      1  C   UNL     1       0.002  -0.004   0.002  0.00  0.00    -0.023 C 
ATOM      2  C   UNL     1      -0.631  -0.673   0.934  0.00  0.00    -0.023 C 
ENDROOT
BRANCH   1   3
ATOM      3  C   UNL     1      -0.018   1.503   0.010  0.00  0.00    +0.107 C 
BRANCH   3   4
ATOM      4  C   UNL     1       1.395   2.024  -0.000  0.00  0.00    +0.180 A 
ATOM      5  N   UNL     1       2.127   2.304  -1.070  0.00  0.00    -0.111 NA
ATOM      6  N   UNL     1       3.274   2.724  -0.658  0.00  0.00    -0.021 NA
ATOM      7  N   UNL     1       3.286   2.717   0.629  0.00  0.00    -0.021 NA
ATOM      8  N   UNL     1       2.145   2.298   1.058  0.00  0.00    -0.111 NA
ENDBRANCH   3   4
ENDBRANCH   1   3
BRANCH   2   9
ATOM      9  C   UNL     1      -0.610  -2.180   0.926  0.00  0.00    +0.107 C 
BRANCH   9  10
ATOM     10  C   UNL     1      -0.105  -2.683   2.253  0.00  0.00    +0.180 A 
ATOM     11  N   UNL     1      -0.836  -2.962   3.323  0.00  0.00    -0.111 NA
ATOM     12  N   UNL     1      -0.034  -3.363   4.249  0.00  0.00    -0.021 NA
ATOM     13  N   UNL     1       1.172  -3.344   3.797  0.00  0.00    -0.021 NA
ATOM     14  N   UNL     1       1.155  -2.936   2.574  0.00  0.00    -0.111 NA
ENDBRANCH   9  10
ENDBRANCH   2   9
TORSDOF 4
