REMARK  Name = ZINC20697014
REMARK  9 active torsions:
REMARK  status: ('A' for Active; 'I' for Inactive)
REMARK    1  A    between atoms: C_1  and  C_2
REMARK    2  A    between atoms: C_2  and  N_3
REMARK    3  A    between atoms: N_3  and  C_4
REMARK    4  A    between atoms: N_3  and  C_6
REMARK    5  A    between atoms: C_4  and  C_5
REMARK    6  A    between atoms: C_9  and  C_12
REMARK    7  A    between atoms: C_23  and  S_28
REMARK    8  A    between atoms: S_28  and  N_31
REMARK    9  A    between atoms: N_34  and  C_37
REMARK                            x       y       z     vdW  Elec       q    Type
REMARK                         _______ _______ _______ _____ _____    ______ ____
ROOT
ATOM      1  C   UNL     1       1.238   2.179   0.002  0.00  0.00    +0.105 C 
ATOM      2  C   UNL     1       2.390   1.796   0.914  0.00  0.00    +0.029 C 
ATOM      3  C   UNL     1       3.624   2.709   0.903  0.00  0.00    +0.033 C 
ATOM      4  C   UNL     1       4.740   1.722   1.252  0.00  0.00    -0.030 C 
ATOM      5  C   UNL     1       4.390   0.494   0.889  0.00  0.00    -0.023 C 
ATOM      6  C   UNL     1       3.051   0.552   0.248  0.00  0.00    +0.049 C 
ATOM      7  C   UNL     1       2.093  -0.571   0.330  0.00  0.00    -0.018 A 
ATOM      8  C   UNL     1       2.498  -1.878   0.497  0.00  0.00    +0.034 A 
ATOM      9  C   UNL     1       1.564  -2.897   0.548  0.00  0.00    +0.106 A 
ATOM     10  C   UNL     1       0.217  -2.606   0.431  0.00  0.00    +0.030 A 
ATOM     11  C   UNL     1      -0.199  -1.300   0.270  0.00  0.00    +0.025 A 
ATOM     12  C   UNL     1       0.731  -0.268   0.222  0.00  0.00    +0.031 A 
ATOM     13  N   UNL     1       0.284   1.050   0.070  0.00  0.00    -0.336 N 
ATOM     14  H   UNL     1      -0.797   1.239   0.002  0.00  0.00    +0.147 HD
ENDROOT
BRANCH   1  18
ATOM     15  C   UNL     1       2.634   2.691  -4.005  0.00  0.00    +0.030 A 
ATOM     16  C   UNL     1       2.189   1.447  -3.577  0.00  0.00    +0.023 A 
ATOM     17  C   UNL     1       1.739   1.285  -2.281  0.00  0.00    +0.007 A 
ATOM     18  C   UNL     1       1.730   2.359  -1.411  0.00  0.00    -0.027 A 
ATOM     19  C   UNL     1       2.167   3.601  -1.836  0.00  0.00    +0.007 A 
ATOM     20  C   UNL     1       2.624   3.768  -3.128  0.00  0.00    +0.023 A 
BRANCH  15  21
ATOM     21  N   UNL     1       3.091   2.858  -5.314  0.00  0.00    -0.330 N 
BRANCH  21  23
ATOM     22  C   UNL     1       5.061   4.296  -5.497  0.00  0.00    +0.024 C 
ATOM     23  C   UNL     1       3.560   4.171  -5.764  0.00  0.00    +0.102 C 
ENDBRANCH  21  23
BRANCH  21  24
ATOM     24  C   UNL     1       3.101   1.721  -6.238  0.00  0.00    +0.102 C 
ATOM     25  C   UNL     1       1.766   1.657  -6.983  0.00  0.00    +0.024 C 
ENDBRANCH  21  24
ENDBRANCH  15  21
ENDBRANCH   1  18
BRANCH   9  26
ATOM     26  S   UNL     1       2.090  -4.565   0.760  0.00  0.00    +0.061 S 
ATOM     27  O   UNL     1       1.060  -5.386   0.228  0.00  0.00    -0.153 OA
ATOM     28  O   UNL     1       3.432  -4.629   0.296  0.00  0.00    -0.153 OA
BRANCH  26  29
ATOM     29  N   UNL     1       2.138  -4.860   2.389  0.00  0.00    -0.180 NA
ATOM     30  C   UNL     1       3.364  -4.616   3.164  0.00  0.00    +0.091 C 
ATOM     31  C   UNL     1       3.000  -3.750   4.381  0.00  0.00    -0.062 C 
ATOM     32  N   UNL     1       1.911  -4.394   5.127  0.00  0.00    +0.380 N 
ATOM     33  C   UNL     1       0.691  -4.487   4.315  0.00  0.00    -0.062 C 
ATOM     34  C   UNL     1       0.958  -5.378   3.097  0.00  0.00    +0.091 C 
ATOM     35  C   UNL     1       1.651  -3.692   6.390  0.00  0.00    -0.096 C 
ATOM     36  H   UNL     1       2.231  -5.419   5.367  0.00  0.00    -0.082 HD
ENDBRANCH  26  29
ENDBRANCH   9  26
TORSDOF 6
