REMARK  Name = ZINC58552030
REMARK  5 active torsions:
REMARK  status: ('A' for Active; 'I' for Inactive)
REMARK    1  A    between atoms: C_1  and  C_2
REMARK    2  A    between atoms: C_2  and  C_3
REMARK    3  A    between atoms: C_2  and  C_4
REMARK    4  A    between atoms: C_7  and  C_10
REMARK    5  A    between atoms: C_16  and  C_18
REMARK                            x       y       z     vdW  Elec       q    Type
REMARK                         _______ _______ _______ _____ _____    ______ ____
ROOT
ATOM      1  C   UNL     1      -5.392  -2.026   0.056  0.00  0.00    +0.080 A 
ATOM      2  C   UNL     1      -5.845  -2.814  -0.965  0.00  0.00    +0.076 A 
ATOM      3  S   UNL     1      -7.529  -3.102  -0.438  0.00  0.00    -0.060 S 
ATOM      4  C   UNL     1      -7.456  -2.153   1.074  0.00  0.00    +0.165 A 
ATOM      5  N   UNL     1      -6.209  -1.720   1.053  0.00  0.00    -0.225 NA
ATOM      6  N   UNL     1      -8.446  -1.933   2.023  0.00  0.00    -0.261 N 
ATOM      7  C   UNL     1      -9.668  -2.476   1.859  0.00  0.00    +0.255 C 
ATOM      8  O   UNL     1      -9.934  -3.079   0.837  0.00  0.00    -0.270 OA
ATOM      9  H   UNL     1      -8.258  -1.388   2.803  0.00  0.00    +0.157 HD
ENDROOT
BRANCH   7  10
ATOM     10  C   UNL     1     -10.682  -2.340   2.918  0.00  0.00    +0.102 A 
ATOM     11  C   UNL     1     -11.898  -2.991   2.811  0.00  0.00    +0.028 A 
ATOM     12  C   UNL     1     -12.852  -2.841   3.845  0.00  0.00    -0.001 A 
ATOM     13  C   UNL     1     -14.094  -3.490   3.763  0.00  0.00    +0.010 A 
ATOM     14  C   UNL     1     -15.007  -3.340   4.765  0.00  0.00    +0.001 A 
ATOM     15  C   UNL     1     -14.720  -2.547   5.869  0.00  0.00    +0.002 A 
ATOM     16  C   UNL     1     -13.509  -1.900   5.973  0.00  0.00    +0.026 A 
ATOM     17  C   UNL     1     -12.559  -2.037   4.964  0.00  0.00    +0.049 A 
ATOM     18  N   UNL     1     -11.345  -1.391   5.064  0.00  0.00    -0.321 N 
ATOM     19  H   UNL     1     -11.159  -0.841   5.842  0.00  0.00    +0.169 HD
ATOM     20  C   UNL     1     -10.412  -1.517   4.102  0.00  0.00    +0.261 A 
ATOM     21  O   UNL     1      -9.344  -0.943   4.212  0.00  0.00    -0.267 OA
ENDBRANCH   7  10
BRANCH   1  25
ATOM     22  C   UNL     1      -1.391  -0.588   0.042  0.00  0.00    -0.045 A 
ATOM     23  C   UNL     1      -2.237  -0.262   1.087  0.00  0.00    +0.004 A 
ATOM     24  C   UNL     1      -3.536  -0.726   1.097  0.00  0.00    +0.010 A 
ATOM     25  C   UNL     1      -3.996  -1.524   0.051  0.00  0.00    +0.001 A 
ATOM     26  C   UNL     1      -3.140  -1.849  -0.999  0.00  0.00    +0.010 A 
ATOM     27  C   UNL     1      -1.843  -1.375  -1.001  0.00  0.00    +0.004 A 
BRANCH  22  29
ATOM     28  C   UNL     1       0.019   1.452   0.052  0.00  0.00    +0.012 C 
ATOM     29  C   UNL     1       0.027  -0.078   0.037  0.00  0.00    +0.013 C 
ATOM     30  C   UNL     1       0.760  -0.596   1.277  0.00  0.00    +0.012 C 
ENDBRANCH  22  29
ENDBRANCH   1  25
TORSDOF 3
