REMARK  Name = ZINC62380332
REMARK  1 active torsions:
REMARK  status: ('A' for Active; 'I' for Inactive)
REMARK    1  A    between atoms: C_2  and  N_13
REMARK                            x       y       z     vdW  Elec       q    Type
REMARK                         _______ _______ _______ _____ _____    ______ ____
ROOT
ATOM      1  N   UNL     1       1.169   3.485  -0.002  0.00  0.00    -0.268 N 
ATOM      2  C   UNL     1      -0.001   4.150  -0.077  0.00  0.00    +0.307 C 
ATOM      3  O   UNL     1      -1.051   3.537  -0.060  0.00  0.00    -0.252 OA
ATOM      4  N   UNL     1      -0.006   5.495  -0.171  0.00  0.00    -0.282 N 
ATOM      5  C   UNL     1       1.251   6.176  -0.291  0.00  0.00    +0.113 C 
ATOM      6  C   UNL     1       1.172   7.405  -1.145  0.00  0.00    +0.007 C 
ATOM      7  C   UNL     1       0.411   7.176  -2.441  0.00  0.00    +0.008 C 
ATOM      8  C   UNL     1      -1.085   7.389  -2.331  0.00  0.00    -0.009 C 
ATOM      9  C   UNL     1      -1.401   8.728  -1.658  0.00  0.00    +0.007 C 
ATOM     10  C   UNL     1      -0.766   8.696  -0.266  0.00  0.00    -0.009 C 
ATOM     11  C   UNL     1       0.753   8.659  -0.432  0.00  0.00    +0.008 C 
ATOM     12  C   UNL     1      -1.259   7.520   0.545  0.00  0.00    +0.026 C 
ATOM     13  C   UNL     1      -1.285   6.183  -0.151  0.00  0.00    +0.078 C 
ATOM     14  C   UNL     1      -1.807   6.280  -1.579  0.00  0.00    +0.026 C 
ATOM     15  H   UNL     1       2.005   3.976   0.026  0.00  0.00    +0.156 HD
ENDROOT
BRANCH   1  17
ATOM     16  C   UNL     1       0.052   1.394   0.469  0.00  0.00    +0.074 A 
ATOM     17  C   UNL     1       1.177   2.083   0.036  0.00  0.00    +0.057 A 
ATOM     18  C   UNL     1       2.311   1.385  -0.360  0.00  0.00    +0.066 A 
ATOM     19  C   UNL     1       2.322   0.002  -0.324  0.00  0.00    +0.071 A 
ATOM     20  C   UNL     1       1.200  -0.684   0.108  0.00  0.00    +0.163 A 
ATOM     21  C   UNL     1       0.066   0.011   0.504  0.00  0.00    +0.164 A 
ATOM     22  O   UNL     1      -1.033  -0.678   0.929  0.00  0.00    -0.488 OA
ATOM     23  C   UNL     1      -1.719  -1.437  -0.069  0.00  0.00    +0.232 C 
ATOM     24  C   UNL     1      -1.072  -2.801  -0.248  0.00  0.00    +0.082 C 
ATOM     25  C   UNL     1       0.345  -2.703  -0.790  0.00  0.00    +0.232 C 
ATOM     26  O   UNL     1       1.202  -2.049   0.148  0.00  0.00    -0.488 OA
ATOM     27 CL   UNL     1       3.715   2.250  -0.903  0.00  0.00    -0.081 Cl
ENDBRANCH   1  17
TORSDOF 1
