REMARK  Name = ZINC13562750
REMARK  11 active torsions:
REMARK  status: ('A' for Active; 'I' for Inactive)
REMARK    1  A    between atoms: C_1  and  C_2
REMARK    2  A    between atoms: C_2  and  C_3
REMARK    3  A    between atoms: C_2  and  C_4
REMARK    4  A    between atoms: C_2  and  C_28
REMARK    5  A    between atoms: C_4  and  N_5
REMARK    6  A    between atoms: N_5  and  C_6
REMARK    7  A    between atoms: C_8  and  C_22
REMARK    8  A    between atoms: C_13  and  C_15
REMARK    9  A    between atoms: C_28  and  N_59
REMARK   10  A    between atoms: C_29  and  N_59
REMARK   11  A    between atoms: C_30  and  N_59
REMARK                            x       y       z     vdW  Elec       q    Type
REMARK                         _______ _______ _______ _____ _____    ______ ____
ROOT
ATOM      1  C   UNL     1       1.318  10.557  -0.208  0.00  0.00    +0.125 A 
ATOM      2  C   UNL     1       1.153  11.910  -0.284  0.00  0.00    +0.072 A 
ATOM      3  C   UNL     1      -0.141  12.436  -0.450  0.00  0.00    +0.077 A 
ATOM      4  N   UNL     1      -1.183  11.625  -0.532  0.00  0.00    -0.228 NA
ATOM      5  C   UNL     1      -1.028  10.296  -0.458  0.00  0.00    +0.159 A 
ATOM      6  N   UNL     1       0.217   9.744  -0.296  0.00  0.00    -0.200 N 
ATOM      7  N   UNL     1       0.069   8.353  -0.254  0.00  0.00    -0.163 NA
ATOM      8  C   UNL     1      -1.212   8.058  -0.384  0.00  0.00    +0.095 A 
ATOM      9  C   UNL     1      -1.934   9.247  -0.521  0.00  0.00    +0.078 A 
ENDROOT
BRANCH   8  10
ATOM     10  C   UNL     1      -1.788   6.690  -0.391  0.00  0.00    +0.004 A 
ATOM     11  C   UNL     1      -3.163   6.511  -0.536  0.00  0.00    +0.010 A 
ATOM     12  C   UNL     1      -3.693   5.237  -0.546  0.00  0.00    +0.002 A 
ATOM     13  C   UNL     1      -2.865   4.139  -0.402  0.00  0.00    +0.020 A 
ATOM     14  C   UNL     1      -1.500   4.310  -0.257  0.00  0.00    +0.042 A 
ATOM     15  C   UNL     1      -0.958   5.581  -0.251  0.00  0.00    +0.030 A 
ATOM     16 CL   UNL     1      -0.466   2.926  -0.082  0.00  0.00    -0.084 Cl
ENDBRANCH   8  10
BRANCH   3  17
ATOM     17  C   UNL     1      -0.337  13.903  -0.534  0.00  0.00    +0.001 A 
ATOM     18  C   UNL     1       0.757  14.762  -0.442  0.00  0.00    +0.010 A 
ATOM     19  C   UNL     1       0.569  16.127  -0.526  0.00  0.00    +0.001 A 
ATOM     20  C   UNL     1      -0.704  16.643  -0.689  0.00  0.00    +0.000 A 
ATOM     21  C   UNL     1      -1.794  15.796  -0.776  0.00  0.00    +0.001 A 
ATOM     22  C   UNL     1      -1.617  14.429  -0.699  0.00  0.00    +0.010 A 
ENDBRANCH   3  17
BRANCH   1  23
ATOM     23  N   UNL     1       2.576  10.014  -0.045  0.00  0.00    -0.328 N 
ATOM     24  H   UNL     1       2.687   9.052   0.008  0.00  0.00    +0.147 HD
BRANCH  23  25
ATOM     25  C   UNL     1       3.746  10.892   0.048  0.00  0.00    +0.107 C 
BRANCH  25  27
ATOM     26  C   UNL     1       4.889   9.214   1.504  0.00  0.00    +0.010 C 
ATOM     27  C   UNL     1       5.007  10.044   0.224  0.00  0.00    -0.034 C 
ATOM     28  C   UNL     1       5.165   9.109  -0.977  0.00  0.00    +0.010 C 
BRANCH  27  29
ATOM     29  C   UNL     1       6.228  10.960   0.321  0.00  0.00    -0.072 C 
BRANCH  29  32
ATOM     30  C   UNL     1       6.919  13.135  -0.489  0.00  0.00    -0.097 C 
ATOM     31  C   UNL     1       6.880  11.239  -1.994  0.00  0.00    -0.097 C 
ATOM     32  N   UNL     1       6.221  11.879  -0.837  0.00  0.00    +0.376 N 
ATOM     33  H   UNL     1       5.248  12.096  -1.085  0.00  0.00    -0.083 HD
ENDBRANCH  29  32
ENDBRANCH  27  29
ENDBRANCH  25  27
ENDBRANCH  23  25
ENDBRANCH   1  23
TORSDOF 7
