REMARK  Name = ZINC04200792
REMARK  16 active torsions:
REMARK  status: ('A' for Active; 'I' for Inactive)
REMARK    1  A    between atoms: C_1  and  C_2
REMARK    2  A    between atoms: C_2  and  C_3
REMARK    3  A    between atoms: C_3  and  N_4
REMARK    4  A    between atoms: N_7  and  C_8
REMARK    5  A    between atoms: C_11  and  C_31
REMARK    6  A    between atoms: C_11  and  O_38
REMARK    7  A    between atoms: C_13  and  O_24
REMARK    8  A    between atoms: C_15  and  O_17
REMARK    9  A    between atoms: O_17  and  C_18
REMARK   10  A    between atoms: N_20  and  C_21
REMARK   11  A    between atoms: C_21  and  C_22
REMARK   12  A    between atoms: O_24  and  C_25
REMARK   13  A    between atoms: N_27  and  C_28
REMARK   14  A    between atoms: C_28  and  C_29
REMARK   15  A    between atoms: N_33  and  C_34
REMARK   16  A    between atoms: C_34  and  C_35
REMARK                            x       y       z     vdW  Elec       q    Type
REMARK                         _______ _______ _______ _____ _____    ______ ____
ROOT
ATOM      1  C   UNL     1       1.144   3.358   0.731  0.00  0.00    +0.122 C 
ATOM      2  C   UNL     1       2.498   4.071   0.721  0.00  0.00    +0.070 C 
ATOM      3  C   UNL     1       2.936   4.316  -0.724  0.00  0.00    +0.147 C 
ATOM      4  C   UNL     1       3.059   2.977  -1.454  0.00  0.00    +0.093 C 
ATOM      5  C   UNL     1       1.706   2.264  -1.445  0.00  0.00    +0.224 C 
ATOM      6  C   UNL     1       1.268   2.019   0.001  0.00  0.00    +0.239 C 
ENDROOT
BRANCH   1  10
ATOM      7  N   UNL     1      -0.309   3.872   4.068  0.00  0.00    -0.299 N 
ATOM      8  C   UNL     1       0.076   4.088   2.795  0.00  0.00    +0.300 C 
ATOM      9  O   UNL     1      -0.162   5.154   2.261  0.00  0.00    -0.253 OA
ATOM     10  N   UNL     1       0.726   3.123   2.115  0.00  0.00    -0.293 N 
ATOM     11  H   UNL     1      -0.119   3.022   4.495  0.00  0.00    +0.150 HD
ATOM     12  H   UNL     1       0.915   2.273   2.541  0.00  0.00    +0.151 HD
BRANCH   7  13
ATOM     13  C   UNL     1      -1.015   4.921   4.808  0.00  0.00    +0.105 C 
BRANCH  13  15
ATOM     14  C   UNL     1      -2.073   5.518   6.992  0.00  0.00    +0.005 C 
ATOM     15  C   UNL     1      -1.336   4.423   6.219  0.00  0.00    +0.015 C 
ENDBRANCH  13  15
ENDBRANCH   7  13
ENDBRANCH   1  10
BRANCH   3  16
ATOM     16  C   UNL     1       4.269   5.019  -0.733  0.00  0.00    +0.245 C 
ATOM     17  O   UNL     1       5.021   4.904   0.211  0.00  0.00    -0.273 OA
ATOM     18  N   UNL     1       4.625   5.775  -1.790  0.00  0.00    -0.304 N 
ATOM     19  H   UNL     1       4.023   5.867  -2.545  0.00  0.00    +0.149 HD
BRANCH  18  20
ATOM     20  C   UNL     1       5.921   6.458  -1.799  0.00  0.00    +0.200 C 
BRANCH  20  21
ATOM     21  C   UNL     1       6.073   7.230  -3.084  0.00  0.00    +0.228 C 
ATOM     22  O   UNL     1       5.187   7.212  -3.911  0.00  0.00    -0.274 OA
ATOM     23  N   UNL     1       7.195   7.941  -3.314  0.00  0.00    -0.328 N 
ATOM     24  H   UNL     1       7.904   7.955  -2.653  0.00  0.00    +0.145 HD
ATOM     25  H   UNL     1       7.293   8.438  -4.141  0.00  0.00    +0.145 HD
ENDBRANCH  20  21
ENDBRANCH  18  20
ENDBRANCH   3  16
BRANCH   3  26
ATOM     26  O   UNL     1       1.964   5.130  -1.384  0.00  0.00    -0.379 OA
ATOM     27  H   UNL     1       2.177   5.327  -2.307  0.00  0.00    +0.211 HD
ENDBRANCH   3  26
BRANCH   6  28
ATOM     28  O   UNL     1      -0.016   1.342   0.009  0.00  0.00    -0.441 OA
BRANCH  28  29
ATOM     29  C   UNL     1       0.002  -0.004   0.002  0.00  0.00    +0.401 C 
ATOM     30  O   UNL     1       1.062  -0.597  -0.011  0.00  0.00    -0.226 OA
ATOM     31  N   UNL     1      -1.156  -0.694   0.009  0.00  0.00    -0.278 N 
ATOM     32  H   UNL     1      -2.002  -0.220   0.020  0.00  0.00    +0.152 HD
BRANCH  31  33
ATOM     33  C   UNL     1      -1.136  -2.159   0.001  0.00  0.00    +0.134 C 
BRANCH  33  34
ATOM     34  C   UNL     1      -2.550  -2.680   0.012  0.00  0.00    -0.016 C 
ATOM     35  C   UNL     1      -2.948  -3.512  -0.918  0.00  0.00    +0.005 C 
ENDBRANCH  33  34
ENDBRANCH  31  33
ENDBRANCH  28  29
ENDBRANCH   6  28
BRANCH   5  36
ATOM     36  O   UNL     1       1.824   0.994  -2.137  0.00  0.00    -0.443 OA
BRANCH  36  37
ATOM     37  C   UNL     1       1.584   0.995  -3.462  0.00  0.00    +0.401 C 
ATOM     38  O   UNL     1       1.284   2.030  -4.024  0.00  0.00    -0.226 OA
ATOM     39  N   UNL     1       1.676  -0.152  -4.165  0.00  0.00    -0.278 N 
ATOM     40  H   UNL     1       1.915  -0.978  -3.716  0.00  0.00    +0.152 HD
BRANCH  39  41
ATOM     41  C   UNL     1       1.415  -0.150  -5.606  0.00  0.00    +0.134 C 
BRANCH  41  42
ATOM     42  C   UNL     1       1.584  -1.546  -6.149  0.00  0.00    -0.016 C 
ATOM     43  C   UNL     1       0.610  -2.111  -6.818  0.00  0.00    +0.005 C 
ENDBRANCH  41  42
ENDBRANCH  39  41
ENDBRANCH  36  37
ENDBRANCH   5  36
TORSDOF 15
