REMARK  Name = ZINC64061517
REMARK  9 active torsions:
REMARK  status: ('A' for Active; 'I' for Inactive)
REMARK    1  A    between atoms: C_1  and  C_2
REMARK    2  A    between atoms: C_2  and  C_3
REMARK    3  A    between atoms: C_3  and  C_5
REMARK    4  A    between atoms: C_3  and  N_16
REMARK    5  A    between atoms: C_11  and  C_15
REMARK    6  A    between atoms: C_17  and  C_19
REMARK    7  A    between atoms: N_21  and  C_24
REMARK    8  A    between atoms: C_24  and  C_25
REMARK    9  A    between atoms: C_30  and  C_31
REMARK                            x       y       z     vdW  Elec       q    Type
REMARK                         _______ _______ _______ _____ _____    ______ ____
ROOT
ATOM      1  N   UNL     1      -1.085  -0.678  -2.593  0.00  0.00    -0.303 N 
ATOM      2  C   UNL     1      -0.705   0.546  -3.011  0.00  0.00    +0.266 C 
ATOM      3  O   UNL     1       0.112   1.180  -2.372  0.00  0.00    -0.268 OA
ATOM      4  H   UNL     1      -1.736  -1.184  -3.103  0.00  0.00    +0.149 HD
ENDROOT
BRANCH   2   5
ATOM      5  C   UNL     1      -1.281   1.116  -4.244  0.00  0.00    +0.167 A 
ATOM      6  C   UNL     1      -0.978   2.337  -4.776  0.00  0.00    +0.143 A 
ATOM      7  N   UNL     1      -1.718   2.470  -5.895  0.00  0.00    -0.247 N 
ATOM      8  N   UNL     1      -2.474   1.296  -6.023  0.00  0.00    -0.065 NA
ATOM      9  N   UNL     1      -2.188   0.519  -5.036  0.00  0.00    -0.125 NA
BRANCH   7  10
ATOM     10  C   UNL     1      -1.730   3.619  -6.804  0.00  0.00    +0.180 C 
BRANCH  10  11
ATOM     11  C   UNL     1      -1.407   3.158  -8.202  0.00  0.00    -0.014 A 
ATOM     12  C   UNL     1      -2.428   2.821  -9.071  0.00  0.00    +0.006 A 
ATOM     13  C   UNL     1      -2.132   2.397 -10.353  0.00  0.00    +0.000 A 
ATOM     14  C   UNL     1      -0.816   2.312 -10.767  0.00  0.00    +0.001 A 
ATOM     15  C   UNL     1       0.205   2.649  -9.898  0.00  0.00    +0.013 A 
ATOM     16  C   UNL     1      -0.091   3.077  -8.617  0.00  0.00    +0.060 A 
BRANCH  16  17
ATOM     17  C   UNL     1       1.021   3.450  -7.671  0.00  0.00    +0.418 C 
ATOM     18  F   UNL     1       2.249   3.356  -8.335  0.00  0.00    -0.166 F 
ATOM     19  F   UNL     1       0.832   4.762  -7.223  0.00  0.00    -0.166 F 
ATOM     20  F   UNL     1       1.015   2.579  -6.577  0.00  0.00    -0.166 F 
ENDBRANCH  16  17
ENDBRANCH  10  11
ENDBRANCH   7  10
ENDBRANCH   2   5
BRANCH   1  21
ATOM     21  C   UNL     1      -0.513  -1.244  -1.369  0.00  0.00    +0.116 C 
BRANCH  21  22
ATOM     22  C   UNL     1      -0.584  -2.771  -1.432  0.00  0.00    +0.195 C 
ATOM     23  N   UNL     1      -1.956  -3.200  -1.728  0.00  0.00    -0.362 N 
ATOM     24  C   UNL     1      -1.925  -3.860  -2.850  0.00  0.00    +0.060 A 
ATOM     25  C   UNL     1      -2.966  -4.525  -3.647  0.00  0.00    +0.027 A 
ATOM     26  C   UNL     1      -2.629  -5.146  -4.795  0.00  0.00    +0.005 A 
ATOM     27  C   UNL     1      -1.307  -5.188  -5.274  0.00  0.00    -0.048 A 
ATOM     28  C   UNL     1      -0.279  -4.611  -4.622  0.00  0.00    +0.030 A 
ATOM     29  C   UNL     1      -0.527  -3.905  -3.358  0.00  0.00    +0.060 A 
ATOM     30  N   UNL     1       0.254  -3.270  -2.530  0.00  0.00    -0.362 N 
ATOM     31  C   UNL     1      -1.030  -5.908  -6.569  0.00  0.00    +0.044 C 
ATOM     32  H   UNL     1      -2.742  -3.024  -1.188  0.00  0.00    +0.162 HD
ATOM     33  H   UNL     1       1.212  -3.148  -2.622  0.00  0.00    +0.162 HD
ENDBRANCH  21  22
BRANCH  21  35
ATOM     34  C   UNL     1      -1.131   0.768  -0.024  0.00  0.00    +0.006 C 
ATOM     35  C   UNL     1      -1.305  -0.746  -0.159  0.00  0.00    +0.023 C 
ENDBRANCH  21  35
ENDBRANCH   1  21
TORSDOF 7
