REMARK  Name = ZINC02398578
REMARK  9 active torsions:
REMARK  status: ('A' for Active; 'I' for Inactive)
REMARK    1  A    between atoms: C_1  and  C_2
REMARK    2  A    between atoms: C_6  and  N_8
REMARK    3  A    between atoms: C_12  and  N_13
REMARK    4  A    between atoms: N_13  and  C_14
REMARK    5  A    between atoms: C_14  and  C_16
REMARK    6  A    between atoms: C_14  and  C_27
REMARK    7  A    between atoms: C_16  and  C_17
REMARK    8  A    between atoms: C_27  and  O_29
REMARK    9  A    between atoms: O_29  and  C_30
REMARK                            x       y       z     vdW  Elec       q    Type
REMARK                         _______ _______ _______ _____ _____    ______ ____
ROOT
ATOM      1  N   UNL     1      -0.158  -2.800   2.384  0.00  0.00    -0.217 N 
ATOM      2  C   UNL     1       0.007  -4.138   2.380  0.00  0.00    +0.263 C 
ATOM      3  O   UNL     1       0.349  -4.723   1.369  0.00  0.00    -0.269 OA
ATOM      4  C   UNL     1      -0.236  -4.874   3.634  0.00  0.00    +0.113 C 
ATOM      5  C   UNL     1      -0.086  -6.247   3.706  0.00  0.00    +0.086 C 
ATOM      6  C   UNL     1      -0.646  -4.083   4.808  0.00  0.00    +0.256 C 
ATOM      7  O   UNL     1      -0.865  -4.619   5.878  0.00  0.00    -0.270 OA
ATOM      8  N   UNL     1      -0.772  -2.747   4.664  0.00  0.00    -0.263 N 
ATOM      9  C   UNL     1      -0.529  -2.143   3.492  0.00  0.00    +0.150 C 
ATOM     10  S   UNL     1      -0.709  -0.443   3.405  0.00  0.00    -0.018 S 
ATOM     11  H   UNL     1      -1.042  -2.212   5.426  0.00  0.00    +0.157 HD
ENDROOT
BRANCH   1  17
ATOM     12  C   UNL     1       2.641   0.300  -0.212  0.00  0.00    +0.044 C 
ATOM     13  C   UNL     1       1.416  -0.569  -0.080  0.00  0.00    -0.049 A 
ATOM     14  C   UNL     1       0.514  -0.654  -1.125  0.00  0.00    +0.003 A 
ATOM     15  C   UNL     1      -0.611  -1.449  -1.007  0.00  0.00    +0.002 A 
ATOM     16  C   UNL     1      -0.836  -2.162   0.154  0.00  0.00    +0.024 A 
ATOM     17  C   UNL     1       0.068  -2.079   1.205  0.00  0.00    +0.044 A 
ATOM     18  C   UNL     1       1.199  -1.283   1.082  0.00  0.00    +0.027 A 
ENDBRANCH   1  17
BRANCH   5  19
ATOM     19  N   UNL     1      -0.168  -6.872   4.897  0.00  0.00    -0.336 N 
ATOM     20  H   UNL     1      -0.246  -6.353   5.713  0.00  0.00    +0.146 HD
BRANCH  19  21
ATOM     21  C   UNL     1      -0.139  -8.336   4.960  0.00  0.00    +0.184 C 
BRANCH  21  22
ATOM     22  C   UNL     1      -1.530  -8.875   4.743  0.00  0.00    +0.328 C 
ATOM     23  O   UNL     1      -2.450  -8.115   4.556  0.00  0.00    -0.249 OA
BRANCH  22  24
ATOM     24  O   UNL     1      -1.746 -10.200   4.758  0.00  0.00    -0.467 OA
ATOM     25  C   UNL     1      -3.088 -10.641   4.546  0.00  0.00    +0.280 C 
ENDBRANCH  22  24
ENDBRANCH  21  22
BRANCH  21  26
ATOM     26  C   UNL     1       0.371  -8.777   6.333  0.00  0.00    +0.071 C 
BRANCH  26  27
ATOM     27  C   UNL     1       1.805  -8.343   6.499  0.00  0.00    -0.020 A 
ATOM     28  C   UNL     1       2.897  -9.081   6.245  0.00  0.00    +0.087 A 
ATOM     29  N   UNL     1       4.024  -8.353   6.514  0.00  0.00    -0.360 N 
ATOM     30  H   UNL     1       4.933  -8.673   6.407  0.00  0.00    +0.165 HD
ATOM     31  C   UNL     1       3.676  -7.097   6.959  0.00  0.00    +0.047 A 
ATOM     32  C   UNL     1       2.270  -7.034   6.963  0.00  0.00    +0.003 A 
ATOM     33  C   UNL     1       1.627  -5.863   7.369  0.00  0.00    +0.010 A 
ATOM     34  C   UNL     1       2.367  -4.782   7.756  0.00  0.00    +0.001 A 
ATOM     35  C   UNL     1       3.754  -4.838   7.749  0.00  0.00    +0.002 A 
ATOM     36  C   UNL     1       4.409  -5.986   7.362  0.00  0.00    +0.026 A 
ENDBRANCH  26  27
ENDBRANCH  21  26
ENDBRANCH  19  21
ENDBRANCH   5  19
TORSDOF 7
