REMARK  Name = ZINC15249844
REMARK  4 active torsions:
REMARK  status: ('A' for Active; 'I' for Inactive)
REMARK    1  A    between atoms: C_1  and  N_2
REMARK    2  A    between atoms: C_3  and  C_14
REMARK    3  A    between atoms: C_17  and  C_19
REMARK    4  A    between atoms: C_22  and  N_25
REMARK                            x       y       z     vdW  Elec       q    Type
REMARK                         _______ _______ _______ _____ _____    ______ ____
ROOT
ATOM      1  C   UNL     1       1.191   3.782   1.538  0.00  0.00    +0.144 A 
ATOM      2  C   UNL     1       0.661   4.910   2.051  0.00  0.00    +0.049 A 
ATOM      3  C   UNL     1       0.930   4.900   3.434  0.00  0.00    +0.050 A 
ATOM      4  C   UNL     1       1.617   3.755   3.692  0.00  0.00    +0.135 A 
ATOM      5  O   UNL     1       1.763   3.085   2.533  0.00  0.00    -0.456 OA
ENDROOT
BRANCH   1   8
ATOM      6  C   UNL     1       2.414   1.192  -0.096  0.00  0.00    +0.134 C 
ATOM      7  N   UNL     1       1.140   1.910   0.001  0.00  0.00    -0.275 N 
ATOM      8  C   UNL     1       1.144   3.370   0.089  0.00  0.00    +0.229 C 
ATOM      9  N   UNL     1      -0.066   3.921  -0.534  0.00  0.00    -0.319 N 
ATOM     10  C   UNL     1      -1.287   3.317  -0.259  0.00  0.00    +0.041 A 
ATOM     11  C   UNL     1      -2.474   4.030  -0.258  0.00  0.00    +0.024 A 
ATOM     12  C   UNL     1      -3.661   3.382   0.009  0.00  0.00    +0.002 A 
ATOM     13  C   UNL     1      -3.674   2.025   0.291  0.00  0.00    +0.001 A 
ATOM     14  C   UNL     1      -2.501   1.300   0.298  0.00  0.00    +0.015 A 
ATOM     15  C   UNL     1      -1.296   1.940   0.019  0.00  0.00    +0.058 A 
ATOM     16  C   UNL     1      -0.014   1.212   0.009  0.00  0.00    +0.250 C 
ATOM     17  O   UNL     1       0.002  -0.004   0.002  0.00  0.00    -0.270 OA
ATOM     18  H   UNL     1      -0.013   4.689  -1.124  0.00  0.00    +0.148 HD
ENDBRANCH   1   8
BRANCH   4  19
ATOM     19  C   UNL     1       2.111   3.319   5.014  0.00  0.00    +0.017 A 
ATOM     20  C   UNL     1       1.891   4.112   6.142  0.00  0.00    +0.014 A 
ATOM     21  C   UNL     1       2.350   3.696   7.374  0.00  0.00    +0.033 A 
ATOM     22  C   UNL     1       3.038   2.502   7.493  0.00  0.00    +0.126 A 
ATOM     23  C   UNL     1       3.265   1.714   6.378  0.00  0.00    +0.033 A 
ATOM     24  C   UNL     1       2.806   2.115   5.141  0.00  0.00    +0.014 A 
BRANCH  22  25
ATOM     25  N   UNL     1       3.533   2.065   8.818  0.00  0.00    +0.056 N 
ATOM     26  O   UNL     1       4.139   1.013   8.925  0.00  0.00    -0.126 OA
ATOM     27  O   UNL     1       3.334   2.756   9.800  0.00  0.00    -0.126 OA
ENDBRANCH  22  25
ENDBRANCH   4  19
TORSDOF 3
