REMARK  Name = ZINC39969698
REMARK  10 active torsions:
REMARK  status: ('A' for Active; 'I' for Inactive)
REMARK    1  A    between atoms: C_1  and  C_2
REMARK    2  A    between atoms: C_2  and  N_3
REMARK    3  A    between atoms: C_4  and  C_24
REMARK    4  A    between atoms: C_8  and  S_10
REMARK    5  A    between atoms: S_10  and  C_11
REMARK    6  A    between atoms: C_11  and  C_12
REMARK    7  A    between atoms: C_24  and  C_25
REMARK    8  A    between atoms: N_27  and  C_28
REMARK    9  A    between atoms: C_31  and  C_35
REMARK   10  A    between atoms: C_33  and  C_34
REMARK                            x       y       z     vdW  Elec       q    Type
REMARK                         _______ _______ _______ _____ _____    ______ ____
ROOT
ATOM      1  N   UNL     1       0.600  -0.911  -0.938  0.00  0.00    -0.261 NA
ATOM      2  C   UNL     1       0.452  -2.370  -1.150  0.00  0.00    +0.149 C 
ATOM      3  N   UNL     1       1.800  -2.813  -1.591  0.00  0.00    -0.237 NA
ATOM      4  N   UNL     1       2.705  -1.990  -0.774  0.00  0.00    -0.229 NA
ATOM      5  C   UNL     1       2.038  -0.670  -0.699  0.00  0.00    +0.200 C 
ATOM      6  H   UNL     1       1.937  -3.795  -1.405  0.00  0.00    +0.142 HD
ATOM      7  H   UNL     1       2.824  -2.387   0.146  0.00  0.00    +0.143 HD
ENDROOT
BRANCH   1   9
ATOM      8  C   UNL     1      -1.692  -0.566  -0.147  0.00  0.00    +0.020 C 
ATOM      9  C   UNL     1      -0.206  -0.461   0.205  0.00  0.00    +0.085 C 
ENDBRANCH   1   9
BRANCH   5  10
ATOM     10  S   UNL     1       2.282   0.058   0.944  0.00  0.00    -0.117 S 
BRANCH  10  11
ATOM     11  C   UNL     1       3.972   0.714   0.888  0.00  0.00    +0.146 C 
BRANCH  11  12
ATOM     12  C   UNL     1       4.264   1.460   2.163  0.00  0.00    +0.120 A 
ATOM     13  N   UNL     1       5.487   2.033   2.309  0.00  0.00    -0.310 N 
ATOM     14  H   UNL     1       6.143   1.953   1.599  0.00  0.00    +0.170 HD
ATOM     15  C   UNL     1       5.799   2.716   3.436  0.00  0.00    +0.259 A 
ATOM     16  O   UNL     1       6.891   3.234   3.579  0.00  0.00    -0.267 OA
ATOM     17  C   UNL     1       4.767   2.806   4.480  0.00  0.00    +0.065 A 
ATOM     18  C   UNL     1       4.987   3.484   5.677  0.00  0.00    +0.015 A 
ATOM     19  C   UNL     1       3.985   3.537   6.621  0.00  0.00    +0.001 A 
ATOM     20  C   UNL     1       2.763   2.921   6.388  0.00  0.00    +0.002 A 
ATOM     21  C   UNL     1       2.525   2.245   5.213  0.00  0.00    +0.028 A 
ATOM     22  C   UNL     1       3.525   2.178   4.240  0.00  0.00    +0.078 A 
ATOM     23  N   UNL     1       3.332   1.528   3.065  0.00  0.00    -0.233 NA
ENDBRANCH  11  12
ENDBRANCH  10  11
ENDBRANCH   5  10
BRANCH   2  24
ATOM     24  C   UNL     1      -0.589  -2.650  -2.236  0.00  0.00    +0.132 C 
BRANCH  24  25
ATOM     25  C   UNL     1      -0.811  -4.137  -2.347  0.00  0.00    +0.220 C 
ATOM     26  O   UNL     1      -0.197  -4.897  -1.629  0.00  0.00    -0.275 OA
ATOM     27  N   UNL     1      -1.691  -4.621  -3.245  0.00  0.00    -0.285 N 
ATOM     28  H   UNL     1      -2.133  -4.020  -3.865  0.00  0.00    +0.155 HD
BRANCH  27  29
ATOM     29  C   UNL     1      -1.969  -5.992  -3.283  0.00  0.00    +0.036 A 
ATOM     30  C   UNL     1      -0.998  -6.910  -2.905  0.00  0.00    +0.024 A 
ATOM     31  C   UNL     1      -1.275  -8.262  -2.943  0.00  0.00    +0.005 A 
ATOM     32  C   UNL     1      -2.518  -8.703  -3.359  0.00  0.00    -0.050 A 
ATOM     33  C   UNL     1      -3.487  -7.792  -3.737  0.00  0.00    +0.008 A 
ATOM     34  C   UNL     1      -3.218  -6.438  -3.694  0.00  0.00    -0.029 A 
ATOM     35  C   UNL     1      -4.277  -5.446  -4.099  0.00  0.00    +0.045 C 
ATOM     36  C   UNL     1      -2.817 -10.180  -3.401  0.00  0.00    +0.044 C 
ENDBRANCH  27  29
ENDBRANCH  24  25
ENDBRANCH   2  24
TORSDOF 7
