REMARK  Name = ZINC63294939
REMARK  7 active torsions:
REMARK  status: ('A' for Active; 'I' for Inactive)
REMARK    1  A    between atoms: C_1  and  O_2
REMARK    2  A    between atoms: O_2  and  C_3
REMARK    3  A    between atoms: C_9  and  C_12
REMARK    4  A    between atoms: C_12  and  C_13
REMARK    5  A    between atoms: C_13  and  N_14
REMARK    6  A    between atoms: C_15  and  C_17
REMARK    7  A    between atoms: C_22  and  N_23
REMARK                            x       y       z     vdW  Elec       q    Type
REMARK                         _______ _______ _______ _____ _____    ______ ____
ROOT
ATOM      1  N   UNL     1      -0.752  -6.781  -1.509  0.00  0.00    -0.311 N 
ATOM      2  C   UNL     1      -1.922  -7.385  -1.796  0.00  0.00    +0.246 C 
ATOM      3  O   UNL     1      -2.619  -6.963  -2.699  0.00  0.00    -0.270 OA
ATOM      4  H   UNL     1      -0.196  -7.118  -0.789  0.00  0.00    +0.149 HD
ENDROOT
BRANCH   2   5
ATOM      5  C   UNL     1      -2.357  -8.558  -1.016  0.00  0.00    +0.061 A 
ATOM      6  C   UNL     1      -1.563  -9.043   0.026  0.00  0.00    +0.030 A 
ATOM      7  C   UNL     1      -1.976 -10.140   0.751  0.00  0.00    +0.019 A 
ATOM      8  C   UNL     1      -3.177 -10.766   0.453  0.00  0.00    +0.017 A 
ATOM      9  C   UNL     1      -3.972 -10.299  -0.573  0.00  0.00    +0.027 A 
ATOM     10  C   UNL     1      -3.576  -9.190  -1.312  0.00  0.00    +0.067 A 
ATOM     11 BR   UNL     1      -0.898 -10.795   2.160  0.00  0.00    -0.050 Br
BRANCH  10  12
ATOM     12  N   UNL     1      -4.377  -8.715  -2.341  0.00  0.00    -0.186 N 
ATOM     13  C   UNL     1      -5.794  -8.315  -2.252  0.00  0.00    +0.257 C 
ATOM     14  N   UNL     1      -6.107  -7.902  -3.633  0.00  0.00    -0.230 N 
ATOM     15  N   UNL     1      -4.927  -8.083  -4.363  0.00  0.00    -0.064 NA
ATOM     16  N   UNL     1      -4.005  -8.510  -3.675  0.00  0.00    -0.057 NA
ATOM     17  H   UNL     1      -6.957  -7.573  -3.966  0.00  0.00    +0.172 HD
ENDBRANCH  10  12
ENDBRANCH   2   5
BRANCH   1  18
ATOM     18  C   UNL     1      -0.319  -5.616  -2.284  0.00  0.00    +0.109 C 
BRANCH  18  19
ATOM     19  C   UNL     1       1.031  -5.126  -1.758  0.00  0.00    +0.052 C 
BRANCH  19  26
ATOM     20  C   UNL     1       0.606  -0.607  -1.056  0.00  0.00    +0.121 A 
ATOM     21  C   UNL     1       1.172   0.195  -2.062  0.00  0.00    +0.047 A 
ATOM     22  C   UNL     1       1.790  -0.325  -3.144  0.00  0.00    +0.029 A 
ATOM     23  C   UNL     1       1.886  -1.780  -3.299  0.00  0.00    +0.043 A 
ATOM     24  N   UNL     1       2.419  -2.528  -4.232  0.00  0.00    -0.380 N 
ATOM     25  C   UNL     1       2.222  -3.937  -3.871  0.00  0.00    +0.144 C 
ATOM     26  C   UNL     1       1.476  -3.927  -2.555  0.00  0.00    -0.040 C 
ATOM     27  C   UNL     1       1.290  -2.626  -2.239  0.00  0.00    +0.002 A 
ATOM     28  C   UNL     1       0.646  -1.960  -1.102  0.00  0.00    +0.055 A 
ATOM     29  H   UNL     1       2.869  -2.205  -5.029  0.00  0.00    +0.160 HD
BRANCH  20  31
ATOM     30  C   UNL     1      -0.017   1.425   0.010  0.00  0.00    +0.277 C 
ATOM     31  O   UNL     1       0.002  -0.004   0.002  0.00  0.00    -0.495 OA
ENDBRANCH  20  31
ENDBRANCH  19  26
ENDBRANCH  18  19
ENDBRANCH   1  18
TORSDOF 6
