REMARK  Name = ZINC63004569
REMARK  3 active torsions:
REMARK  status: ('A' for Active; 'I' for Inactive)
REMARK    1  A    between atoms: C_1  and  C_2
REMARK    2  A    between atoms: C_2  and  C_19
REMARK    3  A    between atoms: C_8  and  C_10
REMARK                            x       y       z     vdW  Elec       q    Type
REMARK                         _______ _______ _______ _____ _____    ______ ____
ROOT
ATOM      1  C   UNL     1       0.586   2.062   0.161  0.00  0.00    +0.024 C 
ATOM      2  C   UNL     1       0.274   0.582  -0.073  0.00  0.00    +0.085 C 
ATOM      3  C   UNL     1      -1.236   0.400  -0.247  0.00  0.00    +0.021 C 
ATOM      4  C   UNL     1      -1.961   0.912   0.999  0.00  0.00    +0.020 C 
ATOM      5  C   UNL     1      -1.513   0.097   2.216  0.00  0.00    +0.108 C 
ATOM      6  N   UNL     1      -0.047   0.148   2.307  0.00  0.00    -0.296 N 
ATOM      7  C   UNL     1       0.747  -0.237   1.132  0.00  0.00    +0.126 C 
ATOM      8  C   UNL     1       0.557   0.541   3.445  0.00  0.00    +0.247 C 
ATOM      9  O   UNL     1       1.770   0.513   3.530  0.00  0.00    -0.270 OA
ENDROOT
BRANCH   8  10
ATOM     10  C   UNL     1      -0.253   1.005   4.590  0.00  0.00    +0.042 A 
ATOM     11  C   UNL     1      -1.317   0.229   5.055  0.00  0.00    +0.054 A 
ATOM     12  C   UNL     1      -2.072   0.668   6.125  0.00  0.00    +0.162 A 
ATOM     13  C   UNL     1      -1.774   1.877   6.738  0.00  0.00    +0.193 A 
ATOM     14  C   UNL     1      -0.718   2.651   6.279  0.00  0.00    +0.162 A 
ATOM     15  C   UNL     1       0.046   2.218   5.213  0.00  0.00    +0.054 A 
ATOM     16  F   UNL     1      -0.433   3.827   6.879  0.00  0.00    -0.202 F 
ATOM     17  F   UNL     1      -2.516   2.302   7.784  0.00  0.00    -0.199 F 
ATOM     18  F   UNL     1      -3.102  -0.082   6.576  0.00  0.00    -0.202 F 
ENDBRANCH   8  10
BRANCH   2  19
ATOM     19  C   UNL     1       0.985   0.108  -1.314  0.00  0.00    +0.363 C 
ATOM     20  O   UNL     1       2.201   0.166  -1.380  0.00  0.00    -0.246 OA
ATOM     21  O   UNL     1       0.344  -0.333  -2.253  0.00  0.00    -0.246 OA
ENDBRANCH   2  19
TORSDOF 2
