REMARK  Name = ZINC23142826
REMARK  7 active torsions:
REMARK  status: ('A' for Active; 'I' for Inactive)
REMARK    1  A    between atoms: C_3  and  S_32
REMARK    2  A    between atoms: C_6  and  C_7
REMARK    3  A    between atoms: C_7  and  C_8
REMARK    4  A    between atoms: C_8  and  N_9
REMARK    5  A    between atoms: C_10  and  C_12
REMARK    6  A    between atoms: C_22  and  C_25
REMARK    7  A    between atoms: S_32  and  N_35
REMARK                            x       y       z     vdW  Elec       q    Type
REMARK                         _______ _______ _______ _____ _____    ______ ____
ROOT
ATOM      1  C   UNL     1       1.579   7.526   0.171  0.00  0.00    +0.092 C 
ATOM      2  C   UNL     1       0.808   8.178  -0.980  0.00  0.00    +0.016 C 
ATOM      3  C   UNL     1      -0.633   7.662  -0.975  0.00  0.00    +0.020 C 
ATOM      4  C   UNL     1      -0.624   6.137  -1.095  0.00  0.00    +0.106 C 
ATOM      5  N   UNL     1       0.125   5.561   0.029  0.00  0.00    -0.313 N 
ATOM      6  C   UNL     1       1.524   6.005   0.018  0.00  0.00    +0.119 C 
ATOM      7  C   UNL     1       0.042   4.173   0.023  0.00  0.00    +0.144 A 
ATOM      8  C   UNL     1      -1.205   3.547   0.032  0.00  0.00    +0.047 A 
ATOM      9  C   UNL     1      -1.238   2.164   0.020  0.00  0.00    +0.033 A 
ATOM     10  C   UNL     1      -0.018   1.479   0.010  0.00  0.00    +0.093 A 
ATOM     11  N   UNL     1       1.120   2.159   0.003  0.00  0.00    -0.147 NA
ATOM     12  N   UNL     1       1.148   3.442   0.009  0.00  0.00    -0.134 NA
ENDROOT
BRANCH  10  13
ATOM     13  C   UNL     1       0.002  -0.004   0.002  0.00  0.00    +0.002 A 
ATOM     14  C   UNL     1      -1.194  -0.719   0.015  0.00  0.00    +0.013 A 
ATOM     15  C   UNL     1      -1.171  -2.099   0.002  0.00  0.00    +0.039 A 
ATOM     16  C   UNL     1       0.040  -2.773  -0.013  0.00  0.00    +0.123 A 
ATOM     17  C   UNL     1       1.231  -2.066  -0.021  0.00  0.00    +0.039 A 
ATOM     18  C   UNL     1       1.217  -0.687  -0.013  0.00  0.00    +0.013 A 
ATOM     19  F   UNL     1       0.058  -4.124  -0.020  0.00  0.00    -0.205 F 
ENDBRANCH  10  13
BRANCH   1  21
ATOM     20  N   UNL     1       3.888   7.532   1.060  0.00  0.00    -0.315 N 
ATOM     21  C   UNL     1       3.015   7.984   0.138  0.00  0.00    +0.218 C 
ATOM     22  O   UNL     1       3.385   8.758  -0.719  0.00  0.00    -0.275 OA
ATOM     23  H   UNL     1       3.552   6.830   1.837  0.00  0.00    +0.149 HD
BRANCH  20  24
ATOM     24  C   UNL     1       5.283   7.977   1.028  0.00  0.00    +0.109 C 
BRANCH  24  25
ATOM     25  C   UNL     1       6.054   7.321   2.175  0.00  0.00    +0.054 C 
BRANCH  25  31
ATOM     26  C   UNL     1       8.426   7.064   1.418  0.00  0.00    +0.005 A 
ATOM     27  C   UNL     1       9.742   7.486   1.384  0.00  0.00    +0.029 A 
ATOM     28  C   UNL     1      10.123   8.617   2.081  0.00  0.00    +0.105 A 
ATOM     29  C   UNL     1       9.188   9.329   2.809  0.00  0.00    +0.029 A 
ATOM     30  C   UNL     1       7.871   8.909   2.839  0.00  0.00    +0.005 A 
ATOM     31  C   UNL     1       7.490   7.778   2.142  0.00  0.00    -0.046 A 
BRANCH  28  32
ATOM     32  S   UNL     1      11.802   9.152   2.042  0.00  0.00    +0.056 S 
ATOM     33  O   UNL     1      12.368   8.626   0.850  0.00  0.00    -0.153 OA
ATOM     34  O   UNL     1      11.792  10.543   2.331  0.00  0.00    -0.153 OA
BRANCH  32  35
ATOM     35  N   UNL     1      12.581   8.412   3.303  0.00  0.00    -0.204 NA
ATOM     36  H   UNL     1      13.637   8.722   3.313  0.00  0.00    +0.144 HD
ATOM     37  H   UNL     1      12.520   7.321   3.181  0.00  0.00    +0.144 HD
ENDBRANCH  32  35
ENDBRANCH  28  32
ENDBRANCH  25  31
ENDBRANCH  24  25
ENDBRANCH  20  24
ENDBRANCH   1  21
TORSDOF 7
