REMARK  Name = ZINC12502929
REMARK  8 active torsions:
REMARK  status: ('A' for Active; 'I' for Inactive)
REMARK    1  A    between atoms: C_1  and  O_2
REMARK    2  A    between atoms: O_2  and  C_3
REMARK    3  A    between atoms: C_6  and  C_10
REMARK    4  A    between atoms: N_12  and  C_13
REMARK    5  A    between atoms: C_13  and  N_15
REMARK    6  A    between atoms: N_15  and  N_16
REMARK    7  A    between atoms: C_17  and  C_19
REMARK    8  A    between atoms: C_22  and  N_25
REMARK                            x       y       z     vdW  Elec       q    Type
REMARK                         _______ _______ _______ _____ _____    ______ ____
ROOT
ATOM      1  C   UNL     1       3.524   1.907  -0.021  0.00  0.00    +0.153 C 
ATOM      2  S   UNL     1       5.018   1.071  -0.040  0.00  0.00    -0.017 S 
ENDROOT
BRANCH   1   5
ATOM      3  C   UNL     1       4.664   3.944  -0.021  0.00  0.00    +0.250 C 
ATOM      4  O   UNL     1       5.724   3.351  -0.035  0.00  0.00    -0.270 OA
ATOM      5  N   UNL     1       3.506   3.254  -0.014  0.00  0.00    -0.263 N 
ATOM      6  H   UNL     1       2.659   3.728  -0.003  0.00  0.00    +0.157 HD
BRANCH   3  10
ATOM      7  C   UNL     1       4.605   8.190   0.002  0.00  0.00    +0.133 A 
ATOM      8  C   UNL     1       3.410   7.480   0.010  0.00  0.00    +0.047 A 
ATOM      9  C   UNL     1       3.425   6.104  -0.004  0.00  0.00    +0.017 A 
ATOM     10  C   UNL     1       4.644   5.419  -0.013  0.00  0.00    +0.038 A 
ATOM     11  C   UNL     1       5.843   6.136  -0.021  0.00  0.00    +0.031 A 
ATOM     12  C   UNL     1       5.820   7.514  -0.013  0.00  0.00    +0.056 A 
ATOM     13  I   UNL     1       7.617   8.590  -0.024  0.00  0.00    -0.040 I 
BRANCH   7  15
ATOM     14  C   UNL     1       3.304  10.178   0.026  0.00  0.00    +0.277 C 
ATOM     15  O   UNL     1       4.587   9.547   0.010  0.00  0.00    -0.494 OA
ENDBRANCH   7  15
ENDBRANCH   3  10
ENDBRANCH   1   5
BRANCH   1  16
ATOM     16  N   UNL     1       2.366   1.217  -0.014  0.00  0.00    -0.245 N 
ATOM     17  H   UNL     1       2.379   0.247  -0.019  0.00  0.00    +0.172 HD
BRANCH  16  18
ATOM     18  N   UNL     1       1.143   1.901   0.001  0.00  0.00    -0.231 N 
ATOM     19  C   UNL     1      -0.014   1.211   0.009  0.00  0.00    +0.260 C 
ATOM     20  O   UNL     1       0.002  -0.004   0.002  0.00  0.00    -0.269 OA
ATOM     21  H   UNL     1       1.130   2.871   0.007  0.00  0.00    +0.173 HD
BRANCH  19  22
ATOM     22  C   UNL     1      -1.305   1.933   0.019  0.00  0.00    +0.038 A 
ATOM     23  C   UNL     1      -1.327   3.329   0.032  0.00  0.00    +0.015 A 
ATOM     24  C   UNL     1      -2.534   3.996   0.037  0.00  0.00    +0.033 A 
ATOM     25  C   UNL     1      -3.721   3.285   0.039  0.00  0.00    +0.126 A 
ATOM     26  C   UNL     1      -3.706   1.901   0.030  0.00  0.00    +0.033 A 
ATOM     27  C   UNL     1      -2.506   1.222   0.021  0.00  0.00    +0.015 A 
BRANCH  25  28
ATOM     28  N   UNL     1      -5.013   4.008   0.050  0.00  0.00    +0.056 N 
ATOM     29  O   UNL     1      -6.060   3.384   0.051  0.00  0.00    -0.126 OA
ATOM     30  O   UNL     1      -5.030   5.225   0.057  0.00  0.00    -0.126 OA
ENDBRANCH  25  28
ENDBRANCH  19  22
ENDBRANCH  16  18
ENDBRANCH   1  16
TORSDOF 7
