REMARK  Name = ZINC39785755
REMARK  9 active torsions:
REMARK  status: ('A' for Active; 'I' for Inactive)
REMARK    1  A    between atoms: C_1  and  C_2
REMARK    2  A    between atoms: C_4  and  C_17
REMARK    3  A    between atoms: C_5  and  C_16
REMARK    4  A    between atoms: N_7  and  C_8
REMARK    5  A    between atoms: C_17  and  N_18
REMARK    6  A    between atoms: N_18  and  C_19
REMARK    7  A    between atoms: C_19  and  C_20
REMARK    8  A    between atoms: C_20  and  C_22
REMARK    9  A    between atoms: C_20  and  C_27
REMARK                            x       y       z     vdW  Elec       q    Type
REMARK                         _______ _______ _______ _____ _____    ______ ____
ROOT
ATOM      1  N   UNL     1      -3.548   0.581  -0.009  0.00  0.00    +0.382 N 
ATOM      2  H   UNL     1      -3.808   0.598   0.966  0.00  0.00    -0.085 HD
ATOM      3  H   UNL     1      -3.003   1.402  -0.225  0.00  0.00    -0.085 HD
ENDROOT
BRANCH   1   4
ATOM      4  C   UNL     1      -2.750  -0.622  -0.281  0.00  0.00    -0.048 C 
BRANCH   4   7
ATOM      5  C   UNL     1      -0.320   1.599   0.490  0.00  0.00    +0.030 C 
ATOM      6  C   UNL     1      -0.207   0.096   0.231  0.00  0.00    +0.097 C 
ATOM      7  C   UNL     1      -1.507  -0.605   0.571  0.00  0.00    -0.052 C 
ATOM      8  C   UNL     1      -1.365  -1.192   1.732  0.00  0.00    -0.004 C 
ATOM      9  N   UNL     1      -0.090  -0.976   2.263  0.00  0.00    -0.354 NA
ATOM     10  N   UNL     1       0.771  -0.524   1.161  0.00  0.00    -0.235 NA
ATOM     11  C   UNL     1      -2.440  -2.000   2.411  0.00  0.00    +0.060 C 
ATOM     12  H   UNL     1      -0.133  -0.266   2.979  0.00  0.00    +0.141 HD
ATOM     13  H   UNL     1       0.271  -1.835   2.650  0.00  0.00    +0.141 HD
BRANCH  10  14
ATOM     14  C   UNL     1       1.753   0.464   1.627  0.00  0.00    +0.097 C 
ATOM     15  C   UNL     1       2.682   0.861   0.467  0.00  0.00    +0.045 C 
ATOM     16  C   UNL     1       3.902   1.642   1.011  0.00  0.00    +0.167 C 
ATOM     17  S   UNL     1       4.080   0.976   2.716  0.00  0.00    -0.029 S 
ATOM     18  O   UNL     1       5.270   0.202   2.788  0.00  0.00    -0.174 OA
ATOM     19  O   UNL     1       3.874   2.029   3.648  0.00  0.00    -0.174 OA
ATOM     20  C   UNL     1       2.626  -0.155   2.756  0.00  0.00    +0.186 C 
ENDBRANCH  10  14
ENDBRANCH   4   7
ENDBRANCH   1   4
BRANCH   1  21
ATOM     21  C   UNL     1      -4.759   0.564  -0.839  0.00  0.00    -0.069 C 
BRANCH  21  22
ATOM     22  C   UNL     1      -5.590   1.817  -0.555  0.00  0.00    +0.041 C 
BRANCH  22  23
ATOM     23  C   UNL     1      -6.889   1.741  -1.314  0.00  0.00    -0.016 A 
ATOM     24  C   UNL     1      -8.236   1.750  -0.738  0.00  0.00    +0.003 A 
ATOM     25  C   UNL     1      -8.735   1.824   0.564  0.00  0.00    +0.010 A 
ATOM     26  C   UNL     1     -10.085   1.810   0.775  0.00  0.00    +0.001 A 
ATOM     27  C   UNL     1     -10.965   1.722  -0.294  0.00  0.00    +0.002 A 
ATOM     28  C   UNL     1     -10.495   1.648  -1.587  0.00  0.00    +0.026 A 
ATOM     29  C   UNL     1      -9.125   1.662  -1.826  0.00  0.00    +0.047 A 
ATOM     30  N   UNL     1      -8.361   1.604  -2.970  0.00  0.00    -0.360 N 
ATOM     31  C   UNL     1      -7.033   1.658  -2.646  0.00  0.00    +0.087 A 
ATOM     32  H   UNL     1      -8.712   1.538  -3.872  0.00  0.00    +0.165 HD
ENDBRANCH  22  23
BRANCH  22  33
ATOM     33  C   UNL     1      -4.823   3.038  -0.993  0.00  0.00    -0.005 A 
ATOM     34  C   UNL     1      -4.406   4.095  -0.254  0.00  0.00    +0.012 A 
ATOM     35  C   UNL     1      -3.708   5.114  -0.875  0.00  0.00    +0.008 A 
ATOM     36  C   UNL     1      -3.463   5.027  -2.205  0.00  0.00    +0.045 A 
ATOM     37  S   UNL     1      -4.221   3.465  -2.619  0.00  0.00    -0.101 S 
ENDBRANCH  22  33
ENDBRANCH  21  22
ENDBRANCH   1  21
TORSDOF 7
