REMARK  Name = ZINC36585834
REMARK  11 active torsions:
REMARK  status: ('A' for Active; 'I' for Inactive)
REMARK    1  A    between atoms: C_1  and  C_2
REMARK    2  A    between atoms: C_2  and  C_3
REMARK    3  A    between atoms: C_2  and  C_4
REMARK    4  A    between atoms: C_2  and  N_5
REMARK    5  A    between atoms: N_5  and  C_6
REMARK    6  A    between atoms: C_6  and  C_8
REMARK    7  A    between atoms: C_6  and  C_18
REMARK    8  A    between atoms: C_11  and  C_14
REMARK    9  A    between atoms: N_20  and  C_21
REMARK   10  A    between atoms: C_27  and  C_29
REMARK   11  A    between atoms: C_31  and  N_36
REMARK                            x       y       z     vdW  Elec       q    Type
REMARK                         _______ _______ _______ _____ _____    ______ ____
ROOT
ATOM      1  C   UNL     1      -1.524  -0.827   1.613  0.00  0.00    +0.193 C 
ENDROOT
BRANCH   1   2
ATOM      2  C   UNL     1      -2.068  -0.003   2.751  0.00  0.00    -0.018 A 
ATOM      3  C   UNL     1      -3.416  -0.048   3.055  0.00  0.00    +0.006 A 
ATOM      4  C   UNL     1      -3.914   0.709   4.099  0.00  0.00    +0.013 A 
ATOM      5  C   UNL     1      -3.065   1.510   4.839  0.00  0.00    +0.055 A 
ATOM      6  C   UNL     1      -1.718   1.555   4.536  0.00  0.00    +0.013 A 
ATOM      7  C   UNL     1      -1.218   0.795   3.495  0.00  0.00    +0.006 A 
BRANCH   5   8
ATOM      8  C   UNL     1      -3.610   2.336   5.976  0.00  0.00    +0.417 C 
ATOM      9  F   UNL     1      -3.559   1.591   7.159  0.00  0.00    -0.166 F 
ATOM     10  F   UNL     1      -2.839   3.495   6.121  0.00  0.00    -0.166 F 
ATOM     11  F   UNL     1      -4.936   2.688   5.704  0.00  0.00    -0.166 F 
ENDBRANCH   5   8
ENDBRANCH   1   2
BRANCH   1  12
ATOM     12  C   UNL     1      -0.029  -0.954   1.754  0.00  0.00    +0.238 C 
ATOM     13  O   UNL     1       0.472  -2.041   1.953  0.00  0.00    -0.273 OA
ATOM     14  N   UNL     1       0.752   0.140   1.660  0.00  0.00    -0.311 N 
ATOM     15  H   UNL     1       0.352   1.009   1.501  0.00  0.00    +0.149 HD
BRANCH  14  16
ATOM     16  C   UNL     1       2.206   0.017   1.797  0.00  0.00    +0.073 C 
ATOM     17  C   UNL     1       2.583   0.055   3.280  0.00  0.00    +0.022 C 
ATOM     18  C   UNL     1       4.101  -0.073   3.423  0.00  0.00    +0.002 C 
ATOM     19  C   UNL     1       4.782   1.086   2.693  0.00  0.00    +0.000 C 
ATOM     20  C   UNL     1       4.405   1.047   1.211  0.00  0.00    +0.002 C 
ATOM     21  C   UNL     1       2.887   1.176   1.067  0.00  0.00    +0.022 C 
ENDBRANCH  14  16
ENDBRANCH   1  12
BRANCH   1  22
ATOM     22  N   UNL     1      -2.132  -2.160   1.642  0.00  0.00    -0.277 N 
ATOM     23  C   UNL     1      -1.823  -3.020   2.632  0.00  0.00    +0.252 C 
ATOM     24  O   UNL     1      -0.947  -2.743   3.428  0.00  0.00    -0.270 OA
BRANCH  23  25
ATOM     25  C   UNL     1      -2.550  -4.299   2.752  0.00  0.00    +0.086 A 
ATOM     26  C   UNL     1      -3.065  -4.923   1.613  0.00  0.00    +0.049 A 
ATOM     27  C   UNL     1      -3.743  -6.117   1.732  0.00  0.00    +0.127 A 
ATOM     28  C   UNL     1      -3.916  -6.702   2.975  0.00  0.00    +0.036 A 
ATOM     29  C   UNL     1      -3.412  -6.096   4.109  0.00  0.00    +0.054 A 
ATOM     30  C   UNL     1      -2.722  -4.897   4.007  0.00  0.00    +0.191 A 
ATOM     31  O   UNL     1      -2.221  -4.303   5.119  0.00  0.00    -0.287 OA
BRANCH  27  32
ATOM     32  N   UNL     1      -4.289  -6.777   0.524  0.00  0.00    +0.056 N 
ATOM     33  O   UNL     1      -4.061  -6.318  -0.571  0.00  0.00    -0.126 OA
ATOM     34  O   UNL     1      -4.963  -7.775   0.634  0.00  0.00    -0.126 OA
ENDBRANCH  27  32
ENDBRANCH  23  25
BRANCH  22  36
ATOM     35  C   UNL     1      -3.651  -1.308  -0.074  0.00  0.00    +0.031 C 
ATOM     36  C   UNL     1      -3.075  -2.558   0.594  0.00  0.00    +0.030 C 
ATOM     37  C   UNL     1      -4.211  -3.375   1.213  0.00  0.00    +0.031 C 
ATOM     38  C   UNL     1      -2.348  -3.405  -0.452  0.00  0.00    +0.031 C 
ENDBRANCH  22  36
ENDBRANCH   1  22
TORSDOF 8
