REMARK  Name = ZINC14459975
REMARK  9 active torsions:
REMARK  status: ('A' for Active; 'I' for Inactive)
REMARK    1  A    between atoms: C_1  and  O_2
REMARK    2  A    between atoms: O_2  and  C_3
REMARK    3  A    between atoms: C_7  and  C_10
REMARK    4  A    between atoms: C_8  and  O_9
REMARK    5  A    between atoms: C_23  and  O_26
REMARK    6  A    between atoms: O_26  and  C_27
REMARK    7  A    between atoms: C_27  and  C_28
REMARK    8  A    between atoms: C_28  and  C_29
REMARK    9  A    between atoms: C_29  and  C_30
REMARK                            x       y       z     vdW  Elec       q    Type
REMARK                         _______ _______ _______ _____ _____    ______ ____
ROOT
ATOM      1  C   UNL     1      -0.019   1.526   0.010  0.00  0.00    +0.109 C 
ATOM      2  C   UNL     1       0.068  -0.001  -0.036  0.00  0.00    +0.029 C 
ATOM      3  C   UNL     1      -1.369  -0.566   0.146  0.00  0.00    +0.033 C 
ATOM      4  C   UNL     1      -1.570  -0.549   1.648  0.00  0.00    -0.030 C 
ATOM      5  C   UNL     1      -0.417  -0.521   2.267  0.00  0.00    -0.023 C 
ATOM      6  C   UNL     1       0.719  -0.506   1.269  0.00  0.00    +0.049 C 
ATOM      7  C   UNL     1       1.815   0.408   1.730  0.00  0.00    -0.016 A 
ATOM      8  C   UNL     1       2.591   0.003   2.809  0.00  0.00    +0.006 A 
ATOM      9  C   UNL     1       3.611   0.801   3.283  0.00  0.00    +0.004 A 
ATOM     10  C   UNL     1       3.874   2.019   2.683  0.00  0.00    +0.047 A 
ATOM     11  C   UNL     1       3.109   2.433   1.608  0.00  0.00    +0.142 A 
ATOM     12  C   UNL     1       2.074   1.625   1.127  0.00  0.00    +0.074 A 
ATOM     13  N   UNL     1       1.332   2.089   0.037  0.00  0.00    -0.334 N 
ATOM     14  H   UNL     1       1.815   1.912  -0.831  0.00  0.00    +0.147 HD
ENDROOT
BRANCH   1  19
ATOM     15  C   UNL     1      -1.925   3.773  -2.365  0.00  0.00    +0.162 A 
ATOM     16  C   UNL     1      -2.084   2.938  -3.459  0.00  0.00    +0.049 A 
ATOM     17  C   UNL     1      -1.577   1.653  -3.428  0.00  0.00    +0.004 A 
ATOM     18  C   UNL     1      -0.905   1.199  -2.308  0.00  0.00    +0.009 A 
ATOM     19  C   UNL     1      -0.747   2.026  -1.211  0.00  0.00    +0.018 A 
ATOM     20  C   UNL     1      -1.254   3.315  -1.236  0.00  0.00    +0.163 A 
BRANCH  15  22
ATOM     21  C   UNL     1      -3.102   5.440  -3.587  0.00  0.00    +0.277 C 
ATOM     22  O   UNL     1      -2.424   5.038  -2.395  0.00  0.00    -0.491 OA
ENDBRANCH  15  22
BRANCH  20  23
ATOM     23  O   UNL     1      -1.095   4.130  -0.159  0.00  0.00    -0.503 OA
ATOM     24  H   UNL     1      -0.287   4.660  -0.182  0.00  0.00    +0.292 HD
ENDBRANCH  20  23
ENDBRANCH   1  19
BRANCH  11  25
ATOM     25  O   UNL     1       3.365   3.630   1.016  0.00  0.00    -0.490 OA
BRANCH  25  26
ATOM     26  C   UNL     1       4.436   4.406   1.557  0.00  0.00    +0.229 C 
BRANCH  26  27
ATOM     27  C   UNL     1       4.572   5.709   0.767  0.00  0.00    +0.046 C 
BRANCH  27  28
ATOM     28  C   UNL     1       5.719   6.540   1.346  0.00  0.00    +0.038 C 
BRANCH  28  29
ATOM     29  C   UNL     1       5.852   7.823   0.568  0.00  0.00    -0.047 A 
ATOM     30  C   UNL     1       6.683   7.880  -0.536  0.00  0.00    +0.003 A 
ATOM     31  C   UNL     1       6.801   9.056  -1.252  0.00  0.00    +0.000 A 
ATOM     32  C   UNL     1       6.097  10.178  -0.859  0.00  0.00    +0.000 A 
ATOM     33  C   UNL     1       5.271  10.124   0.247  0.00  0.00    +0.000 A 
ATOM     34  C   UNL     1       5.148   8.946   0.961  0.00  0.00    +0.003 A 
ENDBRANCH  28  29
ENDBRANCH  27  28
ENDBRANCH  26  27
ENDBRANCH  25  26
ENDBRANCH  11  25
TORSDOF 8
