REMARK  Name = ZINC06136375
REMARK  7 active torsions:
REMARK  status: ('A' for Active; 'I' for Inactive)
REMARK    1  A    between atoms: C_1  and  O_2
REMARK    2  A    between atoms: O_2  and  C_3
REMARK    3  A    between atoms: C_5  and  N_38
REMARK    4  A    between atoms: C_10  and  C_32
REMARK    5  A    between atoms: C_18  and  S_21
REMARK    6  A    between atoms: S_21  and  C_22
REMARK    7  A    between atoms: C_27  and  N_28
REMARK                            x       y       z     vdW  Elec       q    Type
REMARK                         _______ _______ _______ _____ _____    ______ ____
ROOT
ATOM      1  C   UNL     1       0.002  -0.004   0.002  0.00  0.00    +0.143 A 
ATOM      2  C   UNL     1       1.205  -0.685  -0.011  0.00  0.00    +0.080 A 
ATOM      3  C   UNL     1       2.394   0.021  -0.015  0.00  0.00    +0.130 A 
ATOM      4  C   UNL     1       2.377   1.401  -0.007  0.00  0.00    +0.038 A 
ATOM      5  C   UNL     1       1.174   2.096   0.002  0.00  0.00    -0.016 A 
ATOM      6  C   UNL     1      -0.017   1.394   0.010  0.00  0.00    +0.074 A 
ATOM      7  N   UNL     1      -1.260   2.031   0.031  0.00  0.00    -0.334 N 
ATOM      8  C   UNL     1      -1.211   3.382  -0.497  0.00  0.00    +0.104 C 
ATOM      9  C   UNL     1      -0.164   4.205   0.257  0.00  0.00    +0.024 C 
ATOM     10  C   UNL     1       1.228   3.597  -0.003  0.00  0.00    +0.045 C 
ATOM     11  C   UNL     1       1.649   4.104  -1.393  0.00  0.00    +0.101 C 
ATOM     12  C   UNL     1       0.795   5.370  -1.665  0.00  0.00    +0.070 C 
ATOM     13  C   UNL     1      -0.069   5.600  -0.408  0.00  0.00    +0.022 C 
ATOM     14 CL   UNL     1       3.407   4.507  -1.397  0.00  0.00    -0.120 Cl
ATOM     15  H   UNL     1      -1.960   1.474  -0.436  0.00  0.00    +0.147 HD
ENDROOT
BRANCH   8  16
ATOM     16  C   UNL     1      -2.562   4.035  -0.355  0.00  0.00    -0.027 A 
ATOM     17  C   UNL     1      -3.303   3.847   0.797  0.00  0.00    +0.005 A 
ATOM     18  C   UNL     1      -4.539   4.450   0.929  0.00  0.00    +0.000 A 
ATOM     19  C   UNL     1      -5.040   5.232  -0.095  0.00  0.00    +0.000 A 
ATOM     20  C   UNL     1      -4.302   5.416  -1.248  0.00  0.00    +0.000 A 
ATOM     21  C   UNL     1      -3.062   4.818  -1.379  0.00  0.00    +0.005 A 
ENDBRANCH   8  16
BRANCH   3  22
ATOM     22  N   UNL     1       3.685  -0.703  -0.026  0.00  0.00    +0.057 N 
ATOM     23  O   UNL     1       3.700  -1.920  -0.033  0.00  0.00    -0.126 OA
ATOM     24  O   UNL     1       4.732  -0.080  -0.030  0.00  0.00    -0.126 OA
ENDBRANCH   3  22
BRANCH   1  26
ATOM     25  C   UNL     1      -1.078  -2.123  -0.002  0.00  0.00    +0.277 C 
ATOM     26  O   UNL     1      -1.168  -0.697   0.006  0.00  0.00    -0.493 OA
ENDBRANCH   1  26
BRANCH  12  27
ATOM     27  S   UNL     1       1.888   6.792  -1.937  0.00  0.00    -0.118 S 
BRANCH  27  28
ATOM     28  C   UNL     1       2.681   6.433  -3.469  0.00  0.00    +0.038 A 
ATOM     29  C   UNL     1       2.383   5.258  -4.149  0.00  0.00    +0.017 A 
ATOM     30  C   UNL     1       3.006   4.980  -5.349  0.00  0.00    +0.001 A 
ATOM     31  C   UNL     1       3.927   5.869  -5.874  0.00  0.00    +0.002 A 
ATOM     32  C   UNL     1       4.227   7.038  -5.200  0.00  0.00    +0.034 A 
ATOM     33  C   UNL     1       3.603   7.326  -4.002  0.00  0.00    +0.140 A 
BRANCH  33  34
ATOM     34  N   UNL     1       3.919   8.581  -3.284  0.00  0.00    +0.058 N 
ATOM     35  O   UNL     1       4.727   9.363  -3.752  0.00  0.00    -0.126 OA
ATOM     36  O   UNL     1       3.372   8.831  -2.225  0.00  0.00    -0.126 OA
ENDBRANCH  33  34
ENDBRANCH  27  28
ENDBRANCH  12  27
TORSDOF 6
