REMARK  Name = ZINC37276110
REMARK  5 active torsions:
REMARK  status: ('A' for Active; 'I' for Inactive)
REMARK    1  A    between atoms: C_1  and  C_2
REMARK    2  A    between atoms: C_3  and  C_10
REMARK    3  A    between atoms: C_10  and  N_11
REMARK    4  A    between atoms: N_11  and  C_12
REMARK    5  A    between atoms: C_12  and  C_19
REMARK                            x       y       z     vdW  Elec       q    Type
REMARK                         _______ _______ _______ _____ _____    ______ ____
ROOT
ATOM      1  C   UNL     1      -0.015  -0.512  -2.608  0.00  0.00    +0.137 C 
ENDROOT
BRANCH   1   4
ATOM      2  C   UNL     1       0.413   1.311  -0.121  0.00  0.00    +0.067 C 
ATOM      3  C   UNL     1       0.205  -0.182  -0.097  0.00  0.00    +0.062 A 
ATOM      4  C   UNL     1       0.021  -0.967  -1.172  0.00  0.00    +0.060 A 
ATOM      5  N   UNL     1      -0.130  -2.275  -0.720  0.00  0.00    -0.296 N 
ATOM      6  C   UNL     1      -0.342  -3.528  -1.251  0.00  0.00    +0.100 A 
ATOM      7  C   UNL     1      -0.437  -4.597  -0.462  0.00  0.00    +0.067 A 
ATOM      8  S   UNL     1      -0.224  -3.878   1.159  0.00  0.00    -0.058 S 
ATOM      9  C   UNL     1      -0.024  -2.189   0.643  0.00  0.00    +0.178 A 
ATOM     10  N   UNL     1       0.179  -0.953   1.000  0.00  0.00    -0.226 NA
ENDBRANCH   1   4
BRANCH   1  11
ATOM     11  N   UNL     1      -1.396  -0.174  -2.979  0.00  0.00    -0.304 NA
ATOM     12  H   UNL     1      -1.999  -0.980  -2.904  0.00  0.00    +0.123 HD
BRANCH  11  13
ATOM     13  C   UNL     1      -1.452   0.400  -4.330  0.00  0.00    +0.037 C 
ATOM     14  C   UNL     1      -2.917   0.541  -4.742  0.00  0.00    +0.046 C 
ATOM     15  C   UNL     1      -3.463   1.934  -4.322  0.00  0.00    +0.168 C 
ATOM     16  S   UNL     1      -1.989   2.974  -4.716  0.00  0.00    -0.029 S 
ATOM     17  O   UNL     1      -1.973   3.254  -6.109  0.00  0.00    -0.174 OA
ATOM     18  O   UNL     1      -1.909   4.044  -3.783  0.00  0.00    -0.174 OA
ATOM     19  C   UNL     1      -0.682   1.735  -4.332  0.00  0.00    +0.187 C 
ATOM     20  C   UNL     1      -0.764  -0.563  -5.300  0.00  0.00    +0.029 C 
ENDBRANCH  11  13
ENDBRANCH   1  11
TORSDOF 3
