REMARK  Name = ZINC38700976
REMARK  10 active torsions:
REMARK  status: ('A' for Active; 'I' for Inactive)
REMARK    1  A    between atoms: C_1  and  C_2
REMARK    2  A    between atoms: C_2  and  C_3
REMARK    3  A    between atoms: C_3  and  O_4
REMARK    4  A    between atoms: O_4  and  C_5
REMARK    5  A    between atoms: C_9  and  C_11
REMARK    6  A    between atoms: C_16  and  O_25
REMARK    7  A    between atoms: C_20  and  N_24
REMARK    8  A    between atoms: C_21  and  C_22
REMARK    9  A    between atoms: O_25  and  C_26
REMARK   10  A    between atoms: C_26  and  C_28
REMARK                            x       y       z     vdW  Elec       q    Type
REMARK                         _______ _______ _______ _____ _____    ______ ____
ROOT
ATOM      1  C   UNL     1       2.113  -6.014  -3.591  0.00  0.00    +0.098 C 
ATOM      2  C   UNL     1       1.391  -6.474  -4.829  0.00  0.00    +0.008 A 
ATOM      3  C   UNL     1       0.010  -6.573  -4.815  0.00  0.00    +0.012 A 
ATOM      4  C   UNL     1      -0.669  -6.994  -5.941  0.00  0.00    +0.047 A 
ATOM      5  C   UNL     1       0.034  -7.319  -7.094  0.00  0.00    +0.135 A 
ATOM      6  C   UNL     1       1.415  -7.221  -7.111  0.00  0.00    +0.093 A 
ATOM      7  C   UNL     1       2.097  -6.798  -5.977  0.00  0.00    +0.138 A 
ATOM      8  O   UNL     1       3.449  -6.707  -6.011  0.00  0.00    -0.441 OA
ATOM      9  C   UNL     1       4.148  -6.683  -4.863  0.00  0.00    +0.199 C 
ATOM     10  C   UNL     1       3.571  -6.362  -3.684  0.00  0.00    +0.098 C 
ENDROOT
BRANCH   1  15
ATOM     11  C   UNL     1       1.214  -2.614  -2.208  0.00  0.00    +0.121 A 
ATOM     12  C   UNL     1       1.693  -1.777  -3.204  0.00  0.00    +0.045 A 
ATOM     13  C   UNL     1       2.305  -2.313  -4.320  0.00  0.00    +0.004 A 
ATOM     14  C   UNL     1       2.441  -3.684  -4.444  0.00  0.00    +0.005 A 
ATOM     15  C   UNL     1       1.964  -4.521  -3.452  0.00  0.00    -0.031 A 
ATOM     16  C   UNL     1       1.355  -3.989  -2.332  0.00  0.00    +0.050 A 
BRANCH  11  17
ATOM     17  O   UNL     1       0.611  -2.089  -1.109  0.00  0.00    -0.492 OA
BRANCH  17  18
ATOM     18  C   UNL     1       0.500  -0.665  -1.048  0.00  0.00    +0.229 C 
BRANCH  18  20
ATOM     19  C   UNL     1      -0.320   1.260   0.317  0.00  0.00    +0.007 C 
ATOM     20  C   UNL     1      -0.201  -0.264   0.252  0.00  0.00    +0.038 C 
ENDBRANCH  18  20
ENDBRANCH  17  18
ENDBRANCH  11  17
ENDBRANCH   1  15
BRANCH   9  21
ATOM     21  N   UNL     1       5.484  -6.993  -4.891  0.00  0.00    -0.328 N 
ATOM     22  H   UNL     1       5.911  -7.225  -5.731  0.00  0.00    +0.145 HD
ATOM     23  H   UNL     1       6.002  -6.981  -4.071  0.00  0.00    +0.145 HD
ENDBRANCH   9  21
BRANCH  10  24
ATOM     24  C   UNL     1       4.372  -6.354  -2.497  0.00  0.00    +0.101 C 
ATOM     25  N   UNL     1       5.007  -6.348  -1.555  0.00  0.00    -0.191 NA
ENDBRANCH  10  24
BRANCH   5  26
ATOM     26  O   UNL     1      -0.633  -7.734  -8.203  0.00  0.00    -0.422 OA
BRANCH  26  27
ATOM     27  C   UNL     1      -0.500  -9.022  -8.578  0.00  0.00    +0.353 C 
ATOM     28  O   UNL     1       0.115  -9.800  -7.874  0.00  0.00    -0.244 OA
BRANCH  27  29
ATOM     29  C   UNL     1      -1.096  -9.486  -9.835  0.00  0.00    +0.116 A 
ATOM     30  C   UNL     1      -1.074 -10.736 -10.375  0.00  0.00    +0.070 A 
ATOM     31  C   UNL     1      -1.712 -10.979 -11.605  0.00  0.00    +0.008 A 
ATOM     32  C   UNL     1      -1.799 -12.200 -12.323  0.00  0.00    +0.010 A 
ATOM     33  C   UNL     1      -2.459 -12.264 -13.508  0.00  0.00    +0.001 A 
ATOM     34  C   UNL     1      -3.071 -11.146 -14.062  0.00  0.00    +0.001 A 
ATOM     35  C   UNL     1      -3.011  -9.938 -13.397  0.00  0.00    +0.016 A 
ATOM     36  C   UNL     1      -2.345  -9.858 -12.193  0.00  0.00    +0.022 A 
ATOM     37  S   UNL     1      -2.035  -8.552 -11.031  0.00  0.00    -0.080 S 
ATOM     38 CL   UNL     1      -0.259 -12.026  -9.547  0.00  0.00    -0.082 Cl
ENDBRANCH  27  29
ENDBRANCH  26  27
ENDBRANCH   5  26
TORSDOF 9
