REMARK  Name = ZINC09135054
REMARK  11 active torsions:
REMARK  status: ('A' for Active; 'I' for Inactive)
REMARK    1  A    between atoms: C_1  and  C_2
REMARK    2  A    between atoms: C_2  and  C_3
REMARK    3  A    between atoms: C_2  and  N_4
REMARK    4  A    between atoms: C_5  and  C_7
REMARK    5  A    between atoms: C_11  and  C_15
REMARK    6  A    between atoms: C_15  and  N_16
REMARK    7  A    between atoms: C_17  and  C_19
REMARK    8  A    between atoms: C_19  and  O_20
REMARK    9  A    between atoms: O_20  and  C_21
REMARK   10  A    between atoms: C_37  and  C_39
REMARK   11  A    between atoms: C_37  and  C_40
REMARK                            x       y       z     vdW  Elec       q    Type
REMARK                         _______ _______ _______ _____ _____    ______ ____
ROOT
ATOM      1  O   UNL     1      -1.161  -0.704   0.003  0.00  0.00    -0.482 OA
ENDROOT
BRANCH   1   2
ATOM      2  C   UNL     1       0.002  -0.004   0.002  0.00  0.00    +0.136 A 
ATOM      3  C   UNL     1       1.212  -0.666  -0.007  0.00  0.00    +0.092 A 
ATOM      4  C   UNL     1       2.412   0.046  -0.011  0.00  0.00    +0.131 A 
ATOM      5  C   UNL     1       2.402   1.430  -0.009  0.00  0.00    +0.038 A 
ATOM      6  C   UNL     1       1.194   2.115   0.002  0.00  0.00    +0.149 A 
ATOM      7  C   UNL     1      -0.017   1.402   0.010  0.00  0.00    +0.063 A 
ATOM      8  C   UNL     1      -1.248   2.109   0.031  0.00  0.00    -0.023 A 
ATOM      9  C   UNL     1      -1.224   3.466   0.032  0.00  0.00    +0.041 A 
ATOM     10  C   UNL     1       0.017   4.142   0.020  0.00  0.00    +0.341 A 
ATOM     11  O   UNL     1       0.034   5.360   0.023  0.00  0.00    -0.245 OA
ATOM     12  O   UNL     1       1.178   3.467   0.006  0.00  0.00    -0.421 OA
ATOM     13  C   UNL     1      -2.636   4.010   0.050  0.00  0.00    +0.043 C 
ATOM     14  C   UNL     1      -3.519   2.822   0.491  0.00  0.00    +0.010 C 
ATOM     15  C   UNL     1      -2.675   1.610   0.041  0.00  0.00    +0.037 C 
ATOM     16  C   UNL     1       3.683   2.226  -0.020  0.00  0.00    +0.046 C 
ATOM     17  C   UNL     1       4.850   1.332   0.408  0.00  0.00    +0.052 C 
ATOM     18  C   UNL     1       4.770   0.024  -0.388  0.00  0.00    +0.105 C 
ATOM     19  O   UNL     1       3.573  -0.659  -0.013  0.00  0.00    -0.486 OA
ATOM     20  C   UNL     1       5.984  -0.850  -0.067  0.00  0.00    +0.055 C 
ATOM     21  C   UNL     1       4.739   0.333  -1.886  0.00  0.00    +0.055 C 
ENDBRANCH   1   2
BRANCH   1  22
ATOM     22  C   UNL     1      -1.060  -2.129  -0.005  0.00  0.00    +0.324 C 
BRANCH  22  24
ATOM     23  N   UNL     1      -2.594  -4.069  -0.009  0.00  0.00    -0.312 N 
ATOM     24  C   UNL     1      -2.442  -2.730  -0.002  0.00  0.00    +0.251 C 
ATOM     25  O   UNL     1      -3.417  -2.009   0.006  0.00  0.00    -0.272 OA
ATOM     26  H   UNL     1      -1.814  -4.646  -0.015  0.00  0.00    +0.149 HD
BRANCH  23  27
ATOM     27  C   UNL     1      -3.938  -4.654  -0.006  0.00  0.00    +0.107 C 
BRANCH  27  31
ATOM     28  C   UNL     1      -4.481  -8.776  -1.208  0.00  0.00    +0.075 C 
ATOM     29  C   UNL     1      -5.119  -8.317   0.105  0.00  0.00    +0.013 C 
ATOM     30  C   UNL     1      -5.227  -6.791   0.113  0.00  0.00    +0.006 C 
ATOM     31  C   UNL     1      -3.830  -6.180  -0.015  0.00  0.00    +0.006 C 
ATOM     32  C   UNL     1      -3.191  -6.639  -1.328  0.00  0.00    +0.006 C 
ATOM     33  C   UNL     1      -3.084  -8.165  -1.337  0.00  0.00    +0.013 C 
BRANCH  28  35
ATOM     34  N   UNL     1      -3.840 -10.911  -2.280  0.00  0.00    -0.313 N 
ATOM     35  C   UNL     1      -4.375 -10.279  -1.217  0.00  0.00    +0.216 C 
ATOM     36  O   UNL     1      -4.771 -10.920  -0.267  0.00  0.00    -0.276 OA
ATOM     37  H   UNL     1      -3.523 -10.398  -3.040  0.00  0.00    +0.149 HD
BRANCH  34  39
ATOM     38  C   UNL     1      -3.707 -12.873  -3.734  0.00  0.00    +0.027 C 
ATOM     39  C   UNL     1      -3.736 -12.372  -2.289  0.00  0.00    +0.067 C 
ATOM     40  C   UNL     1      -2.451 -12.796  -1.575  0.00  0.00    +0.027 C 
ENDBRANCH  34  39
ENDBRANCH  28  35
ENDBRANCH  27  31
ENDBRANCH  23  27
ENDBRANCH  22  24
ENDBRANCH   1  22
TORSDOF 7
