REMARK  Name = ZINC15230052
REMARK  5 active torsions:
REMARK  status: ('A' for Active; 'I' for Inactive)
REMARK    1  A    between atoms: C_1  and  C_2
REMARK    2  A    between atoms: C_2  and  C_18
REMARK    3  A    between atoms: C_4  and  C_6
REMARK    4  A    between atoms: C_6  and  C_9
REMARK    5  A    between atoms: N_7  and  O_8
REMARK                            x       y       z     vdW  Elec       q    Type
REMARK                         _______ _______ _______ _____ _____    ______ ____
ROOT
ATOM      1  C   UNL     1      -0.838  -2.029   2.635  0.00  0.00    +0.125 C 
ATOM      2  N   UNL     1      -1.054  -3.269   2.948  0.00  0.00    -0.088 NA
ENDROOT
BRANCH   1   3
ATOM      3  C   UNL     1      -1.033  -0.975   3.638  0.00  0.00    +0.154 A 
ATOM      4  C   UNL     1      -1.431  -1.180   4.921  0.00  0.00    +0.059 A 
ATOM      5  C   UNL     1      -1.488   0.143   5.544  0.00  0.00    +0.021 A 
ATOM      6  C   UNL     1      -1.819   0.605   6.819  0.00  0.00    +0.011 A 
ATOM      7  C   UNL     1      -1.771   1.944   7.089  0.00  0.00    +0.001 A 
ATOM      8  C   UNL     1      -1.395   2.846   6.104  0.00  0.00    +0.004 A 
ATOM      9  C   UNL     1      -1.063   2.410   4.838  0.00  0.00    +0.047 A 
ATOM     10  C   UNL     1      -1.105   1.053   4.541  0.00  0.00    +0.136 A 
ATOM     11  O   UNL     1      -0.839   0.343   3.427  0.00  0.00    -0.453 OA
ENDBRANCH   1   3
BRANCH   1  15
ATOM     12  C   UNL     1       0.083   1.530   0.037  0.00  0.00    +0.016 C 
ATOM     13  C   UNL     1       0.048   0.001   0.015  0.00  0.00    -0.006 C 
ATOM     14  C   UNL     1      -1.256  -0.594   0.572  0.00  0.00    +0.021 C 
ATOM     15  C   UNL     1      -0.387  -1.671   1.243  0.00  0.00    +0.046 C 
ATOM     16  C   UNL     1       0.763  -0.649   1.212  0.00  0.00    +0.021 C 
BRANCH  13  17
ATOM     17  C   UNL     1       0.456  -0.575  -1.317  0.00  0.00    -0.041 A 
ATOM     18  C   UNL     1      -0.389  -1.442  -1.983  0.00  0.00    +0.004 A 
ATOM     19  C   UNL     1      -0.015  -1.970  -3.205  0.00  0.00    +0.000 A 
ATOM     20  C   UNL     1       1.204  -1.629  -3.760  0.00  0.00    +0.000 A 
ATOM     21  C   UNL     1       2.049  -0.761  -3.095  0.00  0.00    +0.000 A 
ATOM     22  C   UNL     1       1.673  -0.230  -1.875  0.00  0.00    +0.004 A 
ENDBRANCH  13  17
ENDBRANCH   1  15
BRANCH   2  23
ATOM     23  O   UNL     1      -0.763  -4.295   2.016  0.00  0.00    -0.409 OA
ATOM     24  H   UNL     1      -0.957  -5.186   2.338  0.00  0.00    +0.328 HD
ENDBRANCH   2  23
TORSDOF 4
