REMARK  Name = ZINC25451526
REMARK  15 active torsions:
REMARK  status: ('A' for Active; 'I' for Inactive)
REMARK    1  A    between atoms: C_1  and  C_2
REMARK    2  A    between atoms: C_2  and  O_3
REMARK    3  A    between atoms: O_3  and  C_4
REMARK    4  A    between atoms: C_7  and  S_10
REMARK    5  A    between atoms: S_10  and  N_13
REMARK    6  A    between atoms: N_13  and  C_14
REMARK    7  A    between atoms: C_17  and  C_20
REMARK    8  A    between atoms: N_22  and  C_23
REMARK    9  A    between atoms: C_23  and  C_24
REMARK   10  A    between atoms: C_24  and  C_26
REMARK   11  A    between atoms: C_24  and  N_29
REMARK   12  A    between atoms: C_26  and  C_27
REMARK   13  A    between atoms: C_26  and  C_28
REMARK   14  A    between atoms: N_29  and  C_30
REMARK   15  A    between atoms: N_29  and  C_31
REMARK                            x       y       z     vdW  Elec       q    Type
REMARK                         _______ _______ _______ _____ _____    ______ ____
ROOT
ATOM      1  C   UNL     1      -0.383   1.278   5.136  0.00  0.00    +0.048 A 
ATOM      2  C   UNL     1       0.953   1.610   5.339  0.00  0.00    +0.025 A 
ATOM      3  C   UNL     1       1.855   0.642   5.717  0.00  0.00    +0.015 A 
ATOM      4  C   UNL     1       1.430  -0.678   5.888  0.00  0.00    +0.037 A 
ATOM      5  C   UNL     1       0.088  -1.010   5.678  0.00  0.00    +0.015 A 
ATOM      6  C   UNL     1      -0.810  -0.037   5.304  0.00  0.00    +0.025 A 
ENDROOT
BRANCH   4   7
ATOM      7  C   UNL     1       2.395  -1.720   6.289  0.00  0.00    +0.244 C 
ATOM      8  O   UNL     1       2.024  -2.868   6.437  0.00  0.00    -0.270 OA
ATOM      9  N   UNL     1       3.688  -1.398   6.491  0.00  0.00    -0.313 N 
ATOM     10  H   UNL     1       4.024  -0.359   6.357  0.00  0.00    +0.149 HD
BRANCH   9  11
ATOM     11  C   UNL     1       4.647  -2.432   6.889  0.00  0.00    +0.089 C 
BRANCH  11  12
ATOM     12  C   UNL     1       6.060  -1.846   6.886  0.00  0.00    -0.049 C 
BRANCH  12  13
ATOM     13  N   UNL     1       6.445  -1.503   5.510  0.00  0.00    +0.379 N 
ATOM     14  C   UNL     1       5.845  -2.436   4.548  0.00  0.00    -0.096 C 
ATOM     15  C   UNL     1       6.084  -0.115   5.193  0.00  0.00    -0.096 C 
ATOM     16  H   UNL     1       7.538  -1.594   5.433  0.00  0.00    -0.082 HD
ENDBRANCH  12  13
BRANCH  12  17
ATOM     17  C   UNL     1       7.041  -2.877   7.448  0.00  0.00    -0.029 C 
ATOM     18  C   UNL     1       7.117  -4.077   6.503  0.00  0.00    +0.005 C 
ATOM     19  C   UNL     1       8.427  -2.243   7.580  0.00  0.00    +0.005 C 
ENDBRANCH  12  17
ENDBRANCH  11  12
ENDBRANCH   9  11
ENDBRANCH   4   7
BRANCH   1  20
ATOM     20  N   UNL     1      -1.293   2.259   4.759  0.00  0.00    -0.216 N 
ATOM     21  H   UNL     1      -1.299   2.636   3.725  0.00  0.00    +0.174 HD
BRANCH  20  22
ATOM     22  S   UNL     1      -2.368   2.861   5.866  0.00  0.00    +0.072 S 
ATOM     23  O   UNL     1      -3.131   3.853   5.193  0.00  0.00    -0.150 OA
ATOM     24  O   UNL     1      -2.966   1.740   6.502  0.00  0.00    -0.150 OA
BRANCH  22  28
ATOM     25  C   UNL     1       0.043   5.015   9.037  0.00  0.00    +0.121 A 
ATOM     26  C   UNL     1      -0.475   5.719   7.960  0.00  0.00    +0.047 A 
ATOM     27  C   UNL     1      -1.210   5.060   6.994  0.00  0.00    +0.032 A 
ATOM     28  C   UNL     1      -1.430   3.699   7.100  0.00  0.00    +0.109 A 
ATOM     29  C   UNL     1      -0.920   2.996   8.175  0.00  0.00    +0.032 A 
ATOM     30  C   UNL     1      -0.179   3.649   9.141  0.00  0.00    +0.047 A 
BRANCH  25  31
ATOM     31  O   UNL     1       0.767   5.661   9.989  0.00  0.00    -0.492 OA
BRANCH  31  33
ATOM     32  C   UNL     1       2.052   5.766  12.033  0.00  0.00    +0.048 C 
ATOM     33  C   UNL     1       1.268   4.872  11.069  0.00  0.00    +0.225 C 
ENDBRANCH  31  33
ENDBRANCH  25  31
ENDBRANCH  22  28
ENDBRANCH  20  22
ENDBRANCH   1  20
TORSDOF 10
