REMARK  Name = ZINC12371447
REMARK  8 active torsions:
REMARK  status: ('A' for Active; 'I' for Inactive)
REMARK    1  A    between atoms: C_1  and  O_2
REMARK    2  A    between atoms: O_2  and  C_3
REMARK    3  A    between atoms: C_9  and  C_13
REMARK    4  A    between atoms: C_13  and  C_14
REMARK    5  A    between atoms: C_14  and  N_15
REMARK    6  A    between atoms: N_15  and  C_16
REMARK    7  A    between atoms: N_21  and  C_24
REMARK    8  A    between atoms: C_29  and  C_30
REMARK                            x       y       z     vdW  Elec       q    Type
REMARK                         _______ _______ _______ _____ _____    ______ ____
ROOT
ATOM      1  N   UNL     1      -0.691  -6.775   1.433  0.00  0.00    +0.387 N 
ATOM      2  H   UNL     1      -1.179  -7.563   1.033  0.00  0.00    -0.085 HD
ATOM      3  H   UNL     1       0.129  -6.573   0.881  0.00  0.00    -0.085 HD
ENDROOT
BRANCH   1   4
ATOM      4  C   UNL     1      -0.289  -7.095   2.809  0.00  0.00    +0.026 C 
ATOM      5  C   UNL     1       0.586  -8.366   2.838  0.00  0.00    +0.090 C 
ATOM      6  C   UNL     1       1.902  -7.877   3.401  0.00  0.00    +0.225 C 
ATOM      7  O   UNL     1       2.882  -8.565   3.593  0.00  0.00    -0.275 OA
ATOM      8  N   UNL     1       1.814  -6.566   3.655  0.00  0.00    -0.211 N 
ATOM      9  C   UNL     1       0.623  -6.021   3.361  0.00  0.00    +0.213 C 
ATOM     10  O   UNL     1       0.324  -4.856   3.512  0.00  0.00    -0.277 OA
BRANCH   8  11
ATOM     11  C   UNL     1       2.877  -5.822   4.186  0.00  0.00    +0.055 A 
ATOM     12  C   UNL     1       3.788  -5.207   3.337  0.00  0.00    +0.024 A 
ATOM     13  C   UNL     1       4.834  -4.475   3.863  0.00  0.00    +0.002 A 
ATOM     14  C   UNL     1       4.975  -4.355   5.234  0.00  0.00    +0.001 A 
ATOM     15  C   UNL     1       4.070  -4.966   6.081  0.00  0.00    +0.014 A 
ATOM     16  C   UNL     1       3.018  -5.695   5.561  0.00  0.00    +0.077 A 
BRANCH  16  17
ATOM     17  C   UNL     1       2.028  -6.356   6.485  0.00  0.00    +0.419 C 
ATOM     18  F   UNL     1       2.378  -6.086   7.813  0.00  0.00    -0.166 F 
ATOM     19  F   UNL     1       0.746  -5.857   6.230  0.00  0.00    -0.166 F 
ATOM     20  F   UNL     1       2.042  -7.738   6.271  0.00  0.00    -0.166 F 
ENDBRANCH  16  17
ENDBRANCH   8  11
ENDBRANCH   1   4
BRANCH   1  21
ATOM     21  C   UNL     1      -1.577  -5.603   1.442  0.00  0.00    -0.077 C 
BRANCH  21  22
ATOM     22  C   UNL     1      -1.996  -5.270   0.008  0.00  0.00    +0.018 C 
BRANCH  22  29
ATOM     23  C   UNL     1      -1.201  -0.638   0.010  0.00  0.00    +0.121 A 
ATOM     24  C   UNL     1      -2.377   0.107   0.019  0.00  0.00    +0.047 A 
ATOM     25  C   UNL     1      -3.604  -0.518   0.027  0.00  0.00    +0.030 A 
ATOM     26  C   UNL     1      -3.676  -1.907   0.026  0.00  0.00    +0.047 A 
ATOM     27  C   UNL     1      -2.490  -2.663   0.016  0.00  0.00    +0.006 A 
ATOM     28  C   UNL     1      -1.251  -2.017   0.003  0.00  0.00    +0.056 A 
ATOM     29  C   UNL     1      -2.904  -4.068   0.017  0.00  0.00    -0.024 A 
ATOM     30  C   UNL     1      -4.247  -4.082   0.027  0.00  0.00    +0.087 A 
ATOM     31  N   UNL     1      -4.726  -2.801   0.032  0.00  0.00    -0.360 N 
ATOM     32  H   UNL     1      -5.665  -2.557   0.040  0.00  0.00    +0.165 HD
BRANCH  23  34
ATOM     33  C   UNL     1      -0.017   1.425   0.010  0.00  0.00    +0.277 C 
ATOM     34  O   UNL     1       0.002  -0.004   0.002  0.00  0.00    -0.495 OA
ENDBRANCH  23  34
ENDBRANCH  22  29
ENDBRANCH  21  22
ENDBRANCH   1  21
TORSDOF 7
