REMARK  Name = ZINC02700161
REMARK  7 active torsions:
REMARK  status: ('A' for Active; 'I' for Inactive)
REMARK    1  A    between atoms: C_1  and  C_2
REMARK    2  A    between atoms: C_2  and  C_27
REMARK    3  A    between atoms: C_6  and  C_14
REMARK    4  A    between atoms: C_8  and  C_12
REMARK    5  A    between atoms: C_9  and  N_11
REMARK    6  A    between atoms: C_17  and  O_20
REMARK    7  A    between atoms: O_20  and  C_21
REMARK                            x       y       z     vdW  Elec       q    Type
REMARK                         _______ _______ _______ _____ _____    ______ ____
ROOT
ATOM      1  C   UNL     1       5.834   0.304   2.645  0.00  0.00    +0.012 C 
ATOM      2  C   UNL     1       5.142   1.488   3.324  0.00  0.00    -0.021 C 
ATOM      3  C   UNL     1       5.091   2.676   2.361  0.00  0.00    +0.081 C 
ATOM      4  C   UNL     1       4.296   2.301   1.132  0.00  0.00    +0.115 C 
ATOM      5  C   UNL     1       3.287   1.415   1.212  0.00  0.00    +0.046 C 
ATOM      6  C   UNL     1       2.490   1.045  -0.016  0.00  0.00    +0.101 C 
ATOM      7  C   UNL     1       3.253   1.415  -1.257  0.00  0.00    +0.098 C 
ATOM      8  C   UNL     1       4.274   2.304  -1.195  0.00  0.00    +0.198 C 
ATOM      9  O   UNL     1       4.628   2.882  -0.036  0.00  0.00    -0.445 OA
ATOM     10  C   UNL     1       2.942   0.805   2.433  0.00  0.00    +0.164 C 
ATOM     11  O   UNL     1       2.011   0.025   2.470  0.00  0.00    -0.292 OA
ATOM     12  C   UNL     1       3.706   1.102   3.695  0.00  0.00    +0.086 C 
ATOM     13  C   UNL     1       5.916   1.881   4.584  0.00  0.00    +0.012 C 
ENDROOT
BRANCH   6  14
ATOM     14  C   UNL     1       1.176   1.783   0.000  0.00  0.00    -0.034 A 
ATOM     15  C   UNL     1      -0.013   1.076   0.008  0.00  0.00    +0.008 A 
ATOM     16  C   UNL     1      -1.218   1.750   0.017  0.00  0.00    +0.046 A 
ATOM     17  C   UNL     1      -1.237   3.137   0.031  0.00  0.00    +0.127 A 
ATOM     18  C   UNL     1      -0.043   3.844   0.024  0.00  0.00    +0.046 A 
ATOM     19  C   UNL     1       1.160   3.165   0.008  0.00  0.00    +0.008 A 
BRANCH  17  20
ATOM     20  O   UNL     1      -2.422   3.802   0.045  0.00  0.00    -0.434 OA
BRANCH  20  21
ATOM     21  C   UNL     1      -3.611   3.009   0.052  0.00  0.00    +0.541 C 
ATOM     22  F   UNL     1      -3.643   2.208  -1.095  0.00  0.00    -0.166 F 
ATOM     23  F   UNL     1      -3.622   2.196   1.190  0.00  0.00    -0.166 F 
ENDBRANCH  20  21
ENDBRANCH  17  20
ENDBRANCH   6  14
BRANCH   8  24
ATOM     24  N   UNL     1       4.960   2.622  -2.341  0.00  0.00    -0.328 N 
ATOM     25  H   UNL     1       5.691   3.257  -2.308  0.00  0.00    +0.145 HD
ATOM     26  H   UNL     1       4.712   2.210  -3.184  0.00  0.00    +0.145 HD
ENDBRANCH   8  24
BRANCH   7  27
ATOM     27  C   UNL     1       2.901   0.823  -2.513  0.00  0.00    +0.101 C 
ATOM     28  N   UNL     1       2.621   0.354  -3.509  0.00  0.00    -0.191 NA
ENDBRANCH   7  27
TORSDOF 5
