REMARK  Name = ZINC00959843
REMARK  4 active torsions:
REMARK  status: ('A' for Active; 'I' for Inactive)
REMARK    1  A    between atoms: C_1  and  C_2
REMARK    2  A    between atoms: C_2  and  S_3
REMARK    3  A    between atoms: S_3  and  C_4
REMARK    4  A    between atoms: C_11  and  C_21
REMARK                            x       y       z     vdW  Elec       q    Type
REMARK                         _______ _______ _______ _____ _____    ______ ____
ROOT
ATOM      1  C   UNL     1       0.792  -2.345  -1.354  0.00  0.00    +0.171 A 
ATOM      2  N   UNL     1       1.357  -3.111  -2.328  0.00  0.00    -0.322 N 
ATOM      3  C   UNL     1       1.321  -4.478  -2.235  0.00  0.00    +0.111 A 
ATOM      4  C   UNL     1       0.718  -5.056  -1.162  0.00  0.00    +0.069 A 
ATOM      5  C   UNL     1       0.140  -4.227  -0.176  0.00  0.00    +0.280 A 
ATOM      6  N   UNL     1       0.208  -2.893  -0.309  0.00  0.00    -0.185 NA
ATOM      7  O   UNL     1      -0.415  -4.721   0.795  0.00  0.00    -0.265 OA
ATOM      8  C   UNL     1       0.667  -6.549  -1.016  0.00  0.00    +0.092 C 
ATOM      9  C   UNL     1       0.948  -7.237  -2.328  0.00  0.00    +0.024 C 
ATOM     10  C   UNL     1       0.586  -8.589  -2.455  0.00  0.00    +0.162 C 
ATOM     11  C   UNL     1       0.855  -9.354  -3.722  0.00  0.00    +0.080 C 
ATOM     12  C   UNL     1       2.079  -8.749  -4.417  0.00  0.00    +0.014 C 
ATOM     13  C   UNL     1       1.812  -7.263  -4.662  0.00  0.00    +0.051 C 
ATOM     14  C   UNL     1       1.533  -6.575  -3.349  0.00  0.00    +0.017 C 
ATOM     15  N   UNL     1       1.884  -5.259  -3.217  0.00  0.00    -0.304 N 
ATOM     16  O   UNL     1       0.045  -9.151  -1.523  0.00  0.00    -0.292 OA
ATOM     17  H   UNL     1       2.537  -4.873  -3.822  0.00  0.00    +0.153 HD
ATOM     18  H   UNL     1       1.786  -2.689  -3.089  0.00  0.00    +0.169 HD
ENDROOT
BRANCH   8  19
ATOM     19  C   UNL     1       1.697  -6.981  -0.004  0.00  0.00    -0.035 A 
ATOM     20  C   UNL     1       3.034  -6.700  -0.215  0.00  0.00    +0.005 A 
ATOM     21  C   UNL     1       3.978  -7.096   0.714  0.00  0.00    +0.015 A 
ATOM     22  C   UNL     1       3.585  -7.772   1.855  0.00  0.00    +0.018 A 
ATOM     23  C   UNL     1       2.247  -8.053   2.065  0.00  0.00    +0.015 A 
ATOM     24  C   UNL     1       1.303  -7.652   1.139  0.00  0.00    +0.005 A 
ATOM     25 BR   UNL     1       4.876  -8.314   3.125  0.00  0.00    -0.050 Br
ENDBRANCH   8  19
BRANCH   1  26
ATOM     26  S   UNL     1       0.851  -0.589  -1.490  0.00  0.00    -0.088 S 
BRANCH  26  28
ATOM     27  C   UNL     1      -0.019   1.526   0.010  0.00  0.00    +0.016 C 
ATOM     28  C   UNL     1       0.002  -0.004   0.002  0.00  0.00    +0.074 C 
ENDBRANCH  26  28
ENDBRANCH   1  26
TORSDOF 3
