REMARK  Name = ZINC64491469
REMARK  11 active torsions:
REMARK  status: ('A' for Active; 'I' for Inactive)
REMARK    1  A    between atoms: C_1  and  C_2
REMARK    2  A    between atoms: C_8  and  C_11
REMARK    3  A    between atoms: C_11  and  C_12
REMARK    4  A    between atoms: C_12  and  N_13
REMARK    5  A    between atoms: C_14  and  C_16
REMARK    6  A    between atoms: C_16  and  S_17
REMARK    7  A    between atoms: S_17  and  C_18
REMARK    8  A    between atoms: C_18  and  C_19
REMARK    9  A    between atoms: C_23  and  C_26
REMARK   10  A    between atoms: N_28  and  C_29
REMARK   11  A    between atoms: C_34  and  C_35
REMARK                            x       y       z     vdW  Elec       q    Type
REMARK                         _______ _______ _______ _____ _____    ______ ____
ROOT
ATOM      1  C   UNL     1      -2.546  -2.383   7.755  0.00  0.00    +0.164 C 
ENDROOT
BRANCH   1   3
ATOM      2  N   UNL     1      -1.397  -2.663   5.583  0.00  0.00    -0.314 N 
ATOM      3  C   UNL     1      -2.555  -2.653   6.273  0.00  0.00    +0.223 C 
ATOM      4  O   UNL     1      -3.604  -2.863   5.701  0.00  0.00    -0.275 OA
ATOM      5  H   UNL     1      -0.559  -2.495   6.040  0.00  0.00    +0.149 HD
BRANCH   2   6
ATOM      6  C   UNL     1      -1.406  -2.926   4.142  0.00  0.00    +0.108 C 
BRANCH   6   7
ATOM      7  C   UNL     1       0.027  -2.879   3.606  0.00  0.00    +0.052 C 
BRANCH   7  15
ATOM      8  C   UNL     1      -0.047   1.399  -0.052  0.00  0.00    +0.044 C 
ATOM      9  C   UNL     1      -0.031  -0.107  -0.050  0.00  0.00    -0.050 A 
ATOM     10  C   UNL     1      -0.034  -0.791  -1.274  0.00  0.00    +0.005 A 
ATOM     11  C   UNL     1      -0.021  -2.139  -1.356  0.00  0.00    +0.026 A 
ATOM     12  C   UNL     1      -0.003  -2.931  -0.175  0.00  0.00    +0.043 A 
ATOM     13  N   UNL     1       0.012  -4.229   0.005  0.00  0.00    -0.380 N 
ATOM     14  C   UNL     1       0.026  -4.502   1.446  0.00  0.00    +0.144 C 
ATOM     15  C   UNL     1       0.018  -3.150   2.124  0.00  0.00    -0.040 C 
ATOM     16  C   UNL     1       0.001  -2.232   1.130  0.00  0.00    -0.001 A 
ATOM     17  C   UNL     1      -0.009  -0.765   1.131  0.00  0.00    +0.013 A 
ATOM     18  H   UNL     1       0.013  -4.898  -0.698  0.00  0.00    +0.160 HD
ENDBRANCH   7  15
ENDBRANCH   6   7
ENDBRANCH   2   6
ENDBRANCH   1   3
BRANCH   1  19
ATOM     19  S   UNL     1      -4.245  -2.438   8.390  0.00  0.00    -0.148 S 
BRANCH  19  20
ATOM     20  C   UNL     1      -4.062  -2.097  10.162  0.00  0.00    +0.109 C 
BRANCH  20  21
ATOM     21  C   UNL     1      -5.439  -2.114  10.829  0.00  0.00    +0.197 C 
ATOM     22  N   UNL     1      -6.376  -1.185  10.158  0.00  0.00    -0.176 NA
ATOM     23  N   UNL     1      -7.491  -1.549   9.840  0.00  0.00    -0.167 NA
ATOM     24  C   UNL     1      -7.942  -2.932  10.117  0.00  0.00    +0.272 C 
ATOM     25  S   UNL     1      -6.315  -3.714  10.525  0.00  0.00    -0.094 S 
BRANCH  24  26
ATOM     26  C   UNL     1      -8.883  -2.977  11.293  0.00  0.00    +0.254 C 
ATOM     27  O   UNL     1      -8.516  -3.456  12.345  0.00  0.00    -0.272 OA
ATOM     28  N   UNL     1     -10.133  -2.486  11.176  0.00  0.00    -0.283 N 
ATOM     29  H   UNL     1     -10.400  -2.032  10.362  0.00  0.00    +0.155 HD
BRANCH  28  30
ATOM     30  C   UNL     1     -11.043  -2.632  12.228  0.00  0.00    +0.036 A 
ATOM     31  C   UNL     1     -10.893  -3.668  13.140  0.00  0.00    +0.023 A 
ATOM     32  C   UNL     1     -11.793  -3.809  14.177  0.00  0.00    +0.002 A 
ATOM     33  C   UNL     1     -12.845  -2.920  14.308  0.00  0.00    +0.000 A 
ATOM     34  C   UNL     1     -12.997  -1.888  13.402  0.00  0.00    +0.005 A 
ATOM     35  C   UNL     1     -12.096  -1.737  12.366  0.00  0.00    -0.029 A 
ATOM     36  C   UNL     1     -12.259  -0.607  11.382  0.00  0.00    +0.045 C 
ENDBRANCH  28  30
ENDBRANCH  24  26
ENDBRANCH  20  21
ENDBRANCH  19  20
ENDBRANCH   1  19
TORSDOF 9
