REMARK  Name = ZINC48528610
REMARK  3 active torsions:
REMARK  status: ('A' for Active; 'I' for Inactive)
REMARK    1  A    between atoms: C_3  and  C_8
REMARK    2  A    between atoms: C_10  and  C_11
REMARK    3  A    between atoms: C_10  and  C_13
REMARK                            x       y       z     vdW  Elec       q    Type
REMARK                         _______ _______ _______ _____ _____    ______ ____
ROOT
ATOM      1  C   UNL     1       3.175   2.727  -1.332  0.00  0.00    +0.182 C 
ATOM      2  O   UNL     1       3.652   3.510  -0.350  0.00  0.00    -0.291 OA
ATOM      3  C   UNL     1       3.909   2.530  -2.464  0.00  0.00    +0.156 C 
ENDROOT
BRANCH   3   4
ATOM      4  C   UNL     1       5.222   3.173  -2.610  0.00  0.00    +0.260 C 
ATOM      5  O   UNL     1       5.957   3.282  -1.646  0.00  0.00    -0.269 OA
ATOM      6  N   UNL     1       5.612   3.644  -3.811  0.00  0.00    -0.292 N 
ATOM      7  C   UNL     1       4.691   3.647  -4.959  0.00  0.00    +0.136 C 
ATOM      8  C   UNL     1       4.694   5.049  -5.577  0.00  0.00    +0.179 C 
ATOM      9  O   UNL     1       6.042   5.444  -5.844  0.00  0.00    -0.377 OA
ATOM     10  C   UNL     1       6.863   5.547  -4.678  0.00  0.00    +0.179 C 
ATOM     11  C   UNL     1       6.970   4.175  -4.012  0.00  0.00    +0.136 C 
ENDBRANCH   3   4
BRANCH   1  14
ATOM     12  C   UNL     1      -0.623   2.454  -1.042  0.00  0.00    +0.027 C 
ATOM     13  C   UNL     1       0.745   3.139  -1.007  0.00  0.00    +0.016 C 
ATOM     14  C   UNL     1       1.829   2.067  -1.182  0.00  0.00    +0.065 C 
ATOM     15  C   UNL     1       1.826   1.169   0.057  0.00  0.00    +0.038 C 
ATOM     16  C   UNL     1       0.428   0.716   0.364  0.00  0.00    -0.030 C 
ATOM     17  C   UNL     1      -0.637   1.278  -0.110  0.00  0.00    -0.031 C 
ENDBRANCH   1  14
BRANCH   3  18
ATOM     18  C   UNL     1       3.400   1.695  -3.510  0.00  0.00    +0.108 C 
ATOM     19  N   UNL     1       2.996   1.033  -4.341  0.00  0.00    -0.191 NA
ENDBRANCH   3  18
TORSDOF 3
