REMARK  Name = ZINC02462439
REMARK  7 active torsions:
REMARK  status: ('A' for Active; 'I' for Inactive)
REMARK    1  A    between atoms: C_1  and  C_2
REMARK    2  A    between atoms: C_3  and  C_28
REMARK    3  A    between atoms: C_4  and  C_21
REMARK    4  A    between atoms: C_10  and  C_15
REMARK    5  A    between atoms: C_25  and  O_27
REMARK    6  A    between atoms: C_28  and  O_30
REMARK    7  A    between atoms: O_30  and  C_31
REMARK                            x       y       z     vdW  Elec       q    Type
REMARK                         _______ _______ _______ _____ _____    ______ ____
ROOT
ATOM      1  C   UNL     1      -0.018   1.503   0.010  0.00  0.00    +0.061 C 
ATOM      2  C   UNL     1       0.002  -0.004   0.002  0.00  0.00    +0.016 C 
ATOM      3  C   UNL     1      -1.155  -0.687   0.004  0.00  0.00    +0.065 C 
ATOM      4  C   UNL     1      -1.174  -2.188   0.004  0.00  0.00    +0.092 C 
ATOM      5  C   UNL     1       0.160  -2.745  -0.427  0.00  0.00    +0.024 C 
ATOM      6  C   UNL     1       1.268  -1.974  -0.407  0.00  0.00    +0.016 C 
ATOM      7  N   UNL     1       1.198  -0.667  -0.013  0.00  0.00    -0.321 N 
ATOM      8  C   UNL     1       2.608  -2.531  -0.819  0.00  0.00    +0.059 C 
ATOM      9  C   UNL     1       2.410  -3.613  -1.883  0.00  0.00    +0.032 C 
ATOM     10  C   UNL     1       1.508  -4.706  -1.303  0.00  0.00    +0.088 C 
ATOM     11  C   UNL     1       0.215  -4.085  -0.850  0.00  0.00    +0.162 C 
ATOM     12  O   UNL     1      -0.800  -4.753  -0.848  0.00  0.00    -0.292 OA
ATOM     13  H   UNL     1       2.006  -0.206   0.263  0.00  0.00    +0.152 HD
ENDROOT
BRANCH   9  14
ATOM     14  C   UNL     1       3.745  -4.201  -2.262  0.00  0.00    -0.044 A 
ATOM     15  C   UNL     1       4.523  -4.823  -1.303  0.00  0.00    +0.004 A 
ATOM     16  C   UNL     1       5.748  -5.362  -1.650  0.00  0.00    +0.000 A 
ATOM     17  C   UNL     1       6.194  -5.279  -2.956  0.00  0.00    +0.000 A 
ATOM     18  C   UNL     1       5.416  -4.658  -3.915  0.00  0.00    +0.000 A 
ATOM     19  C   UNL     1       4.190  -4.122  -3.568  0.00  0.00    +0.004 A 
ENDBRANCH   9  14
BRANCH   4  20
ATOM     20  C   UNL     1      -1.489  -2.679   1.393  0.00  0.00    -0.032 A 
ATOM     21  C   UNL     1      -0.659  -2.346   2.448  0.00  0.00    +0.005 A 
ATOM     22  C   UNL     1      -0.945  -2.795   3.724  0.00  0.00    +0.004 A 
ATOM     23  C   UNL     1      -2.061  -3.578   3.948  0.00  0.00    +0.045 A 
ATOM     24  C   UNL     1      -2.894  -3.914   2.891  0.00  0.00    +0.117 A 
ATOM     25  C   UNL     1      -2.608  -3.457   1.613  0.00  0.00    +0.050 A 
BRANCH  24  26
ATOM     26  O   UNL     1      -3.992  -4.685   3.109  0.00  0.00    -0.507 OA
ATOM     27  H   UNL     1      -4.790  -4.181   3.320  0.00  0.00    +0.292 HD
ENDBRANCH  24  26
ENDBRANCH   4  20
BRANCH   3  28
ATOM     28  C   UNL     1      -2.380   0.021   0.006  0.00  0.00    +0.338 C 
ATOM     29  O   UNL     1      -2.378   1.238   0.007  0.00  0.00    -0.245 OA
BRANCH  28  30
ATOM     30  O   UNL     1      -3.549  -0.652   0.008  0.00  0.00    -0.458 OA
BRANCH  30  31
ATOM     31  C   UNL     1      -4.747   0.128   0.011  0.00  0.00    +0.177 C 
ATOM     32  C   UNL     1      -5.226   0.356   1.459  0.00  0.00    +0.044 C 
ATOM     33  C   UNL     1      -6.770   0.285   1.364  0.00  0.00    +0.004 C 
ATOM     34  C   UNL     1      -6.997  -0.841   0.325  0.00  0.00    +0.004 C 
ATOM     35  C   UNL     1      -5.873  -0.633  -0.710  0.00  0.00    +0.044 C 
ENDBRANCH  30  31
ENDBRANCH  28  30
ENDBRANCH   3  28
TORSDOF 6
