REMARK  Name = ZINC39737729
REMARK  8 active torsions:
REMARK  status: ('A' for Active; 'I' for Inactive)
REMARK    1  A    between atoms: C_1  and  C_2
REMARK    2  A    between atoms: C_4  and  C_12
REMARK    3  A    between atoms: C_12  and  C_14
REMARK    4  A    between atoms: C_14  and  C_16
REMARK    5  A    between atoms: C_14  and  S_17
REMARK    6  A    between atoms: S_17  and  C_18
REMARK    7  A    between atoms: C_22  and  C_25
REMARK    8  A    between atoms: N_23  and  C_24
REMARK                            x       y       z     vdW  Elec       q    Type
REMARK                         _______ _______ _______ _____ _____    ______ ____
ROOT
ATOM      1  C   UNL     1      -3.750  -1.043  -0.781  0.00  0.00    +0.117 C 
ATOM      2  C   UNL     1      -3.615  -2.477  -1.298  0.00  0.00    +0.027 C 
ENDROOT
BRANCH   1   3
ATOM      3  C   UNL     1      -2.428  -0.333  -0.919  0.00  0.00    +0.174 C 
ATOM      4  O   UNL     1      -2.205   0.350  -1.898  0.00  0.00    -0.291 OA
BRANCH   3   7
ATOM      5  C   UNL     1      -0.363   1.777   0.267  0.00  0.00    +0.035 C 
ATOM      6  C   UNL     1      -0.127   0.268   0.180  0.00  0.00    +0.111 C 
ATOM      7  C   UNL     1      -1.450  -0.461   0.090  0.00  0.00    +0.027 C 
ATOM      8  C   UNL     1      -1.499  -1.280   1.203  0.00  0.00    +0.006 A 
ATOM      9  C   UNL     1      -2.464  -2.197   1.682  0.00  0.00    +0.010 A 
ATOM     10  C   UNL     1      -2.246  -2.879   2.829  0.00  0.00    +0.001 A 
ATOM     11  C   UNL     1      -1.078  -2.719   3.591  0.00  0.00    +0.002 A 
ATOM     12  C   UNL     1      -0.095  -1.869   3.222  0.00  0.00    +0.026 A 
ATOM     13  C   UNL     1      -0.252  -1.087   1.985  0.00  0.00    +0.043 A 
ATOM     14  N   UNL     1       0.521  -0.213   1.404  0.00  0.00    -0.377 N 
ATOM     15  H   UNL     1       1.388   0.075   1.730  0.00  0.00    +0.160 HD
ENDBRANCH   3   7
ENDBRANCH   1   3
BRANCH   1  16
ATOM     16  S   UNL     1      -5.011  -0.167  -1.747  0.00  0.00    -0.107 S 
BRANCH  16  17
ATOM     17  C   UNL     1      -6.550  -1.045  -1.358  0.00  0.00    +0.237 C 
ATOM     18  N   UNL     1      -6.789  -1.049   0.095  0.00  0.00    -0.237 N 
ATOM     19  N   UNL     1      -6.797  -2.392   0.489  0.00  0.00    -0.166 NA
ATOM     20  C   UNL     1      -6.598  -3.183  -0.517  0.00  0.00    +0.183 C 
ATOM     21  N   UNL     1      -6.434  -2.471  -1.708  0.00  0.00    -0.286 N 
ATOM     22  C   UNL     1      -6.193  -3.029  -3.041  0.00  0.00    +0.133 C 
ATOM     23  H   UNL     1      -6.916  -0.275   0.665  0.00  0.00    +0.171 HD
BRANCH  20  24
ATOM     24  C   UNL     1      -6.551  -4.650  -0.418  0.00  0.00    +0.169 A 
ATOM     25  C   UNL     1      -6.713  -5.381   0.720  0.00  0.00    +0.053 A 
ATOM     26  C   UNL     1      -6.592  -6.736   0.353  0.00  0.00    +0.042 A 
ATOM     27  C   UNL     1      -6.365  -6.766  -0.976  0.00  0.00    +0.196 A 
ATOM     28  O   UNL     1      -6.347  -5.506  -1.440  0.00  0.00    -0.460 OA
ENDBRANCH  20  24
ENDBRANCH  16  17
ENDBRANCH   1  16
TORSDOF 5
