REMARK  Name = ZINC02126246
REMARK  7 active torsions:
REMARK  status: ('A' for Active; 'I' for Inactive)
REMARK    1  A    between atoms: C_1  and  C_2
REMARK    2  A    between atoms: C_7  and  C_8
REMARK    3  A    between atoms: C_17  and  C_19
REMARK    4  A    between atoms: C_19  and  C_20
REMARK    5  A    between atoms: C_20  and  S_21
REMARK    6  A    between atoms: S_21  and  C_22
REMARK    7  A    between atoms: N_25  and  C_28
REMARK                            x       y       z     vdW  Elec       q    Type
REMARK                         _______ _______ _______ _____ _____    ______ ____
ROOT
ATOM      1  C   UNL     1      -6.749  -6.304   1.980  0.00  0.00    +0.044 C 
ATOM      2  C   UNL     1      -5.554  -5.428   2.255  0.00  0.00    -0.046 A 
ATOM      3  C   UNL     1      -5.597  -4.510   3.289  0.00  0.00    +0.004 A 
ATOM      4  C   UNL     1      -4.500  -3.706   3.542  0.00  0.00    +0.005 A 
ATOM      5  C   UNL     1      -3.368  -3.819   2.765  0.00  0.00    -0.027 A 
ATOM      6  C   UNL     1      -3.314  -4.739   1.722  0.00  0.00    +0.039 A 
ATOM      7  C   UNL     1      -4.423  -5.544   1.474  0.00  0.00    -0.026 A 
ATOM      8  C   UNL     1      -4.387  -6.547   0.349  0.00  0.00    +0.046 C 
ATOM      9  N   UNL     1      -2.075  -4.670   1.082  0.00  0.00    -0.286 N 
ATOM     10  C   UNL     1      -1.267  -3.745   1.635  0.00  0.00    +0.211 C 
ATOM     11  O   UNL     1      -0.138  -3.469   1.289  0.00  0.00    -0.277 OA
ATOM     12  C   UNL     1      -2.038  -3.122   2.767  0.00  0.00    +0.050 C 
ATOM     13  C   UNL     1      -2.194  -1.609   2.571  0.00  0.00    +0.088 C 
ATOM     14  C   UNL     1      -1.075  -0.983   3.449  0.00  0.00    +0.073 C 
ATOM     15  C   UNL     1      -0.342  -2.189   4.075  0.00  0.00    -0.057 C 
ATOM     16  C   UNL     1      -0.167  -0.322   2.437  0.00  0.00    +0.224 C 
ATOM     17  O   UNL     1       0.845   0.292   2.699  0.00  0.00    -0.275 OA
ATOM     18  N   UNL     1      -0.653  -0.521   1.206  0.00  0.00    -0.239 N 
ATOM     19  C   UNL     1      -1.789  -1.227   1.165  0.00  0.00    +0.225 C 
ATOM     20  O   UNL     1      -2.398  -1.517   0.158  0.00  0.00    -0.275 OA
ATOM     21  H   UNL     1      -1.824  -5.225   0.326  0.00  0.00    +0.155 HD
ATOM     22  N   UNL     1      -1.332  -3.267   4.028  0.00  0.00    +0.394 N 
ATOM     23  H   UNL     1      -0.864  -4.180   4.069  0.00  0.00    -0.083 HD
ATOM     24  H   UNL     1      -1.987  -3.182   4.814  0.00  0.00    -0.083 HD
ENDROOT
BRANCH  18  25
ATOM     25  C   UNL     1       0.002  -0.004   0.002  0.00  0.00    +0.084 C 
ATOM     26  C   UNL     1       0.243   1.509   0.142  0.00  0.00    +0.023 C 
ATOM     27  C   UNL     1       1.768   1.723   0.053  0.00  0.00    +0.002 C 
ATOM     28  C   UNL     1       2.368   0.358   0.473  0.00  0.00    +0.002 C 
ATOM     29  C   UNL     1       1.389  -0.657  -0.167  0.00  0.00    +0.023 C 
ENDBRANCH  18  25
BRANCH  15  30
ATOM     30  C   UNL     1       0.071  -1.872   5.514  0.00  0.00    -0.004 C 
BRANCH  30  31
ATOM     31  C   UNL     1       0.902  -3.030   6.072  0.00  0.00    +0.067 C 
BRANCH  31  32
ATOM     32  S   UNL     1       1.391  -2.655   7.778  0.00  0.00    -0.164 S 
ATOM     33  C   UNL     1       2.356  -4.104   8.287  0.00  0.00    +0.084 C 
ENDBRANCH  31  32
ENDBRANCH  30  31
ENDBRANCH  15  30
TORSDOF 4
