REMARK  Name = ZINC39912631
REMARK  10 active torsions:
REMARK  status: ('A' for Active; 'I' for Inactive)
REMARK    1  A    between atoms: C_1  and  C_2
REMARK    2  A    between atoms: C_4  and  C_37
REMARK    3  A    between atoms: C_5  and  O_36
REMARK    4  A    between atoms: C_6  and  C_8
REMARK    5  A    between atoms: N_16  and  C_29
REMARK    6  A    between atoms: C_17  and  C_19
REMARK    7  A    between atoms: C_22  and  O_25
REMARK    8  A    between atoms: O_25  and  C_26
REMARK    9  A    between atoms: C_26  and  C_27
REMARK   10  A    between atoms: C_29  and  C_30
REMARK                            x       y       z     vdW  Elec       q    Type
REMARK                         _______ _______ _______ _____ _____    ______ ____
ROOT
ATOM      1  C   UNL     1      -0.235  -3.140   2.816  0.00  0.00    +0.102 A 
ATOM      2  C   UNL     1       0.018  -2.401   3.977  0.00  0.00    +0.035 A 
ATOM      3  C   UNL     1       0.077  -3.322   5.005  0.00  0.00    +0.126 A 
ATOM      4  N   UNL     1      -0.138  -4.544   4.433  0.00  0.00    -0.272 N 
ATOM      5  H   UNL     1      -0.154  -5.388   4.911  0.00  0.00    +0.189 HD
ATOM      6  N   UNL     1      -0.321  -4.408   3.167  0.00  0.00    -0.173 NA
ATOM      7  C   UNL     1       0.342  -2.606   6.258  0.00  0.00    +0.266 C 
ATOM      8  O   UNL     1       0.452  -3.133   7.348  0.00  0.00    -0.268 OA
ATOM      9  N   UNL     1       0.446  -1.285   6.029  0.00  0.00    -0.281 N 
ATOM     10  C   UNL     1       0.253  -1.049   4.593  0.00  0.00    +0.142 C 
ENDROOT
BRANCH   1  16
ATOM     11  C   UNL     1       1.354  -0.134  -0.839  0.00  0.00    +0.044 C 
ATOM     12  C   UNL     1       0.373  -1.153  -0.317  0.00  0.00    -0.049 A 
ATOM     13  C   UNL     1      -0.670  -1.580  -1.119  0.00  0.00    +0.010 A 
ATOM     14  C   UNL     1      -1.574  -2.513  -0.649  0.00  0.00    -0.008 A 
ATOM     15  C   UNL     1      -1.440  -3.026   0.631  0.00  0.00    +0.129 A 
ATOM     16  C   UNL     1      -0.387  -2.597   1.444  0.00  0.00    +0.044 A 
ATOM     17  C   UNL     1       0.522  -1.660   0.958  0.00  0.00    +0.017 A 
ATOM     18  C   UNL     1      -2.708  -2.973  -1.529  0.00  0.00    +0.047 C 
BRANCH  15  19
ATOM     19  O   UNL     1      -2.329  -3.943   1.095  0.00  0.00    -0.506 OA
ATOM     20  H   UNL     1      -2.078  -4.860   0.915  0.00  0.00    +0.292 HD
ENDBRANCH  15  19
ENDBRANCH   1  16
BRANCH  10  21
ATOM     21  C   UNL     1      -0.944  -0.162   4.369  0.00  0.00    -0.022 A 
ATOM     22  C   UNL     1      -2.104  -0.372   5.091  0.00  0.00    +0.009 A 
ATOM     23  C   UNL     1      -3.203   0.440   4.887  0.00  0.00    +0.046 A 
ATOM     24  C   UNL     1      -3.143   1.467   3.957  0.00  0.00    +0.121 A 
ATOM     25  C   UNL     1      -1.977   1.676   3.234  0.00  0.00    +0.046 A 
ATOM     26  C   UNL     1      -0.879   0.865   3.445  0.00  0.00    +0.009 A 
BRANCH  24  27
ATOM     27  O   UNL     1      -4.223   2.267   3.755  0.00  0.00    -0.488 OA
BRANCH  27  28
ATOM     28  C   UNL     1      -4.088   3.304   2.781  0.00  0.00    +0.256 C 
BRANCH  28  29
ATOM     29  C   UNL     1      -5.376   4.081   2.694  0.00  0.00    +0.006 C 
ATOM     30  C   UNL     1      -5.350   5.391   2.663  0.00  0.00    +0.007 C 
ENDBRANCH  28  29
ENDBRANCH  27  28
ENDBRANCH  24  27
ENDBRANCH  10  21
BRANCH   9  31
ATOM     31  C   UNL     1       0.708  -0.257   7.040  0.00  0.00    +0.145 C 
BRANCH  31  32
ATOM     32  C   UNL     1       2.195  -0.051   7.174  0.00  0.00    -0.012 A 
ATOM     33  C   UNL     1       2.929  -0.802   8.080  0.00  0.00    +0.008 A 
ATOM     34  C   UNL     1       4.294  -0.579   8.169  0.00  0.00    +0.020 A 
ATOM     35  C   UNL     1       4.874   0.379   7.358  0.00  0.00    +0.111 A 
ATOM     36  N   UNL     1       4.144   1.075   6.509  0.00  0.00    -0.263 NA
ATOM     37  C   UNL     1       2.845   0.885   6.393  0.00  0.00    +0.115 A 
ENDBRANCH  31  32
ENDBRANCH   9  31
TORSDOF 8
