REMARK  Name = ZINC66246922
REMARK  4 active torsions:
REMARK  status: ('A' for Active; 'I' for Inactive)
REMARK    1  A    between atoms: C_1  and  C_2
REMARK    2  A    between atoms: C_4  and  C_26
REMARK    3  A    between atoms: N_11  and  S_12
REMARK    4  A    between atoms: S_12  and  C_15
REMARK                            x       y       z     vdW  Elec       q    Type
REMARK                         _______ _______ _______ _____ _____    ______ ____
ROOT
ATOM      1  S   UNL     1       0.109  -6.484   3.266  0.00  0.00    +0.101 S 
ATOM      2  O   UNL     1       1.351  -6.046   3.800  0.00  0.00    -0.146 OA
ATOM      3  O   UNL     1      -1.140  -6.081   3.812  0.00  0.00    -0.146 OA
ENDROOT
BRANCH   1  14
ATOM      4  C   UNL     1      -0.018   1.503   0.010  0.00  0.00    +0.044 C 
ATOM      5  C   UNL     1       0.002  -0.004   0.002  0.00  0.00    -0.049 A 
ATOM      6  C   UNL     1       0.006  -0.699  -1.195  0.00  0.00    +0.008 A 
ATOM      7  C   UNL     1       0.025  -2.073  -1.221  0.00  0.00    -0.026 A 
ATOM      8  C   UNL     1       0.041  -2.818  -0.030  0.00  0.00    +0.058 A 
ATOM      9  C   UNL     1       0.037  -2.086   1.165  0.00  0.00    +0.039 A 
ATOM     10  C   UNL     1       0.023  -0.712   1.192  0.00  0.00    +0.020 A 
ATOM     11  S   UNL     1       0.061  -3.341   2.422  0.00  0.00    -0.048 S 
ATOM     12  C   UNL     1       0.076  -4.768   1.350  0.00  0.00    +0.192 A 
ATOM     13  N   UNL     1       0.061  -4.198   0.101  0.00  0.00    -0.332 N 
ATOM     14  N   UNL     1       0.095  -6.035   1.672  0.00  0.00    -0.103 NA
ATOM     15  C   UNL     1       0.028  -2.791  -2.546  0.00  0.00    +0.046 C 
ATOM     16  H   UNL     1       0.065  -4.760  -0.690  0.00  0.00    +0.168 HD
ENDBRANCH   1  14
BRANCH   1  17
ATOM     17  C   UNL     1       0.135  -8.245   3.311  0.00  0.00    +0.113 A 
ATOM     18  C   UNL     1      -1.060  -8.950   3.328  0.00  0.00    +0.033 A 
ATOM     19  C   UNL     1      -1.062 -10.329   3.363  0.00  0.00    +0.049 A 
ATOM     20  C   UNL     1       0.142 -11.022   3.381  0.00  0.00    +0.139 A 
ATOM     21  C   UNL     1       1.350 -10.303   3.363  0.00  0.00    +0.019 A 
ATOM     22  C   UNL     1       1.331  -8.906   3.322  0.00  0.00    +0.040 A 
ATOM     23  C   UNL     1       2.617 -11.042   3.382  0.00  0.00    +0.018 A 
ATOM     24  C   UNL     1       2.567 -12.398   3.416  0.00  0.00    +0.092 A 
ATOM     25  C   UNL     1       1.317 -13.054   3.432  0.00  0.00    +0.337 A 
ATOM     26  O   UNL     1       1.287 -14.271   3.463  0.00  0.00    -0.245 OA
ATOM     27  O   UNL     1       0.162 -12.371   3.415  0.00  0.00    -0.422 OA
ENDBRANCH   1  17
TORSDOF 2
