REMARK  Name = ZINC30961193
REMARK  12 active torsions:
REMARK  status: ('A' for Active; 'I' for Inactive)
REMARK    1  A    between atoms: C_1  and  C_2
REMARK    2  A    between atoms: C_5  and  C_8
REMARK    3  A    between atoms: N_10  and  C_11
REMARK    4  A    between atoms: C_11  and  C_13
REMARK    5  A    between atoms: C_11  and  C_16
REMARK    6  A    between atoms: C_13  and  C_14
REMARK    7  A    between atoms: C_13  and  C_15
REMARK    8  A    between atoms: N_18  and  N_19
REMARK    9  A    between atoms: C_20  and  C_21
REMARK   10  A    between atoms: C_24  and  O_28
REMARK   11  A    between atoms: O_28  and  C_29
REMARK   12  A    between atoms: C_29  and  C_30
REMARK                            x       y       z     vdW  Elec       q    Type
REMARK                         _______ _______ _______ _____ _____    ______ ____
ROOT
ATOM      1  C   UNL     1       1.078   8.082  -0.366  0.00  0.00    +0.253 C 
ATOM      2  O   UNL     1       2.078   8.708  -0.084  0.00  0.00    -0.272 OA
ATOM      3  N   UNL     1       1.163   6.767  -0.649  0.00  0.00    -0.205 N 
ATOM      4  H   UNL     1       0.249   6.184  -0.837  0.00  0.00    +0.177 HD
ENDROOT
BRANCH   3   5
ATOM      5  N   UNL     1       2.416   6.142  -0.703  0.00  0.00    -0.188 NA
ATOM      6  C   UNL     1       2.510   4.910  -1.100  0.00  0.00    +0.138 C 
BRANCH   6   7
ATOM      7  C   UNL     1       1.509   4.357  -2.031  0.00  0.00    -0.004 A 
ATOM      8  C   UNL     1       0.586   5.204  -2.651  0.00  0.00    +0.013 A 
ATOM      9  C   UNL     1      -0.347   4.683  -3.521  0.00  0.00    +0.047 A 
ATOM     10  C   UNL     1      -0.369   3.320  -3.787  0.00  0.00    +0.136 A 
ATOM     11  C   UNL     1       0.543   2.474  -3.168  0.00  0.00    +0.060 A 
ATOM     12  C   UNL     1       1.481   2.986  -2.296  0.00  0.00    +0.028 A 
ATOM     13 BR   UNL     1       0.503   0.618  -3.529  0.00  0.00    -0.046 Br
BRANCH  10  14
ATOM     14  O   UNL     1      -1.287   2.812  -4.649  0.00  0.00    -0.476 OA
BRANCH  14  15
ATOM     15  C   UNL     1      -2.195   3.738  -5.250  0.00  0.00    +0.346 C 
BRANCH  15  16
ATOM     16  C   UNL     1      -3.110   3.016  -6.148  0.00  0.00    +0.104 C 
ATOM     17  N   UNL     1      -3.817   2.458  -6.841  0.00  0.00    -0.193 NA
ENDBRANCH  15  16
ENDBRANCH  14  15
ENDBRANCH  10  14
ENDBRANCH   6   7
ENDBRANCH   3   5
BRANCH   1  18
ATOM     18  C   UNL     1      -0.260   8.775  -0.400  0.00  0.00    +0.163 C 
BRANCH  18  21
ATOM     19  C   UNL     1      -1.077  10.871  -1.335  0.00  0.00    +0.245 C 
ATOM     20  O   UNL     1      -2.140  10.324  -1.557  0.00  0.00    -0.270 OA
ATOM     21  N   UNL     1      -0.072  10.182  -0.759  0.00  0.00    -0.300 N 
ATOM     22  H   UNL     1       0.890  10.677  -0.558  0.00  0.00    +0.150 HD
BRANCH  19  27
ATOM     23  C   UNL     1      -0.338  16.402  -2.743  0.00  0.00    +0.044 C 
ATOM     24  C   UNL     1      -0.532  14.954  -2.374  0.00  0.00    -0.050 A 
ATOM     25  C   UNL     1      -1.742  14.334  -2.629  0.00  0.00    +0.004 A 
ATOM     26  C   UNL     1      -1.926  13.008  -2.294  0.00  0.00    +0.013 A 
ATOM     27  C   UNL     1      -0.887  12.292  -1.697  0.00  0.00    +0.037 A 
ATOM     28  C   UNL     1       0.330  12.925  -1.439  0.00  0.00    +0.013 A 
ATOM     29  C   UNL     1       0.502  14.249  -1.783  0.00  0.00    +0.004 A 
ENDBRANCH  19  27
ENDBRANCH  18  21
BRANCH  18  30
ATOM     30  C   UNL     1      -0.917   8.683   0.979  0.00  0.00    +0.012 C 
ATOM     31  C   UNL     1      -2.305   9.326   0.926  0.00  0.00    +0.009 C 
ATOM     32  C   UNL     1      -1.051   7.214   1.383  0.00  0.00    +0.009 C 
ENDBRANCH  18  30
ENDBRANCH   1  18
TORSDOF 9
