REMARK  Name = ZINC09364994
REMARK  5 active torsions:
REMARK  status: ('A' for Active; 'I' for Inactive)
REMARK    1  A    between atoms: C_1  and  C_2
REMARK    2  A    between atoms: C_8  and  N_10
REMARK    3  A    between atoms: C_11  and  C_13
REMARK    4  A    between atoms: C_13  and  S_14
REMARK    5  A    between atoms: S_14  and  C_15
REMARK                            x       y       z     vdW  Elec       q    Type
REMARK                         _______ _______ _______ _____ _____    ______ ____
ROOT
ATOM      1  C   UNL     1       0.122   0.990  -2.724  0.00  0.00    +0.274 C 
ATOM      2  N   UNL     1       1.183   0.261  -2.528  0.00  0.00    -0.135 NA
ATOM      3  N   UNL     1       1.695  -0.093  -3.785  0.00  0.00    -0.202 N 
ATOM      4  C   UNL     1       0.885   0.463  -4.706  0.00  0.00    +0.218 C 
ATOM      5  C   UNL     1       1.023   0.365  -6.104  0.00  0.00    +0.061 C 
ATOM      6  C   UNL     1       0.196   0.933  -7.087  0.00  0.00    +0.125 C 
ATOM      7  N   UNL     1       0.649   0.619  -8.278  0.00  0.00    -0.254 NA
ATOM      8  C   UNL     1       1.755  -0.142  -8.216  0.00  0.00    +0.072 A 
ATOM      9  C   UNL     1       2.069  -0.348  -6.851  0.00  0.00    +0.014 A 
ATOM     10  C   UNL     1       3.175  -1.116  -6.497  0.00  0.00    +0.011 A 
ATOM     11  C   UNL     1       3.962  -1.659  -7.475  0.00  0.00    +0.001 A 
ATOM     12  C   UNL     1       3.664  -1.456  -8.816  0.00  0.00    +0.002 A 
ATOM     13  C   UNL     1       2.583  -0.713  -9.192  0.00  0.00    +0.028 A 
ATOM     14  O   UNL     1      -0.083   1.122  -4.048  0.00  0.00    -0.415 OA
ATOM     15  H   UNL     1       2.599  -0.715  -3.856  0.00  0.00    +0.178 HD
ENDROOT
BRANCH   1  16
ATOM     16  S   UNL     1      -0.888   1.685  -1.458  0.00  0.00    -0.057 S 
BRANCH  16  17
ATOM     17  C   UNL     1      -0.013   1.086   0.008  0.00  0.00    +0.174 C 
BRANCH  17  19
ATOM     18  N   UNL     1      -0.242   1.246   2.466  0.00  0.00    -0.312 N 
ATOM     19  C   UNL     1      -0.718   1.572   1.248  0.00  0.00    +0.224 C 
ATOM     20  O   UNL     1      -1.714   2.256   1.150  0.00  0.00    -0.275 OA
ATOM     21  H   UNL     1       0.662   0.625   2.555  0.00  0.00    +0.149 HD
BRANCH  18  28
ATOM     22  C   UNL     1      -1.114  -0.635   4.488  0.00  0.00    +0.009 C 
ATOM     23  C   UNL     1      -0.624   0.772   4.834  0.00  0.00    +0.006 C 
ATOM     24  C   UNL     1      -1.340   1.265   6.093  0.00  0.00    +0.005 C 
ATOM     25  C   UNL     1      -0.851   2.673   6.440  0.00  0.00    +0.000 C 
ATOM     26  C   UNL     1      -1.154   3.619   5.277  0.00  0.00    +0.002 C 
ATOM     27  C   UNL     1      -0.438   3.126   4.018  0.00  0.00    +0.022 C 
ATOM     28  C   UNL     1      -0.927   1.718   3.671  0.00  0.00    +0.076 C 
ENDBRANCH  18  28
ENDBRANCH  17  19
ENDBRANCH  16  17
ENDBRANCH   1  16
TORSDOF 4
