REMARK  Name = ZINC39128811
REMARK  1 active torsions:
REMARK  status: ('A' for Active; 'I' for Inactive)
REMARK    1  A    between atoms: C_1  and  C_2
REMARK                            x       y       z     vdW  Elec       q    Type
REMARK                         _______ _______ _______ _____ _____    ______ ____
ROOT
ATOM      1  C   UNL     1      -0.019   1.526   0.010  0.00  0.00    +0.044 C 
ATOM      2  C   UNL     1       0.002  -0.004   0.002  0.00  0.00    +0.097 C 
ATOM      3  C   UNL     1      -1.313  -0.739  -0.329  0.00  0.00    +0.067 C 
ATOM      4  C   UNL     1      -1.067  -2.176   0.119  0.00  0.00    -0.071 C 
ATOM      5  C   UNL     1      -1.450  -3.286  -0.462  0.00  0.00    +0.008 C 
ATOM      6  C   UNL     1      -0.267  -2.009   1.407  0.00  0.00    +0.064 C 
ATOM      7  C   UNL     1       0.676  -0.822   1.120  0.00  0.00    +0.155 C 
ATOM      8  O   UNL     1       1.238  -0.696  -0.187  0.00  0.00    -0.364 OA
ENDROOT
TORSDOF 0
