REMARK  Name = ZINC14085145
REMARK  11 active torsions:
REMARK  status: ('A' for Active; 'I' for Inactive)
REMARK    1  A    between atoms: C_1  and  C_2
REMARK    2  A    between atoms: C_2  and  C_3
REMARK    3  A    between atoms: C_2  and  C_4
REMARK    4  A    between atoms: C_6  and  C_16
REMARK    5  A    between atoms: N_10  and  C_13
REMARK    6  A    between atoms: C_13  and  C_14
REMARK    7  A    between atoms: C_13  and  C_15
REMARK    8  A    between atoms: N_18  and  C_19
REMARK    9  A    between atoms: C_19  and  C_20
REMARK   10  A    between atoms: C_20  and  C_22
REMARK   11  A    between atoms: C_20  and  N_64
REMARK                            x       y       z     vdW  Elec       q    Type
REMARK                         _______ _______ _______ _____ _____    ______ ____
ROOT
ATOM      1  C   UNL     1      -3.446   0.012  -1.387  0.00  0.00    +0.245 C 
ATOM      2  O   UNL     1      -4.105  -0.604  -0.572  0.00  0.00    -0.270 OA
ATOM      3  N   UNL     1      -2.118   0.161  -1.206  0.00  0.00    -0.312 N 
ATOM      4  H   UNL     1      -1.592   0.652  -1.856  0.00  0.00    +0.149 HD
ENDROOT
BRANCH   1   7
ATOM      5  C   UNL     1      -4.017   1.845  -4.625  0.00  0.00    +0.047 A 
ATOM      6  C   UNL     1      -3.367   1.314  -3.521  0.00  0.00    +0.037 A 
ATOM      7  C   UNL     1      -4.100   0.599  -2.576  0.00  0.00    +0.051 A 
ATOM      8  C   UNL     1      -5.489   0.457  -2.788  0.00  0.00    +0.051 A 
ATOM      9  C   UNL     1      -6.529  -0.174  -2.073  0.00  0.00    +0.145 A 
ATOM     10  N   UNL     1      -7.644  -0.001  -2.723  0.00  0.00    -0.177 NA
ATOM     11  N   UNL     1      -7.404   0.743  -3.885  0.00  0.00    -0.244 N 
ATOM     12  C   UNL     1      -6.066   1.034  -3.938  0.00  0.00    +0.159 A 
ATOM     13  N   UNL     1      -5.311   1.698  -4.801  0.00  0.00    -0.232 NA
BRANCH   5  15
ATOM     14  C   UNL     1      -3.080   4.068  -5.198  0.00  0.00    +0.014 C 
ATOM     15  C   UNL     1      -3.219   2.612  -5.648  0.00  0.00    +0.032 C 
ATOM     16  C   UNL     1      -1.829   1.986  -5.785  0.00  0.00    +0.014 C 
ENDBRANCH   5  15
BRANCH  11  17
ATOM     17  C   UNL     1      -8.410   1.140  -4.874  0.00  0.00    +0.103 C 
ATOM     18  C   UNL     1      -9.066  -0.110  -5.465  0.00  0.00    +0.032 C 
ATOM     19  C   UNL     1      -9.476   2.005  -4.198  0.00  0.00    +0.032 C 
ENDBRANCH  11  17
ENDBRANCH   1   7
BRANCH   3  20
ATOM     20  C   UNL     1      -1.470  -0.420  -0.027  0.00  0.00    +0.097 C 
BRANCH  20  21
ATOM     21  C   UNL     1       0.001  -0.002   0.004  0.00  0.00    +0.016 C 
BRANCH  21  27
ATOM     22  C   UNL     1       0.546  -1.805  -1.516  0.00  0.00    -0.078 C 
ATOM     23  C   UNL     1       1.089  -2.122  -2.912  0.00  0.00    -0.019 C 
ATOM     24  C   UNL     1       2.547  -1.663  -3.003  0.00  0.00    -0.004 C 
ATOM     25  C   UNL     1       2.623  -0.165  -2.695  0.00  0.00    -0.019 C 
ATOM     26  C   UNL     1       2.035   0.095  -1.306  0.00  0.00    -0.078 C 
ATOM     27  N   UNL     1       0.624  -0.346  -1.291  0.00  0.00    +0.387 N 
ATOM     28  H   UNL     1       0.117   0.135  -2.043  0.00  0.00    -0.081 HD
ENDBRANCH  21  27
BRANCH  21  29
ATOM     29  C   UNL     1       0.095   1.488   0.210  0.00  0.00    +0.093 A 
ATOM     30  C   UNL     1       0.348   2.106   1.378  0.00  0.00    +0.043 A 
ATOM     31  C   UNL     1       0.348   3.495   1.115  0.00  0.00    +0.041 A 
ATOM     32  C   UNL     1       0.088   3.643  -0.196  0.00  0.00    +0.195 A 
ATOM     33  O   UNL     1      -0.065   2.425  -0.739  0.00  0.00    -0.469 OA
ENDBRANCH  21  29
ENDBRANCH  20  21
ENDBRANCH   3  20
TORSDOF 7
