REMARK  Name = ZINC35747078
REMARK  14 active torsions:
REMARK  status: ('A' for Active; 'I' for Inactive)
REMARK    1  A    between atoms: C_1  and  C_2
REMARK    2  A    between atoms: C_8  and  C_19
REMARK    3  A    between atoms: C_12  and  C_13
REMARK    4  A    between atoms: C_13  and  O_15
REMARK    5  A    between atoms: O_15  and  C_16
REMARK    6  A    between atoms: C_16  and  C_17
REMARK    7  A    between atoms: C_19  and  N_20
REMARK    8  A    between atoms: N_20  and  C_21
REMARK    9  A    between atoms: N_20  and  C_33
REMARK   10  A    between atoms: C_21  and  C_22
REMARK   11  A    between atoms: C_22  and  C_24
REMARK   12  A    between atoms: C_22  and  O_32
REMARK   13  A    between atoms: C_24  and  O_25
REMARK   14  A    between atoms: O_25  and  C_26
REMARK                            x       y       z     vdW  Elec       q    Type
REMARK                         _______ _______ _______ _____ _____    ______ ____
ROOT
ATOM      1  C   UNL     1      -5.367  -1.344  -7.936  0.00  0.00    +0.046 C 
ATOM      2  C   UNL     1      -4.975  -2.524  -7.086  0.00  0.00    -0.015 A 
ATOM      3  C   UNL     1      -3.697  -2.591  -6.528  0.00  0.00    +0.076 A 
ATOM      4  C   UNL     1      -2.577  -1.628  -6.636  0.00  0.00    +0.260 A 
ATOM      5  O   UNL     1      -2.695  -0.603  -7.284  0.00  0.00    -0.267 OA
ATOM      6  N   UNL     1      -1.424  -1.915  -6.000  0.00  0.00    -0.312 N 
ATOM      7  H   UNL     1      -0.681  -1.295  -6.061  0.00  0.00    +0.170 HD
ATOM      8  C   UNL     1      -1.282  -3.053  -5.276  0.00  0.00    +0.094 A 
ATOM      9  N   UNL     1      -2.249  -3.922  -5.160  0.00  0.00    -0.229 NA
ATOM     10  C   UNL     1      -3.425  -3.737  -5.746  0.00  0.00    +0.116 A 
ATOM     11  S   UNL     1      -4.943  -4.654  -5.826  0.00  0.00    -0.062 S 
ATOM     12  C   UNL     1      -5.870  -3.528  -6.854  0.00  0.00    +0.102 A 
ENDROOT
BRANCH  12  13
ATOM     13  C   UNL     1      -7.248  -3.652  -7.333  0.00  0.00    +0.347 C 
ATOM     14  O   UNL     1      -7.729  -2.783  -8.036  0.00  0.00    -0.244 OA
BRANCH  13  15
ATOM     15  O   UNL     1      -7.986  -4.730  -6.995  0.00  0.00    -0.457 OA
BRANCH  15  16
ATOM     16  C   UNL     1      -9.322  -4.785  -7.497  0.00  0.00    +0.259 C 
BRANCH  16  17
ATOM     17  C   UNL     1      -9.987  -6.051  -7.020  0.00  0.00    +0.006 C 
ATOM     18  C   UNL     1     -11.208  -6.011  -6.547  0.00  0.00    +0.007 C 
ENDBRANCH  16  17
ENDBRANCH  15  16
ENDBRANCH  13  15
ENDBRANCH  12  13
BRANCH   8  19
ATOM     19  C   UNL     1       0.030  -3.321  -4.586  0.00  0.00    -0.003 C 
BRANCH  19  20
ATOM     20  N   UNL     1       0.006  -4.665  -3.994  0.00  0.00    +0.388 N 
ATOM     21  H   UNL     1      -0.808  -4.759  -3.404  0.00  0.00    -0.081 HD
BRANCH  20  22
ATOM     22  C   UNL     1       1.219  -4.869  -3.191  0.00  0.00    -0.068 C 
ATOM     23  C   UNL     1       1.051  -5.485  -1.800  0.00  0.00    -0.017 C 
ATOM     24  C   UNL     1       1.394  -4.001  -1.944  0.00  0.00    -0.017 C 
ENDBRANCH  20  22
BRANCH  20  25
ATOM     25  C   UNL     1      -0.048  -5.671  -5.064  0.00  0.00    -0.043 C 
BRANCH  25  26
ATOM     26  C   UNL     1      -0.199  -7.063  -4.448  0.00  0.00    +0.135 C 
BRANCH  26  27
ATOM     27  O   UNL     1      -1.459  -7.155  -3.780  0.00  0.00    -0.390 OA
ATOM     28  H   UNL     1      -2.221  -7.014  -4.358  0.00  0.00    +0.210 HD
ENDBRANCH  26  27
BRANCH  26  29
ATOM     29  C   UNL     1      -0.129  -8.120  -5.553  0.00  0.00    +0.258 C 
BRANCH  29  30
ATOM     30  O   UNL     1      -0.153  -9.423  -4.968  0.00  0.00    -0.489 OA
BRANCH  30  31
ATOM     31  C   UNL     1      -0.098 -10.482  -5.817  0.00  0.00    +0.121 A 
ATOM     32  C   UNL     1      -0.016 -10.271  -7.186  0.00  0.00    +0.045 A 
ATOM     33  C   UNL     1       0.040 -11.349  -8.048  0.00  0.00    +0.004 A 
ATOM     34  C   UNL     1       0.015 -12.638  -7.548  0.00  0.00    +0.000 A 
ATOM     35  C   UNL     1      -0.066 -12.851  -6.184  0.00  0.00    +0.004 A 
ATOM     36  C   UNL     1      -0.117 -11.776  -5.317  0.00  0.00    +0.045 A 
ENDBRANCH  30  31
ENDBRANCH  29  30
ENDBRANCH  26  29
ENDBRANCH  25  26
ENDBRANCH  20  25
ENDBRANCH  19  20
ENDBRANCH   8  19
TORSDOF 13
