REMARK  Name = ZINC20882348
REMARK  8 active torsions:
REMARK  status: ('A' for Active; 'I' for Inactive)
REMARK    1  A    between atoms: C_1  and  C_2
REMARK    2  A    between atoms: C_2  and  C_3
REMARK    3  A    between atoms: C_2  and  O_4
REMARK    4  A    between atoms: O_4  and  C_5
REMARK    5  A    between atoms: C_8  and  C_13
REMARK    6  A    between atoms: C_10  and  O_11
REMARK    7  A    between atoms: O_11  and  C_12
REMARK    8  A    between atoms: C_18  and  C_28
REMARK                            x       y       z     vdW  Elec       q    Type
REMARK                         _______ _______ _______ _____ _____    ______ ____
ROOT
ATOM      1  C   UNL     1      -2.263   3.427   4.369  0.00  0.00    +0.032 C 
ATOM      2  C   UNL     1      -0.760   3.435   4.098  0.00  0.00    +0.059 C 
ATOM      3  C   UNL     1      -0.464   2.682   2.811  0.00  0.00    +0.017 C 
ATOM      4  C   UNL     1      -1.340   2.706   1.794  0.00  0.00    +0.037 C 
ATOM      5  C   UNL     1      -1.160   2.036   0.447  0.00  0.00    +0.139 C 
ATOM      6  N   UNL     1      -0.053   1.104   0.393  0.00  0.00    -0.331 N 
ATOM      7  C   UNL     1       1.262   1.540   0.540  0.00  0.00    +0.049 A 
ATOM      8  C   UNL     1       2.175   1.451  -0.498  0.00  0.00    +0.025 A 
ATOM      9  C   UNL     1       3.458   1.939  -0.320  0.00  0.00    +0.002 A 
ATOM     10  C   UNL     1       3.828   2.513   0.882  0.00  0.00    +0.002 A 
ATOM     11  C   UNL     1       2.923   2.588   1.928  0.00  0.00    +0.025 A 
ATOM     12  C   UNL     1       1.647   2.082   1.758  0.00  0.00    +0.052 A 
ATOM     13  N   UNL     1       0.725   2.028   2.798  0.00  0.00    -0.316 N 
ATOM     14  C   UNL     1      -2.565   3.401   1.925  0.00  0.00    +0.163 C 
ATOM     15  O   UNL     1      -3.330   3.423   0.980  0.00  0.00    -0.292 OA
ATOM     16  C   UNL     1      -2.955   4.114   3.185  0.00  0.00    +0.088 C 
ATOM     17  H   UNL     1      -0.243   0.033   0.233  0.00  0.00    +0.147 HD
ATOM     18  H   UNL     1       1.018   1.401   3.652  0.00  0.00    +0.152 HD
ENDROOT
BRANCH   5  19
ATOM     19  C   UNL     1      -0.940   3.101  -0.596  0.00  0.00    +0.015 A 
ATOM     20  C   UNL     1      -0.497   4.355  -0.220  0.00  0.00    +0.047 A 
ATOM     21  C   UNL     1      -0.290   5.332  -1.178  0.00  0.00    +0.124 A 
ATOM     22  C   UNL     1      -0.538   5.057  -2.512  0.00  0.00    +0.041 A 
ATOM     23  C   UNL     1      -0.986   3.805  -2.887  0.00  0.00    +0.041 A 
ATOM     24  C   UNL     1      -1.187   2.826  -1.929  0.00  0.00    +0.129 A 
ATOM     25  F   UNL     1      -1.626   1.602  -2.296  0.00  0.00    -0.205 F 
ATOM     26  F   UNL     1       0.149   6.556  -0.811  0.00  0.00    -0.205 F 
ENDBRANCH   5  19
BRANCH   1  30
ATOM     27  C   UNL     1      -3.098   5.574   7.973  0.00  0.00    +0.162 A 
ATOM     28  C   UNL     1      -2.448   6.203   6.923  0.00  0.00    +0.050 A 
ATOM     29  C   UNL     1      -2.180   5.506   5.759  0.00  0.00    +0.008 A 
ATOM     30  C   UNL     1      -2.558   4.182   5.640  0.00  0.00    -0.040 A 
ATOM     31  C   UNL     1      -3.212   3.550   6.682  0.00  0.00    +0.053 A 
ATOM     32  C   UNL     1      -3.479   4.241   7.853  0.00  0.00    +0.162 A 
BRANCH  32  33
ATOM     33  O   UNL     1      -4.117   3.619   8.880  0.00  0.00    -0.491 OA
ATOM     34  C   UNL     1      -4.479   2.251   8.686  0.00  0.00    +0.277 C 
ENDBRANCH  32  33
BRANCH  27  35
ATOM     35  O   UNL     1      -3.363   6.258   9.118  0.00  0.00    -0.486 OA
BRANCH  35  37
ATOM     36  C   UNL     1      -3.926   8.363  10.163  0.00  0.00    +0.051 C 
ATOM     37  C   UNL     1      -3.053   7.653   9.127  0.00  0.00    +0.167 C 
ATOM     38  C   UNL     1      -1.578   7.845   9.487  0.00  0.00    +0.051 C 
ENDBRANCH  35  37
ENDBRANCH  27  35
ENDBRANCH   1  30
TORSDOF 5
