REMARK  Name = ZINC64053236
REMARK  6 active torsions:
REMARK  status: ('A' for Active; 'I' for Inactive)
REMARK    1  A    between atoms: C_1  and  C_2
REMARK    2  A    between atoms: C_6  and  C_8
REMARK    3  A    between atoms: C_23  and  C_25
REMARK    4  A    between atoms: C_27  and  C_32
REMARK    5  A    between atoms: C_32  and  C_33
REMARK    6  A    between atoms: C_32  and  C_34
REMARK                            x       y       z     vdW  Elec       q    Type
REMARK                         _______ _______ _______ _____ _____    ______ ____
ROOT
ATOM      1  C   UNL     1       0.094  -2.697   2.538  0.00  0.00    +0.151 C 
ATOM      2  C   UNL     1       1.409  -2.205   3.152  0.00  0.00    +0.133 C 
ATOM      3  C   UNL     1       1.733  -3.152   4.301  0.00  0.00    -0.035 C 
ATOM      4  C   UNL     1       1.864  -2.395   5.384  0.00  0.00    -0.001 A 
ATOM      5  C   UNL     1       2.238  -2.725   6.769  0.00  0.00    +0.010 A 
ATOM      6  C   UNL     1       2.265  -1.686   7.646  0.00  0.00    +0.001 A 
ATOM      7  C   UNL     1       1.961  -0.369   7.287  0.00  0.00    +0.002 A 
ATOM      8  C   UNL     1       1.611   0.025   6.037  0.00  0.00    +0.026 A 
ATOM      9  C   UNL     1       1.553  -0.978   5.026  0.00  0.00    +0.043 A 
ATOM     10  N   UNL     1       1.270  -0.872   3.739  0.00  0.00    -0.375 N 
ATOM     11  C   UNL     1       1.784  -4.650   4.127  0.00  0.00    +0.052 C 
ATOM     12  C   UNL     1       0.477  -5.059   3.425  0.00  0.00    +0.113 C 
ATOM     13  N   UNL     1       0.216  -4.145   2.308  0.00  0.00    -0.285 N 
ATOM     14  C   UNL     1       0.087  -4.637   1.060  0.00  0.00    +0.266 C 
ATOM     15  O   UNL     1       0.032  -3.879   0.112  0.00  0.00    -0.268 OA
ATOM     16  H   UNL     1       1.013  -0.066   3.264  0.00  0.00    +0.160 HD
ENDROOT
BRANCH  14  17
ATOM     17  C   UNL     1       0.012  -6.104   0.844  0.00  0.00    +0.131 A 
ATOM     18  C   UNL     1       0.120  -6.636  -0.441  0.00  0.00    +0.056 A 
ATOM     19  C   UNL     1       0.045  -8.014  -0.594  0.00  0.00    +0.050 A 
ATOM     20  N   UNL     1      -0.125  -8.773   0.474  0.00  0.00    -0.219 NA
ATOM     21  C   UNL     1      -0.225  -8.238   1.683  0.00  0.00    +0.213 A 
ATOM     22  N   UNL     1      -0.154  -6.931   1.873  0.00  0.00    -0.210 NA
ATOM     23  N   UNL     1      -0.403  -9.069   2.776  0.00  0.00    -0.327 N 
ATOM     24  H   UNL     1      -0.454 -10.030   2.651  0.00  0.00    +0.145 HD
ATOM     25  H   UNL     1      -0.478  -8.691   3.666  0.00  0.00    +0.145 HD
BRANCH  19  26
ATOM     26  C   UNL     1       0.157  -8.636  -1.962  0.00  0.00    +0.032 C 
ATOM     27  C   UNL     1      -1.217  -8.637  -2.635  0.00  0.00    +0.014 C 
ATOM     28  C   UNL     1       1.140  -7.828  -2.811  0.00  0.00    +0.014 C 
ENDBRANCH  19  26
ENDBRANCH  14  17
BRANCH   1  34
ATOM     29  C   UNL     1       1.836  -0.017  -1.150  0.00  0.00    +0.065 C 
ATOM     30  C   UNL     1       0.670  -0.727  -0.512  0.00  0.00    +0.039 A 
ATOM     31  C   UNL     1      -0.564  -0.711  -1.135  0.00  0.00    +0.023 A 
ATOM     32  C   UNL     1      -1.630  -1.368  -0.540  0.00  0.00    +0.004 A 
ATOM     33  C   UNL     1      -1.414  -2.019   0.665  0.00  0.00    +0.025 A 
ATOM     34  C   UNL     1      -0.152  -1.993   1.228  0.00  0.00    +0.064 A 
ATOM     35  N   UNL     1       0.840  -1.362   0.631  0.00  0.00    -0.255 NA
ENDBRANCH   1  34
TORSDOF 3
