REMARK  Name = ZINC33513644
REMARK  8 active torsions:
REMARK  status: ('A' for Active; 'I' for Inactive)
REMARK    1  A    between atoms: C_1  and  C_2
REMARK    2  A    between atoms: C_3  and  C_25
REMARK    3  A    between atoms: C_4  and  C_17
REMARK    4  A    between atoms: N_8  and  C_15
REMARK    5  A    between atoms: N_11  and  C_14
REMARK    6  A    between atoms: C_25  and  O_27
REMARK    7  A    between atoms: O_27  and  C_28
REMARK    8  A    between atoms: C_28  and  C_29
REMARK                            x       y       z     vdW  Elec       q    Type
REMARK                         _______ _______ _______ _____ _____    ______ ____
ROOT
ATOM      1  C   UNL     1       1.692   6.098  -0.198  0.00  0.00    +0.061 C 
ATOM      2  C   UNL     1       2.919   5.228  -0.105  0.00  0.00    +0.017 C 
ATOM      3  C   UNL     1       2.780   3.896   0.004  0.00  0.00    +0.065 C 
ATOM      4  C   UNL     1       3.969   2.985   0.103  0.00  0.00    +0.096 C 
ATOM      5  C   UNL     1       5.223   3.691  -0.327  0.00  0.00    +0.067 A 
ATOM      6  C   UNL     1       5.269   5.050  -0.420  0.00  0.00    +0.116 A 
ATOM      7  N   UNL     1       6.435   5.663  -0.811  0.00  0.00    -0.284 N 
ATOM      8  C   UNL     1       7.524   4.930  -1.105  0.00  0.00    +0.333 A 
ATOM      9  O   UNL     1       8.547   5.488  -1.450  0.00  0.00    -0.246 OA
ATOM     10  N   UNL     1       7.497   3.587  -1.023  0.00  0.00    -0.264 N 
ATOM     11  C   UNL     1       6.375   2.946  -0.641  0.00  0.00    +0.262 A 
ATOM     12  O   UNL     1       6.357   1.730  -0.569  0.00  0.00    -0.267 OA
ATOM     13  C   UNL     1       8.698   2.815  -1.352  0.00  0.00    +0.157 C 
ATOM     14  C   UNL     1       6.492   7.124  -0.909  0.00  0.00    +0.155 C 
ATOM     15  N   UNL     1       4.159   5.806  -0.130  0.00  0.00    -0.303 N 
ATOM     16  H   UNL     1       4.270   6.879   0.084  0.00  0.00    +0.153 HD
ENDROOT
BRANCH   4  17
ATOM     17  C   UNL     1       4.123   2.524   1.529  0.00  0.00    -0.034 A 
ATOM     18  C   UNL     1       4.066   1.176   1.831  0.00  0.00    +0.006 A 
ATOM     19  C   UNL     1       4.207   0.753   3.139  0.00  0.00    +0.022 A 
ATOM     20  C   UNL     1       4.407   1.679   4.147  0.00  0.00    +0.059 A 
ATOM     21  C   UNL     1       4.465   3.029   3.846  0.00  0.00    +0.060 A 
ATOM     22  C   UNL     1       4.329   3.450   2.535  0.00  0.00    +0.026 A 
ATOM     23 CL   UNL     1       4.716   4.191   5.110  0.00  0.00    -0.082 Cl
ATOM     24 CL   UNL     1       4.585   1.148   5.791  0.00  0.00    -0.082 Cl
ENDBRANCH   4  17
BRANCH   3  25
ATOM     25  C   UNL     1       1.481   3.339   0.022  0.00  0.00    +0.338 C 
ATOM     26  O   UNL     1       0.506   4.067   0.046  0.00  0.00    -0.245 OA
BRANCH  25  27
ATOM     27  O   UNL     1       1.321   1.999   0.011  0.00  0.00    -0.457 OA
BRANCH  27  28
ATOM     28  C   UNL     1      -0.020   1.505   0.030  0.00  0.00    +0.259 C 
BRANCH  28  29
ATOM     29  C   UNL     1       0.000  -0.002   0.014  0.00  0.00    +0.006 C 
ATOM     30  C   UNL     1      -0.779  -0.676   0.824  0.00  0.00    +0.007 C 
ENDBRANCH  28  29
ENDBRANCH  27  28
ENDBRANCH  25  27
ENDBRANCH   3  25
TORSDOF 5
