REMARK  Name = ZINC57721048
REMARK  7 active torsions:
REMARK  status: ('A' for Active; 'I' for Inactive)
REMARK    1  A    between atoms: C_1  and  C_2
REMARK    2  A    between atoms: C_3  and  C_19
REMARK    3  A    between atoms: N_7  and  S_8
REMARK    4  A    between atoms: S_8  and  C_11
REMARK    5  A    between atoms: C_15  and  C_17
REMARK    6  A    between atoms: C_22  and  O_25
REMARK    7  A    between atoms: O_25  and  C_26
REMARK                            x       y       z     vdW  Elec       q    Type
REMARK                         _______ _______ _______ _____ _____    ______ ____
ROOT
ATOM      1  C   UNL     1      -0.008   1.499   0.135  0.00  0.00    +0.054 C 
ATOM      2  C   UNL     1       0.007  -0.006   0.059  0.00  0.00    +0.014 A 
ATOM      3  C   UNL     1      -1.030  -0.865   0.093  0.00  0.00    +0.058 A 
ATOM      4  N   UNL     1      -0.798  -2.213   0.008  0.00  0.00    -0.332 N 
ATOM      5  C   UNL     1       0.503  -2.650  -0.111  0.00  0.00    +0.192 A 
ATOM      6  S   UNL     1       1.402  -1.106  -0.109  0.00  0.00    -0.053 S 
ATOM      7  N   UNL     1       0.960  -3.873  -0.206  0.00  0.00    -0.103 NA
ATOM      8  H   UNL     1      -1.533  -2.845   0.032  0.00  0.00    +0.168 HD
ENDROOT
BRANCH   3   9
ATOM      9  C   UNL     1      -2.413  -0.357   0.223  0.00  0.00    -0.001 A 
ATOM     10  C   UNL     1      -2.855   0.686  -0.594  0.00  0.00    +0.013 A 
ATOM     11  C   UNL     1      -4.145   1.157  -0.469  0.00  0.00    +0.046 A 
ATOM     12  C   UNL     1      -5.004   0.597   0.466  0.00  0.00    +0.120 A 
ATOM     13  C   UNL     1      -4.568  -0.440   1.280  0.00  0.00    +0.046 A 
ATOM     14  C   UNL     1      -3.282  -0.922   1.158  0.00  0.00    +0.013 A 
BRANCH  12  15
ATOM     15  O   UNL     1      -6.274   1.064   0.585  0.00  0.00    -0.495 OA
ATOM     16  C   UNL     1      -7.105   0.442   1.568  0.00  0.00    +0.277 C 
ENDBRANCH  12  15
ENDBRANCH   3   9
BRANCH   7  17
ATOM     17  S   UNL     1       2.589  -4.141  -0.342  0.00  0.00    +0.101 S 
ATOM     18  O   UNL     1       2.986  -3.602  -1.595  0.00  0.00    -0.146 OA
ATOM     19  O   UNL     1       3.172  -3.725   0.885  0.00  0.00    -0.146 OA
BRANCH  17  20
ATOM     20  C   UNL     1       2.824  -5.884  -0.446  0.00  0.00    +0.114 A 
ATOM     21  C   UNL     1       2.999  -6.627   0.708  0.00  0.00    +0.029 A 
ATOM     22  C   UNL     1       3.184  -7.996   0.636  0.00  0.00    +0.003 A 
ATOM     23  C   UNL     1       3.194  -8.630  -0.589  0.00  0.00    +0.019 A 
ATOM     24  C   UNL     1       3.017  -7.887  -1.758  0.00  0.00    +0.054 A 
ATOM     25  C   UNL     1       2.826  -6.506  -1.677  0.00  0.00    +0.048 A 
BRANCH  24  26
ATOM     26  C   UNL     1       3.025  -8.539  -3.033  0.00  0.00    +0.099 C 
ATOM     27  N   UNL     1       3.032  -9.055  -4.045  0.00  0.00    -0.191 NA
ENDBRANCH  24  26
ENDBRANCH  17  20
ENDBRANCH   7  17
TORSDOF 5
