REMARK  Name = ZINC51036201
REMARK  6 active torsions:
REMARK  status: ('A' for Active; 'I' for Inactive)
REMARK    1  A    between atoms: C_1  and  C_2
REMARK    2  A    between atoms: C_2  and  C_4
REMARK    3  A    between atoms: C_2  and  N_24
REMARK    4  A    between atoms: C_4  and  C_6
REMARK    5  A    between atoms: C_4  and  S_13
REMARK    6  A    between atoms: S_13  and  C_14
REMARK                            x       y       z     vdW  Elec       q    Type
REMARK                         _______ _______ _______ _____ _____    ______ ____
ROOT
ATOM      1  C   UNL     1       0.839  -0.534   1.171  0.00  0.00    +0.068 C 
ENDROOT
BRANCH   1   2
ATOM      2  C   UNL     1       0.981  -2.033   1.110  0.00  0.00    -0.035 A 
ATOM      3  C   UNL     1      -0.142  -2.836   1.166  0.00  0.00    +0.005 A 
ATOM      4  C   UNL     1      -0.013  -4.211   1.109  0.00  0.00    +0.001 A 
ATOM      5  C   UNL     1       1.240  -4.784   0.996  0.00  0.00    +0.015 A 
ATOM      6  C   UNL     1       2.365  -3.980   0.940  0.00  0.00    +0.018 A 
ATOM      7  C   UNL     1       2.234  -2.604   0.991  0.00  0.00    +0.020 A 
ATOM      8 BR   UNL     1       4.079  -4.763   0.786  0.00  0.00    -0.050 Br
ENDBRANCH   1   2
BRANCH   1  10
ATOM      9  C   UNL     1      -0.119   1.472   0.031  0.00  0.00    -0.013 C 
ATOM     10  C   UNL     1      -0.023  -0.055   0.002  0.00  0.00    -0.060 C 
BRANCH  10  11
ATOM     11  N   UNL     1       0.587  -0.483  -1.264  0.00  0.00    +0.381 N 
ATOM     12  H   UNL     1       1.511  -0.087  -1.343  0.00  0.00    -0.090 HD
ATOM     13  H   UNL     1       0.650  -1.490  -1.283  0.00  0.00    -0.090 HD
ATOM     14  H   UNL     1       0.018  -0.167  -2.035  0.00  0.00    -0.090 HD
ENDBRANCH  10  11
ENDBRANCH   1  10
BRANCH   1  15
ATOM     15  S   UNL     1       0.051  -0.065   2.736  0.00  0.00    -0.097 S 
BRANCH  15  16
ATOM     16  C   UNL     1       1.261  -0.454   3.957  0.00  0.00    +0.126 A 
ATOM     17  C   UNL     1       1.043  -0.145   5.302  0.00  0.00    +0.117 A 
ATOM     18  C   UNL     1       2.037  -0.476   6.237  0.00  0.00    +0.182 A 
ATOM     19  N   UNL     1       1.587  -0.078   7.442  0.00  0.00    -0.216 NA
ATOM     20  H   UNL     1      -0.808   0.789   5.659  0.00  0.00    +0.167 HD
ATOM     21  C   UNL     1       0.408   0.464   7.315  0.00  0.00    +0.199 A 
ATOM     22  N   UNL     1       0.026   0.448   6.018  0.00  0.00    -0.341 N 
ATOM     23  N   UNL     1       3.153  -1.072   5.803  0.00  0.00    -0.214 NA
ATOM     24  C   UNL     1       3.314  -1.343   4.527  0.00  0.00    +0.224 A 
ATOM     25  N   UNL     1       2.400  -1.053   3.619  0.00  0.00    -0.227 NA
ENDBRANCH  15  16
ENDBRANCH   1  15
TORSDOF 5
