REMARK  Name = ZINC36531303
REMARK  16 active torsions:
REMARK  status: ('A' for Active; 'I' for Inactive)
REMARK    1  A    between atoms: C_1  and  C_2
REMARK    2  A    between atoms: C_2  and  C_3
REMARK    3  A    between atoms: C_2  and  C_4
REMARK    4  A    between atoms: C_2  and  C_5
REMARK    5  A    between atoms: C_5  and  C_6
REMARK    6  A    between atoms: C_6  and  C_7
REMARK    7  A    between atoms: C_6  and  C_8
REMARK    8  A    between atoms: C_6  and  N_9
REMARK    9  A    between atoms: C_10  and  C_12
REMARK   10  A    between atoms: C_12  and  C_14
REMARK   11  A    between atoms: C_12  and  N_24
REMARK   12  A    between atoms: C_17  and  C_20
REMARK   13  A    between atoms: N_24  and  C_25
REMARK   14  A    between atoms: C_26  and  C_28
REMARK   15  A    between atoms: C_32  and  O_35
REMARK   16  A    between atoms: C_33  and  O_34
REMARK                            x       y       z     vdW  Elec       q    Type
REMARK                         _______ _______ _______ _____ _____    ______ ____
ROOT
ATOM      1  C   UNL     1       5.387  -0.526  -4.330  0.00  0.00    +0.192 C 
ENDROOT
BRANCH   1   2
ATOM      2  C   UNL     1       5.368  -1.980  -4.729  0.00  0.00    -0.018 A 
ATOM      3  C   UNL     1       4.901  -2.347  -5.977  0.00  0.00    +0.006 A 
ATOM      4  C   UNL     1       4.883  -3.680  -6.343  0.00  0.00    +0.013 A 
ATOM      5  C   UNL     1       5.332  -4.645  -5.461  0.00  0.00    +0.055 A 
ATOM      6  C   UNL     1       5.800  -4.277  -4.214  0.00  0.00    +0.013 A 
ATOM      7  C   UNL     1       5.822  -2.944  -3.849  0.00  0.00    +0.006 A 
BRANCH   5   8
ATOM      8  C   UNL     1       5.311  -6.098  -5.860  0.00  0.00    +0.417 C 
ATOM      9  F   UNL     1       6.523  -6.431  -6.475  0.00  0.00    -0.166 F 
ATOM     10  F   UNL     1       5.133  -6.892  -4.721  0.00  0.00    -0.166 F 
ATOM     11  F   UNL     1       4.258  -6.322  -6.753  0.00  0.00    -0.166 F 
ENDBRANCH   5   8
ENDBRANCH   1   2
BRANCH   1  13
ATOM     12  N   UNL     1       3.313  -0.682  -2.992  0.00  0.00    -0.308 N 
ATOM     13  C   UNL     1       4.617  -0.347  -3.047  0.00  0.00    +0.238 C 
ATOM     14  O   UNL     1       5.171   0.099  -2.065  0.00  0.00    -0.273 OA
ATOM     15  H   UNL     1       2.870  -1.039  -3.778  0.00  0.00    +0.149 HD
BRANCH  12  16
ATOM     16  C   UNL     1       2.564  -0.508  -1.745  0.00  0.00    +0.030 C 
ATOM     17  C   UNL     1       2.714   0.934  -1.257  0.00  0.00    +0.031 C 
ATOM     18  C   UNL     1       3.110  -1.465  -0.684  0.00  0.00    +0.031 C 
BRANCH  16  19
ATOM     19  C   UNL     1       1.085  -0.811  -1.992  0.00  0.00    +0.031 C 
BRANCH  19  21
ATOM     20  C   UNL     1       1.057  -1.046  -4.479  0.00  0.00    +0.010 C 
ATOM     21  C   UNL     1       0.642  -0.159  -3.304  0.00  0.00    -0.036 C 
ATOM     22  C   UNL     1       1.306   1.213  -3.440  0.00  0.00    +0.010 C 
ATOM     23  C   UNL     1      -0.879   0.008  -3.302  0.00  0.00    +0.010 C 
ENDBRANCH  19  21
ENDBRANCH  16  19
ENDBRANCH  12  16
ENDBRANCH   1  13
BRANCH   1  24
ATOM     24  N   UNL     1       6.773  -0.093  -4.133  0.00  0.00    -0.285 N 
ATOM     25  C   UNL     1       7.627  -0.788  -3.167  0.00  0.00    +0.133 C 
ATOM     26  C   UNL     1       7.261   0.946  -4.839  0.00  0.00    +0.251 C 
ATOM     27  O   UNL     1       6.527   1.583  -5.570  0.00  0.00    -0.270 OA
BRANCH  26  28
ATOM     28  C   UNL     1       8.686   1.310  -4.725  0.00  0.00    +0.082 A 
ATOM     29  C   UNL     1       9.676   0.341  -4.914  0.00  0.00    +0.017 A 
ATOM     30  C   UNL     1      11.006   0.685  -4.808  0.00  0.00    +0.005 A 
ATOM     31  C   UNL     1      11.370   1.989  -4.514  0.00  0.00    +0.049 A 
ATOM     32  C   UNL     1      10.402   2.959  -4.324  0.00  0.00    +0.159 A 
ATOM     33  C   UNL     1       9.054   2.628  -4.434  0.00  0.00    +0.171 A 
BRANCH  33  34
ATOM     34  O   UNL     1       8.102   3.579  -4.254  0.00  0.00    -0.503 OA
ATOM     35  H   UNL     1       7.804   3.669  -3.338  0.00  0.00    +0.292 HD
ENDBRANCH  33  34
BRANCH  32  36
ATOM     36  O   UNL     1      10.767   4.237  -4.035  0.00  0.00    -0.503 OA
ATOM     37  H   UNL     1      10.893   4.796  -4.814  0.00  0.00    +0.292 HD
ENDBRANCH  32  36
ENDBRANCH  26  28
ENDBRANCH   1  24
TORSDOF 10
