REMARK  Name = ZINC63562377
REMARK  7 active torsions:
REMARK  status: ('A' for Active; 'I' for Inactive)
REMARK    1  A    between atoms: C_4  and  C_7
REMARK    2  A    between atoms: C_8  and  C_9
REMARK    3  A    between atoms: C_12  and  N_15
REMARK    4  A    between atoms: C_16  and  C_18
REMARK    5  A    between atoms: C_18  and  S_19
REMARK    6  A    between atoms: S_19  and  C_20
REMARK    7  A    between atoms: C_26  and  N_30
REMARK                            x       y       z     vdW  Elec       q    Type
REMARK                         _______ _______ _______ _____ _____    ______ ____
ROOT
ATOM      1  N   UNL     1       8.646  -4.764  -0.112  0.00  0.00    -0.285 N 
ATOM      2  C   UNL     1       8.672  -6.109  -0.024  0.00  0.00    +0.227 C 
ATOM      3  O   UNL     1       7.633  -6.736  -0.021  0.00  0.00    -0.275 OA
ATOM      4  H   UNL     1       9.477  -4.267  -0.181  0.00  0.00    +0.155 HD
ENDROOT
BRANCH   1   8
ATOM      5  C   UNL     1       5.001  -2.741  -0.088  0.00  0.00    -0.025 A 
ATOM      6  C   UNL     1       6.122  -2.172   0.524  0.00  0.00    +0.010 A 
ATOM      7  C   UNL     1       7.325  -2.844   0.514  0.00  0.00    +0.024 A 
ATOM      8  C   UNL     1       7.425  -4.086  -0.104  0.00  0.00    +0.033 A 
ATOM      9  C   UNL     1       6.312  -4.655  -0.714  0.00  0.00    +0.024 A 
ATOM     10  C   UNL     1       5.104  -3.993  -0.702  0.00  0.00    +0.010 A 
BRANCH   5  12
ATOM     11  C   UNL     1       3.616  -0.824   0.511  0.00  0.00    +0.008 C 
ATOM     12  C   UNL     1       3.713  -2.026  -0.080  0.00  0.00    +0.008 C 
BRANCH  11  16
ATOM     13  C   UNL     1      -0.093   1.237   0.533  0.00  0.00    +0.000 A 
ATOM     14  C   UNL     1       1.014   1.806   1.136  0.00  0.00    +0.001 A 
ATOM     15  C   UNL     1       2.223   1.143   1.133  0.00  0.00    +0.008 A 
ATOM     16  C   UNL     1       2.328  -0.108   0.519  0.00  0.00    -0.025 A 
ATOM     17  C   UNL     1       1.205  -0.678  -0.087  0.00  0.00    +0.008 A 
ATOM     18  C   UNL     1       0.003  -0.002  -0.076  0.00  0.00    +0.001 A 
ENDBRANCH  11  16
ENDBRANCH   5  12
ENDBRANCH   1   8
BRANCH   2  19
ATOM     19  C   UNL     1       9.990  -6.833   0.072  0.00  0.00    +0.169 C 
BRANCH  19  20
ATOM     20  S   UNL     1       9.692  -8.620   0.177  0.00  0.00    -0.106 S 
BRANCH  20  21
ATOM     21  C   UNL     1      11.354  -9.336   0.285  0.00  0.00    +0.236 C 
ATOM     22  N   UNL     1      12.066  -8.787   1.446  0.00  0.00    -0.355 N 
ATOM     23  C   UNL     1      13.126  -8.175   1.001  0.00  0.00    +0.061 A 
ATOM     24  C   UNL     1      14.210  -7.443   1.668  0.00  0.00    +0.029 A 
ATOM     25  C   UNL     1      15.201  -6.902   0.930  0.00  0.00    +0.035 A 
ATOM     26  C   UNL     1      15.246  -7.009  -0.472  0.00  0.00    +0.128 A 
ATOM     27  C   UNL     1      14.302  -7.659  -1.182  0.00  0.00    +0.060 A 
ATOM     28  C   UNL     1      13.173  -8.288  -0.483  0.00  0.00    +0.063 A 
ATOM     29  N   UNL     1      12.141  -8.965  -0.898  0.00  0.00    -0.355 N 
ATOM     30  H   UNL     1      11.930  -9.185  -1.819  0.00  0.00    +0.162 HD
ATOM     31  H   UNL     1      11.796  -8.864   2.374  0.00  0.00    +0.162 HD
BRANCH  26  32
ATOM     32  N   UNL     1      16.374  -6.382  -1.196  0.00  0.00    +0.056 N 
ATOM     33  O   UNL     1      17.234  -5.793  -0.582  0.00  0.00    -0.126 OA
ATOM     34  O   UNL     1      16.436  -6.459  -2.401  0.00  0.00    -0.126 OA
ENDBRANCH  26  32
ENDBRANCH  20  21
ENDBRANCH  19  20
ENDBRANCH   2  19
TORSDOF 7
