REMARK  Name = ZINC14472522
REMARK  5 active torsions:
REMARK  status: ('A' for Active; 'I' for Inactive)
REMARK    1  A    between atoms: C_4  and  C_10
REMARK    2  A    between atoms: C_6  and  N_7
REMARK    3  A    between atoms: C_21  and  S_26
REMARK    4  A    between atoms: S_26  and  N_29
REMARK    5  A    between atoms: N_29  and  C_30
REMARK                            x       y       z     vdW  Elec       q    Type
REMARK                         _______ _______ _______ _____ _____    ______ ____
ROOT
ATOM      1  C   UNL     1       2.349   5.277   0.451  0.00  0.00    +0.106 C 
ATOM      2  C   UNL     1       1.236   5.968  -0.344  0.00  0.00    +0.029 C 
ATOM      3  C   UNL     1       0.989   7.356   0.317  0.00  0.00    +0.033 C 
ATOM      4  C   UNL     1       0.076   7.032   1.484  0.00  0.00    -0.030 C 
ATOM      5  C   UNL     1      -0.538   5.892   1.283  0.00  0.00    -0.023 C 
ATOM      6  C   UNL     1      -0.118   5.297  -0.040  0.00  0.00    +0.049 C 
ATOM      7  C   UNL     1      -0.027   3.806   0.035  0.00  0.00    -0.018 A 
ATOM      8  C   UNL     1      -1.202   3.067   0.052  0.00  0.00    +0.034 A 
ATOM      9  C   UNL     1      -1.163   1.689   0.113  0.00  0.00    +0.106 A 
ATOM     10  C   UNL     1       0.051   1.027   0.169  0.00  0.00    +0.030 A 
ATOM     11  C   UNL     1       1.226   1.751   0.154  0.00  0.00    +0.025 A 
ATOM     12  C   UNL     1       1.187   3.139   0.089  0.00  0.00    +0.031 A 
ATOM     13  N   UNL     1       2.387   3.859   0.081  0.00  0.00    -0.336 N 
ATOM     14  H   UNL     1       3.222   3.430  -0.162  0.00  0.00    +0.147 HD
ENDROOT
BRANCH   1  18
ATOM     15  C   UNL     1       6.104   7.096  -0.473  0.00  0.00    +0.034 A 
ATOM     16  C   UNL     1       5.981   6.297   0.649  0.00  0.00    +0.022 A 
ATOM     17  C   UNL     1       4.766   5.708   0.949  0.00  0.00    +0.046 A 
ATOM     18  C   UNL     1       3.674   5.919   0.125  0.00  0.00    -0.007 A 
ATOM     19  C   UNL     1       3.800   6.712  -1.000  0.00  0.00    +0.039 A 
ATOM     20  C   UNL     1       5.013   7.305  -1.295  0.00  0.00    +0.127 A 
ATOM     21 CL   UNL     1       4.611   4.706   2.357  0.00  0.00    -0.083 Cl
BRANCH  20  22
ATOM     22  N   UNL     1       5.146   8.160  -2.497  0.00  0.00    +0.056 N 
ATOM     23  O   UNL     1       6.216   8.678  -2.760  0.00  0.00    -0.126 OA
ATOM     24  O   UNL     1       4.184   8.345  -3.221  0.00  0.00    -0.126 OA
ENDBRANCH  20  22
ENDBRANCH   1  18
BRANCH   9  25
ATOM     25  S   UNL     1      -2.665   0.768   0.127  0.00  0.00    +0.059 S 
ATOM     26  O   UNL     1      -3.650   1.591  -0.484  0.00  0.00    -0.153 OA
ATOM     27  O   UNL     1      -2.350  -0.530  -0.357  0.00  0.00    -0.153 OA
BRANCH  25  28
ATOM     28  N   UNL     1      -3.115   0.588   1.710  0.00  0.00    -0.187 NA
ATOM     29  H   UNL     1      -3.136  -0.295   2.111  0.00  0.00    +0.148 HD
BRANCH  28  30
ATOM     30  C   UNL     1      -3.480   1.762   2.506  0.00  0.00    +0.077 C 
ATOM     31  C   UNL     1      -2.258   2.248   3.289  0.00  0.00    +0.020 C 
ATOM     32  C   UNL     1      -2.640   3.474   4.121  0.00  0.00    +0.002 C 
ATOM     33  C   UNL     1      -3.756   3.100   5.098  0.00  0.00    +0.000 C 
ATOM     34  C   UNL     1      -4.978   2.614   4.315  0.00  0.00    +0.002 C 
ATOM     35  C   UNL     1      -4.596   1.388   3.484  0.00  0.00    +0.020 C 
ENDBRANCH  28  30
ENDBRANCH  25  28
ENDBRANCH   9  25
TORSDOF 5
