REMARK  Name = ZINC08306782
REMARK  10 active torsions:
REMARK  status: ('A' for Active; 'I' for Inactive)
REMARK    1  A    between atoms: C_1  and  C_2
REMARK    2  A    between atoms: C_2  and  O_3
REMARK    3  A    between atoms: O_3  and  C_4
REMARK    4  A    between atoms: C_4  and  C_6
REMARK    5  A    between atoms: C_7  and  C_23
REMARK    6  A    between atoms: C_12  and  C_14
REMARK    7  A    between atoms: C_23  and  N_55
REMARK    8  A    between atoms: C_24  and  C_25
REMARK    9  A    between atoms: C_24  and  N_55
REMARK   10  A    between atoms: C_28  and  C_31
REMARK                            x       y       z     vdW  Elec       q    Type
REMARK                         _______ _______ _______ _____ _____    ______ ____
ROOT
ATOM      1  C   UNL     1       1.330  -2.341  -2.530  0.00  0.00    +0.076 C 
ATOM      2  C   UNL     1       1.638  -3.653  -2.610  0.00  0.00    +0.007 C 
ATOM      3  N   UNL     1       2.358  -4.146  -3.660  0.00  0.00    -0.274 N 
ATOM      4  C   UNL     1       2.817  -3.389  -4.665  0.00  0.00    +0.304 C 
ATOM      5  O   UNL     1       3.453  -3.918  -5.556  0.00  0.00    -0.252 OA
ATOM      6  N   UNL     1       2.595  -2.061  -4.723  0.00  0.00    -0.288 N 
ATOM      7  C   UNL     1       1.822  -1.432  -3.638  0.00  0.00    +0.144 C 
ATOM      8  H   UNL     1       2.552  -5.096  -3.677  0.00  0.00    +0.156 HD
ATOM      9  H   UNL     1       2.937  -1.532  -5.460  0.00  0.00    +0.151 HD
ENDROOT
BRANCH   7  10
ATOM     10  C   UNL     1       2.682  -0.363  -3.015  0.00  0.00    -0.019 A 
ATOM     11  C   UNL     1       3.994  -0.640  -2.681  0.00  0.00    +0.009 A 
ATOM     12  C   UNL     1       4.787   0.338  -2.110  0.00  0.00    +0.050 A 
ATOM     13  C   UNL     1       4.267   1.599  -1.871  0.00  0.00    +0.166 A 
ATOM     14  C   UNL     1       2.945   1.879  -2.208  0.00  0.00    +0.167 A 
ATOM     15  C   UNL     1       2.158   0.896  -2.785  0.00  0.00    +0.055 A 
ATOM     16  O   UNL     1       2.676   3.176  -1.877  0.00  0.00    -0.453 OA
ATOM     17  C   UNL     1       3.960   3.805  -1.712  0.00  0.00    +0.466 C 
ATOM     18  O   UNL     1       4.826   2.721  -1.329  0.00  0.00    -0.453 OA
ENDBRANCH   7  10
BRANCH   1  19
ATOM     19  C   UNL     1       0.580  -1.830  -1.444  0.00  0.00    +0.339 C 
ATOM     20  O   UNL     1      -0.606  -1.597  -1.581  0.00  0.00    -0.245 OA
BRANCH  19  21
ATOM     21  O   UNL     1       1.180  -1.602  -0.258  0.00  0.00    -0.462 OA
BRANCH  21  23
ATOM     22  C   UNL     1       1.211  -0.893   2.053  0.00  0.00    +0.048 C 
ATOM     23  C   UNL     1       0.362  -1.086   0.794  0.00  0.00    +0.229 C 
ENDBRANCH  21  23
ENDBRANCH  19  21
ENDBRANCH   1  19
BRANCH   2  24
ATOM     24  C   UNL     1       1.173  -4.591  -1.525  0.00  0.00    -0.030 C 
BRANCH  24  25
ATOM     25  N   UNL     1       0.205  -5.547  -2.095  0.00  0.00    +0.385 N 
ATOM     26  H   UNL     1       0.658  -6.080  -2.846  0.00  0.00    -0.085 HD
ATOM     27  H   UNL     1      -0.596  -5.031  -2.477  0.00  0.00    -0.085 HD
BRANCH  25  28
ATOM     28  C   UNL     1      -0.267  -6.479  -1.054  0.00  0.00    -0.046 C 
BRANCH  28  29
ATOM     29  C   UNL     1      -1.253  -7.442  -1.663  0.00  0.00    -0.064 A 
ATOM     30  C   UNL     1      -2.601  -7.138  -1.674  0.00  0.00    +0.002 A 
ATOM     31  C   UNL     1      -3.505  -8.019  -2.237  0.00  0.00    +0.003 A 
ATOM     32  C   UNL     1      -3.061  -9.210  -2.782  0.00  0.00    -0.050 A 
ATOM     33  C   UNL     1      -1.713  -9.517  -2.767  0.00  0.00    +0.003 A 
ATOM     34  C   UNL     1      -0.809  -8.633  -2.207  0.00  0.00    +0.002 A 
ATOM     35  C   UNL     1      -4.046 -10.172  -3.393  0.00  0.00    +0.044 C 
ENDBRANCH  28  29
ENDBRANCH  25  28
ENDBRANCH  24  25
ENDBRANCH   2  24
TORSDOF 8
