REMARK  Name = ZINC45338479
REMARK  10 active torsions:
REMARK  status: ('A' for Active; 'I' for Inactive)
REMARK    1  A    between atoms: C_1  and  C_2
REMARK    2  A    between atoms: C_5  and  C_8
REMARK    3  A    between atoms: C_11  and  C_13
REMARK    4  A    between atoms: C_13  and  C_14
REMARK    5  A    between atoms: C_16  and  C_21
REMARK    6  A    between atoms: C_23  and  O_36
REMARK    7  A    between atoms: C_25  and  O_35
REMARK    8  A    between atoms: C_27  and  O_34
REMARK    9  A    between atoms: C_29  and  C_32
REMARK   10  A    between atoms: C_32  and  O_33
REMARK                            x       y       z     vdW  Elec       q    Type
REMARK                         _______ _______ _______ _____ _____    ______ ____
ROOT
ATOM      1  C   UNL     1       1.537  -8.617   1.317  0.00  0.00    -0.022 A 
ATOM      2  C   UNL     1       2.117  -8.609   2.572  0.00  0.00    +0.011 A 
ATOM      3  C   UNL     1       3.425  -9.025   2.732  0.00  0.00    -0.016 A 
ATOM      4  C   UNL     1       4.155  -9.448   1.637  0.00  0.00    +0.008 A 
ATOM      5  C   UNL     1       3.578  -9.457   0.382  0.00  0.00    +0.020 A 
ATOM      6  C   UNL     1       2.266  -9.047   0.222  0.00  0.00    +0.045 A 
ATOM      7 CL   UNL     1       1.537  -9.063  -1.354  0.00  0.00    -0.083 Cl
ENDROOT
BRANCH   3   8
ATOM      8  C   UNL     1       4.056  -9.015   4.101  0.00  0.00    +0.180 C 
ATOM      9  C   UNL     1       4.035 -10.431   4.683  0.00  0.00    +0.179 C 
ATOM     10  C   UNL     1       4.731 -10.424   6.047  0.00  0.00    +0.177 C 
ATOM     11  C   UNL     1       6.155  -9.887   5.878  0.00  0.00    +0.176 C 
ATOM     12  C   UNL     1       6.095  -8.492   5.250  0.00  0.00    +0.175 C 
ATOM     13  O   UNL     1       5.408  -8.563   3.999  0.00  0.00    -0.361 OA
BRANCH  11  14
ATOM     14  O   UNL     1       6.791  -9.809   7.155  0.00  0.00    -0.386 OA
ATOM     15  H   UNL     1       6.860 -10.659   7.613  0.00  0.00    +0.210 HD
ENDBRANCH  11  14
BRANCH  10  16
ATOM     16  O   UNL     1       4.779 -11.755   6.566  0.00  0.00    -0.386 OA
ATOM     17  H   UNL     1       5.208 -11.825   7.429  0.00  0.00    +0.210 HD
ENDBRANCH  10  16
BRANCH   9  18
ATOM     18  O   UNL     1       2.681 -10.863   4.838  0.00  0.00    -0.386 OA
ATOM     19  H   UNL     1       2.592 -11.754   5.203  0.00  0.00    +0.210 HD
ENDBRANCH   9  18
BRANCH  12  20
ATOM     20  C   UNL     1       7.516  -7.973   5.023  0.00  0.00    +0.190 C 
BRANCH  20  21
ATOM     21  O   UNL     1       7.461  -6.627   4.545  0.00  0.00    -0.392 OA
ATOM     22  H   UNL     1       8.328  -6.232   4.379  0.00  0.00    +0.210 HD
ENDBRANCH  20  21
ENDBRANCH  12  20
ENDBRANCH   3   8
BRANCH   1  23
ATOM     23  C   UNL     1       0.111  -8.164   1.142  0.00  0.00    +0.101 C 
BRANCH  23  27
ATOM     24  C   UNL     1       0.059  -4.206   0.075  0.00  0.00    +0.134 A 
ATOM     25  N   UNL     1       0.072  -5.096  -0.911  0.00  0.00    -0.141 NA
ATOM     26  N   UNL     1       0.088  -6.325  -0.620  0.00  0.00    -0.146 NA
ATOM     27  C   UNL     1       0.093  -6.750   0.623  0.00  0.00    +0.107 A 
ATOM     28  S   UNL     1       0.081  -5.302   1.487  0.00  0.00    -0.050 S 
BRANCH  24  33
ATOM     29  C   UNL     1      -0.018   1.503   0.010  0.00  0.00    +0.065 C 
ATOM     30  C   UNL     1       0.002  -0.004   0.002  0.00  0.00    +0.038 A 
ATOM     31  C   UNL     1       0.005  -0.678  -1.206  0.00  0.00    +0.024 A 
ATOM     32  C   UNL     1       0.024  -2.062  -1.210  0.00  0.00    +0.014 A 
ATOM     33  C   UNL     1       0.039  -2.728   0.021  0.00  0.00    +0.027 A 
ATOM     34  C   UNL     1       0.035  -1.975   1.195  0.00  0.00    +0.121 A 
ATOM     35  N   UNL     1       0.022  -0.659   1.147  0.00  0.00    -0.259 NA
ENDBRANCH  24  33
ENDBRANCH  23  27
ENDBRANCH   1  23
TORSDOF 9
