REMARK  Name = ZINC12390431
REMARK  6 active torsions:
REMARK  status: ('A' for Active; 'I' for Inactive)
REMARK    1  A    between atoms: C_1  and  C_2
REMARK    2  A    between atoms: C_2  and  C_28
REMARK    3  A    between atoms: C_6  and  C_15
REMARK    4  A    between atoms: C_18  and  C_21
REMARK    5  A    between atoms: C_21  and  O_23
REMARK    6  A    between atoms: O_23  and  C_24
REMARK                            x       y       z     vdW  Elec       q    Type
REMARK                         _______ _______ _______ _____ _____    ______ ____
ROOT
ATOM      1  C   UNL     1      -0.747   2.040  -1.236  0.00  0.00    +0.011 C 
ATOM      2  C   UNL     1      -0.021   1.524   0.009  0.00  0.00    -0.023 C 
ATOM      3  C   UNL     1       1.432   1.995  -0.004  0.00  0.00    +0.058 C 
ATOM      4  C   UNL     1       2.158   1.473   1.225  0.00  0.00    +0.019 C 
ATOM      5  C   UNL     1       1.832   0.295   1.776  0.00  0.00    +0.037 C 
ATOM      6  C   UNL     1       2.387  -0.397   3.004  0.00  0.00    +0.137 C 
ATOM      7  N   UNL     1       3.622   0.154   3.530  0.00  0.00    -0.313 N 
ATOM      8  C   UNL     1       3.650   1.486   3.940  0.00  0.00    +0.205 A 
ATOM      9  C   UNL     1       3.350   2.573   3.018  0.00  0.00    +0.208 A 
ATOM     10  N   UNL     1       3.378   3.693   3.664  0.00  0.00    -0.032 NA
ATOM     11  O   UNL     1       3.735   3.397   5.008  0.00  0.00    -0.239 OA
ATOM     12  N   UNL     1       3.906   1.989   5.107  0.00  0.00    -0.032 NA
ATOM     13  N   UNL     1       3.147   2.301   1.673  0.00  0.00    -0.297 N 
ATOM     14  C   UNL     1       0.800  -0.480   1.175  0.00  0.00    +0.163 C 
ATOM     15  O   UNL     1       0.557  -1.578   1.638  0.00  0.00    -0.292 OA
ATOM     16  C   UNL     1       0.001  -0.010   0.002  0.00  0.00    +0.086 C 
ATOM     17  C   UNL     1      -0.723   2.029   1.271  0.00  0.00    +0.011 C 
ATOM     18  H   UNL     1       4.418  -0.397   3.596  0.00  0.00    +0.149 HD
ATOM     19  H   UNL     1       3.732   2.718   1.021  0.00  0.00    +0.153 HD
ENDROOT
BRANCH   6  20
ATOM     20  C   UNL     1       1.343  -0.340   4.090  0.00  0.00    -0.023 A 
ATOM     21  C   UNL     1       0.760  -1.508   4.547  0.00  0.00    +0.006 A 
ATOM     22  C   UNL     1      -0.192  -1.463   5.545  0.00  0.00    +0.015 A 
ATOM     23  C   UNL     1      -0.574  -0.234   6.086  0.00  0.00    +0.059 A 
ATOM     24  C   UNL     1       0.015   0.942   5.616  0.00  0.00    +0.015 A 
ATOM     25  C   UNL     1       0.970   0.882   4.622  0.00  0.00    +0.006 A 
BRANCH  23  26
ATOM     26  C   UNL     1      -1.597  -0.178   7.150  0.00  0.00    +0.339 C 
ATOM     27  O   UNL     1      -1.927   0.893   7.619  0.00  0.00    -0.245 OA
BRANCH  26  28
ATOM     28  O   UNL     1      -2.163  -1.314   7.601  0.00  0.00    -0.464 OA
ATOM     29  C   UNL     1      -3.161  -1.183   8.648  0.00  0.00    +0.280 C 
ENDBRANCH  26  28
ENDBRANCH  23  26
ENDBRANCH   6  20
TORSDOF 3
