REMARK  Name = ZINC00711719
REMARK  7 active torsions:
REMARK  status: ('A' for Active; 'I' for Inactive)
REMARK    1  A    between atoms: C_3  and  C_6
REMARK    2  A    between atoms: C_10  and  C_21
REMARK    3  A    between atoms: C_11  and  O_20
REMARK    4  A    between atoms: C_15  and  N_19
REMARK    5  A    between atoms: C_16  and  C_17
REMARK    6  A    between atoms: N_22  and  C_23
REMARK    7  A    between atoms: C_25  and  C_30
REMARK                            x       y       z     vdW  Elec       q    Type
REMARK                         _______ _______ _______ _____ _____    ______ ____
ROOT
ATOM      1  C   UNL     1       3.599   0.625  -0.029  0.00  0.00    +0.134 C 
ATOM      2  C   UNL     1       4.069  -0.084  -1.272  0.00  0.00    +0.011 A 
ATOM      3  C   UNL     1       3.457   0.187  -2.477  0.00  0.00    +0.021 A 
ATOM      4  C   UNL     1       3.879  -0.462  -3.641  0.00  0.00    +0.035 A 
ATOM      5  C   UNL     1       4.931  -1.391  -3.575  0.00  0.00    +0.129 A 
ATOM      6  C   UNL     1       5.537  -1.653  -2.361  0.00  0.00    +0.092 A 
ATOM      7  C   UNL     1       5.110  -1.003  -1.209  0.00  0.00    +0.138 A 
ATOM      8  O   UNL     1       5.721  -1.279  -0.031  0.00  0.00    -0.441 OA
ATOM      9  C   UNL     1       5.106  -0.987   1.127  0.00  0.00    +0.199 C 
ATOM     10  C   UNL     1       4.092  -0.095   1.194  0.00  0.00    +0.101 C 
ENDROOT
BRANCH   1  13
ATOM     11  C   UNL     1      -0.016   1.341   0.009  0.00  0.00    +0.041 A 
ATOM     12  C   UNL     1       1.331   1.769  -0.001  0.00  0.00    +0.045 A 
ATOM     13  C   UNL     1       2.092   0.660  -0.014  0.00  0.00    +0.117 A 
ATOM     14  O   UNL     1       1.282  -0.411  -0.012  0.00  0.00    -0.467 OA
ATOM     15  C   UNL     1       0.002  -0.004   0.002  0.00  0.00    +0.195 A 
ENDBRANCH   1  13
BRANCH   9  16
ATOM     16  N   UNL     1       5.518  -1.614   2.276  0.00  0.00    -0.328 N 
ATOM     17  H   UNL     1       6.243  -2.258   2.244  0.00  0.00    +0.145 HD
ATOM     18  H   UNL     1       5.085  -1.414   3.120  0.00  0.00    +0.145 HD
ENDBRANCH   9  16
BRANCH  10  19
ATOM     19  C   UNL     1       3.478   0.170   2.460  0.00  0.00    +0.101 C 
ATOM     20  N   UNL     1       2.990   0.380   3.464  0.00  0.00    -0.191 NA
ENDBRANCH  10  19
BRANCH   5  21
ATOM     21  O   UNL     1       5.349  -2.027  -4.699  0.00  0.00    -0.506 OA
ATOM     22  H   UNL     1       6.052  -1.564  -5.175  0.00  0.00    +0.292 HD
ENDBRANCH   5  21
BRANCH   4  23
ATOM     23  C   UNL     1       3.227  -0.174  -4.925  0.00  0.00    +0.123 C 
ATOM     24  N   UNL     1       3.624  -0.782  -6.009  0.00  0.00    -0.253 NA
BRANCH  24  25
ATOM     25  C   UNL     1       3.016  -0.514  -7.206  0.00  0.00    +0.083 A 
ATOM     26  C   UNL     1       2.658   0.796  -7.533  0.00  0.00    +0.041 A 
ATOM     27  C   UNL     1       2.046   1.058  -8.741  0.00  0.00    +0.057 A 
ATOM     28  C   UNL     1       1.786   0.028  -9.628  0.00  0.00    +0.014 A 
ATOM     29  C   UNL     1       2.137  -1.271  -9.311  0.00  0.00    +0.022 A 
ATOM     30  C   UNL     1       2.756  -1.549  -8.108  0.00  0.00    +0.066 A 
ATOM     31 CL   UNL     1       3.203  -3.180  -7.715  0.00  0.00    -0.081 Cl
BRANCH  27  32
ATOM     32  C   UNL     1       1.659   2.471  -9.095  0.00  0.00    +0.417 C 
ATOM     33  F   UNL     1       2.720   3.092  -9.764  0.00  0.00    -0.166 F 
ATOM     34  F   UNL     1       0.532   2.452  -9.925  0.00  0.00    -0.166 F 
ATOM     35  F   UNL     1       1.364   3.181  -7.926  0.00  0.00    -0.166 F 
ENDBRANCH  27  32
ENDBRANCH  24  25
ENDBRANCH   4  23
TORSDOF 7
