REMARK  Name = ZINC39674822
REMARK  7 active torsions:
REMARK  status: ('A' for Active; 'I' for Inactive)
REMARK    1  A    between atoms: C_1  and  C_2
REMARK    2  A    between atoms: C_4  and  C_14
REMARK    3  A    between atoms: C_7  and  C_12
REMARK    4  A    between atoms: C_14  and  C_15
REMARK    5  A    between atoms: C_15  and  N_16
REMARK    6  A    between atoms: C_17  and  C_19
REMARK    7  A    between atoms: C_30  and  C_32
REMARK                            x       y       z     vdW  Elec       q    Type
REMARK                         _______ _______ _______ _____ _____    ______ ____
ROOT
ATOM      1  C   UNL     1      -7.121  -1.143  -2.404  0.00  0.00    +0.100 C 
ATOM      2  C   UNL     1      -6.662  -1.633  -3.795  0.00  0.00    +0.121 C 
ATOM      3  N   UNL     1      -7.191  -3.013  -3.899  0.00  0.00    -0.296 N 
ATOM      4  C   UNL     1      -8.534  -2.941  -3.277  0.00  0.00    +0.115 C 
ATOM      5  C   UNL     1      -8.352  -2.001  -2.069  0.00  0.00    -0.004 C 
ATOM      6  C   UNL     1      -9.583  -1.116  -1.898  0.00  0.00    -0.010 C 
ATOM      7  C   UNL     1     -10.781  -1.986  -1.508  0.00  0.00    -0.082 C 
ATOM      8  N   UNL     1     -10.487  -2.696  -0.258  0.00  0.00    +0.379 N 
ATOM      9  C   UNL     1      -9.360  -3.615  -0.457  0.00  0.00    -0.082 C 
ATOM     10  C   UNL     1      -8.101  -2.814  -0.802  0.00  0.00    -0.010 C 
ATOM     11  C   UNL     1      -6.586  -4.091  -4.438  0.00  0.00    +0.248 C 
ATOM     12  O   UNL     1      -5.435  -4.013  -4.826  0.00  0.00    -0.270 OA
ATOM     13  H   UNL     1     -10.251  -2.027   0.460  0.00  0.00    -0.086 HD
ATOM     14  H   UNL     1     -11.300  -3.221   0.029  0.00  0.00    -0.086 HD
ENDROOT
BRANCH  11  15
ATOM     15  C   UNL     1      -7.316  -5.359  -4.557  0.00  0.00    +0.052 A 
ATOM     16  C   UNL     1      -8.649  -5.378  -4.820  0.00  0.00    +0.059 A 
ATOM     17  S   UNL     1      -9.071  -7.000  -4.871  0.00  0.00    -0.096 S 
ATOM     18  C   UNL     1      -7.496  -7.744  -4.545  0.00  0.00    +0.020 A 
ATOM     19  C   UNL     1      -6.630  -6.643  -4.402  0.00  0.00    +0.001 A 
ATOM     20  C   UNL     1      -5.275  -6.919  -4.135  0.00  0.00    +0.010 A 
ATOM     21  C   UNL     1      -4.838  -8.216  -4.028  0.00  0.00    +0.001 A 
ATOM     22  C   UNL     1      -5.712  -9.283  -4.178  0.00  0.00    +0.001 A 
ATOM     23  C   UNL     1      -7.048  -9.043  -4.430  0.00  0.00    +0.015 A 
ENDBRANCH  11  15
BRANCH   1  25
ATOM     24  N   UNL     1      -5.917  -0.533  -0.330  0.00  0.00    -0.315 N 
ATOM     25  C   UNL     1      -6.034  -1.365  -1.384  0.00  0.00    +0.218 C 
ATOM     26  O   UNL     1      -5.263  -2.293  -1.512  0.00  0.00    -0.275 OA
ATOM     27  H   UNL     1      -6.534   0.209  -0.228  0.00  0.00    +0.149 HD
BRANCH  24  28
ATOM     28  C   UNL     1      -4.860  -0.749   0.661  0.00  0.00    +0.108 C 
BRANCH  28  29
ATOM     29  C   UNL     1      -4.950   0.328   1.745  0.00  0.00    +0.052 C 
BRANCH  29  32
ATOM     30  C   UNL     1      -4.803   0.910   4.929  0.00  0.00    +0.035 C 
ATOM     31  C   UNL     1      -3.590   0.936   3.998  0.00  0.00    +0.103 C 
ATOM     32  C   UNL     1      -3.862   0.105   2.764  0.00  0.00    -0.037 C 
ATOM     33  C   UNL     1      -2.930  -0.881   2.761  0.00  0.00    +0.000 A 
ATOM     34  C   UNL     1      -2.687  -1.952   1.862  0.00  0.00    +0.028 A 
ATOM     35  C   UNL     1      -1.654  -2.830   2.096  0.00  0.00    +0.052 A 
ATOM     36  C   UNL     1      -0.788  -2.686   3.261  0.00  0.00    +0.021 A 
ATOM     37  C   UNL     1      -0.971  -1.687   4.150  0.00  0.00    +0.027 A 
ATOM     38  C   UNL     1      -2.059  -0.724   3.947  0.00  0.00    +0.043 A 
ATOM     39  N   UNL     1      -2.435   0.315   4.655  0.00  0.00    -0.378 N 
ATOM     40  H   UNL     1      -2.019   0.622   5.476  0.00  0.00    +0.160 HD
BRANCH  35  41
ATOM     41  C   UNL     1      -1.424  -3.905   1.179  0.00  0.00    +0.099 C 
ATOM     42  N   UNL     1      -1.241  -4.758   0.451  0.00  0.00    -0.191 NA
ENDBRANCH  35  41
ENDBRANCH  29  32
ENDBRANCH  28  29
ENDBRANCH  24  28
ENDBRANCH   1  25
TORSDOF 6
