REMARK  Name = ZINC14475672
REMARK  3 active torsions:
REMARK  status: ('A' for Active; 'I' for Inactive)
REMARK    1  A    between atoms: C_14  and  C_17
REMARK    2  A    between atoms: C_19  and  N_24
REMARK    3  A    between atoms: C_22  and  O_23
REMARK                            x       y       z     vdW  Elec       q    Type
REMARK                         _______ _______ _______ _____ _____    ______ ____
ROOT
ATOM      1  C   UNL     1      -0.017   1.378   0.010  0.00  0.00    +0.000 A 
ATOM      2  C   UNL     1       1.172   2.086   0.002  0.00  0.00    +0.002 A 
ATOM      3  C   UNL     1       2.377   1.415  -0.020  0.00  0.00    +0.023 A 
ATOM      4  C   UNL     1       2.407   0.026  -0.032  0.00  0.00    +0.031 A 
ATOM      5  C   UNL     1       1.201  -0.683  -0.011  0.00  0.00    -0.019 A 
ATOM      6  C   UNL     1       0.002  -0.004   0.002  0.00  0.00    +0.006 A 
ATOM      7  C   UNL     1       1.278  -2.160   0.015  0.00  0.00    +0.049 C 
ATOM      8  C   UNL     1       0.192  -3.012  -0.533  0.00  0.00    -0.023 C 
ATOM      9  C   UNL     1       0.728  -4.133  -1.002  0.00  0.00    -0.030 C 
ATOM     10  C   UNL     1       2.248  -4.098  -0.830  0.00  0.00    +0.033 C 
ATOM     11  C   UNL     1       2.507  -2.590  -0.841  0.00  0.00    +0.029 C 
ATOM     12  C   UNL     1       3.724  -2.109  -0.071  0.00  0.00    +0.108 C 
ATOM     13  N   UNL     1       3.642  -0.632  -0.076  0.00  0.00    -0.336 N 
ATOM     14  H   UNL     1       4.459  -0.111  -0.111  0.00  0.00    +0.147 HD
ENDROOT
BRANCH  12  15
ATOM     15  C   UNL     1       3.685  -2.631   1.343  0.00  0.00    +0.017 A 
ATOM     16  C   UNL     1       3.152  -1.852   2.352  0.00  0.00    +0.041 A 
ATOM     17  C   UNL     1       3.115  -2.329   3.649  0.00  0.00    +0.127 A 
ATOM     18  C   UNL     1       3.612  -3.587   3.939  0.00  0.00    +0.036 A 
ATOM     19  C   UNL     1       4.145  -4.369   2.934  0.00  0.00    +0.048 A 
ATOM     20  C   UNL     1       4.178  -3.895   1.631  0.00  0.00    +0.122 A 
BRANCH  17  21
ATOM     21  N   UNL     1       2.545  -1.493   4.728  0.00  0.00    +0.056 N 
ATOM     22  O   UNL     1       2.111  -0.393   4.476  0.00  0.00    -0.126 OA
ATOM     23  O   UNL     1       2.512  -1.909   5.863  0.00  0.00    -0.126 OA
ENDBRANCH  17  21
BRANCH  20  24
ATOM     24  O   UNL     1       4.697  -4.665   0.638  0.00  0.00    -0.506 OA
ATOM     25  H   UNL     1       5.647  -4.542   0.502  0.00  0.00    +0.292 HD
ENDBRANCH  20  24
ENDBRANCH  12  15
TORSDOF 3
