REMARK  Name = ZINC28057149
REMARK  4 active torsions:
REMARK  status: ('A' for Active; 'I' for Inactive)
REMARK    1  A    between atoms: C_1  and  O_2
REMARK    2  A    between atoms: O_2  and  C_3
REMARK    3  A    between atoms: C_7  and  C_9
REMARK    4  A    between atoms: C_20  and  C_22
REMARK                            x       y       z     vdW  Elec       q    Type
REMARK                         _______ _______ _______ _____ _____    ______ ____
ROOT
ATOM      1  C   UNL     1      -1.302   2.120   0.032  0.00  0.00    +0.174 C 
ATOM      2  C   UNL     1      -0.016   1.330   0.009  0.00  0.00    +0.026 C 
ATOM      3  C   UNL     1       0.002  -0.004   0.002  0.00  0.00    +0.050 C 
ATOM      4  C   UNL     1       1.315  -0.692  -0.024  0.00  0.00    +0.039 A 
ATOM      5  C   UNL     1       1.440  -2.034   0.312  0.00  0.00    +0.033 A 
ATOM      6  C   UNL     1       2.685  -2.634   0.269  0.00  0.00    +0.042 A 
ATOM      7  C   UNL     1       3.800  -1.903  -0.105  0.00  0.00    +0.023 A 
ATOM      8  C   UNL     1       3.683  -0.566  -0.440  0.00  0.00    +0.048 A 
ATOM      9  C   UNL     1       2.445   0.046  -0.401  0.00  0.00    +0.131 A 
ATOM     10  O   UNL     1       2.288   1.357  -0.719  0.00  0.00    -0.479 OA
ATOM     11  C   UNL     1       1.294   2.085   0.001  0.00  0.00    +0.241 C 
ATOM     12 CL   UNL     1       2.851  -4.310   0.688  0.00  0.00    -0.084 Cl
ATOM     13  N   UNL     1      -1.171  -0.768   0.010  0.00  0.00    -0.282 N 
ATOM     14  C   UNL     1      -2.359  -0.109  -0.261  0.00  0.00    +0.240 A 
ATOM     15  N   UNL     1      -2.430   1.248  -0.261  0.00  0.00    -0.201 N 
ATOM     16  N   UNL     1      -3.753   1.550  -0.581  0.00  0.00    -0.042 NA
ATOM     17  N   UNL     1      -4.362   0.419  -0.737  0.00  0.00    -0.021 NA
ATOM     18  N   UNL     1      -3.546  -0.560  -0.548  0.00  0.00    -0.092 NA
ATOM     19  H   UNL     1      -1.125  -1.845   0.226  0.00  0.00    +0.155 HD
ENDROOT
BRANCH   1  24
ATOM     20  C   UNL     1      -1.739   4.678   2.779  0.00  0.00    +0.120 A 
ATOM     21  C   UNL     1      -1.822   3.864   3.900  0.00  0.00    +0.045 A 
ATOM     22  C   UNL     1      -1.736   2.493   3.765  0.00  0.00    +0.004 A 
ATOM     23  C   UNL     1      -1.573   1.929   2.513  0.00  0.00    +0.006 A 
ATOM     24  C   UNL     1      -1.485   2.737   1.395  0.00  0.00    -0.015 A 
ATOM     25  C   UNL     1      -1.570   4.110   1.525  0.00  0.00    +0.051 A 
BRANCH  20  27
ATOM     26  C   UNL     1      -1.998   6.542   4.232  0.00  0.00    +0.277 C 
ATOM     27  O   UNL     1      -1.824   6.028   2.910  0.00  0.00    -0.495 OA
ENDBRANCH  20  27
ENDBRANCH   1  24
BRANCH  11  28
ATOM     28  C   UNL     1       1.758   2.291   1.420  0.00  0.00    +0.034 A 
ATOM     29  C   UNL     1       1.572   3.360   2.232  0.00  0.00    +0.015 A 
ATOM     30  C   UNL     1       2.093   3.328   3.512  0.00  0.00    +0.008 A 
ATOM     31  C   UNL     1       2.775   2.228   3.917  0.00  0.00    +0.045 A 
ATOM     32  S   UNL     1       2.689   1.187   2.469  0.00  0.00    -0.098 S 
ENDBRANCH  11  28
TORSDOF 3
