REMARK  Name = ZINC09252572
REMARK  7 active torsions:
REMARK  status: ('A' for Active; 'I' for Inactive)
REMARK    1  A    between atoms: C_3  and  C_6
REMARK    2  A    between atoms: C_6  and  N_45
REMARK    3  A    between atoms: C_7  and  C_8
REMARK    4  A    between atoms: C_7  and  N_45
REMARK    5  A    between atoms: C_13  and  C_14
REMARK    6  A    between atoms: C_13  and  N_45
REMARK    7  A    between atoms: N_16  and  C_17
REMARK                            x       y       z     vdW  Elec       q    Type
REMARK                         _______ _______ _______ _____ _____    ______ ____
ROOT
ATOM      1  C   UNL     1       5.241   2.146  -1.296  0.00  0.00    +0.201 C 
ATOM      2  O   UNL     1       4.651   3.154  -1.623  0.00  0.00    -0.278 OA
ATOM      3  N   UNL     1       6.438   2.234  -0.683  0.00  0.00    -0.286 N 
ATOM      4  H   UNL     1       6.862   1.437  -0.330  0.00  0.00    +0.155 HD
ENDROOT
BRANCH   3   5
ATOM      5  C   UNL     1       7.070   3.478  -0.556  0.00  0.00    +0.049 A 
ATOM      6  C   UNL     1       6.310   4.635  -0.471  0.00  0.00    +0.052 A 
ATOM      7  C   UNL     1       6.938   5.864  -0.345  0.00  0.00    +0.069 A 
ATOM      8  C   UNL     1       8.332   5.934  -0.306  0.00  0.00    +0.068 A 
ATOM      9  C   UNL     1       9.087   4.774  -0.392  0.00  0.00    +0.045 A 
ATOM     10  C   UNL     1       8.458   3.550  -0.511  0.00  0.00    +0.041 A 
ATOM     11 BR   UNL     1       9.488   1.968  -0.619  0.00  0.00    -0.048 Br
ATOM     12  N   UNL     1       8.664   7.282  -0.177  0.00  0.00    -0.306 N 
ATOM     13  H   UNL     1       9.563   7.644  -0.122  0.00  0.00    +0.170 HD
ATOM     14  C   UNL     1       7.524   7.998  -0.140  0.00  0.00    +0.325 A 
ATOM     15  O   UNL     1       7.459   9.208  -0.033  0.00  0.00    -0.247 OA
ATOM     16  N   UNL     1       6.466   7.171  -0.240  0.00  0.00    -0.306 N 
ATOM     17  H   UNL     1       5.534   7.439  -0.238  0.00  0.00    +0.170 HD
ENDBRANCH   3   5
BRANCH   1  18
ATOM     18  C   UNL     1       4.636   0.794  -1.576  0.00  0.00    +0.020 C 
BRANCH  18  19
ATOM     19  N   UNL     1       3.361   0.987  -2.299  0.00  0.00    +0.391 N 
ATOM     20  H   UNL     1       3.478   1.742  -2.985  0.00  0.00    -0.080 HD
BRANCH  19  21
ATOM     21  C   UNL     1       2.294   1.364  -1.349  0.00  0.00    -0.034 C 
BRANCH  21  24
ATOM     22  C   UNL     1      -0.995   1.593  -3.257  0.00  0.00    +0.008 A 
ATOM     23  C   UNL     1       0.029   1.002  -2.542  0.00  0.00    +0.009 A 
ATOM     24  C   UNL     1       1.069   1.767  -2.129  0.00  0.00    -0.027 A 
ATOM     25  S   UNL     1       0.611   3.378  -2.748  0.00  0.00    -0.103 S 
ATOM     26  C   UNL     1      -0.935   2.922  -3.515  0.00  0.00    +0.045 A 
ENDBRANCH  21  24
ENDBRANCH  19  21
BRANCH  19  27
ATOM     27  C   UNL     1       2.991  -0.255  -3.009  0.00  0.00    -0.034 C 
BRANCH  27  28
ATOM     28  C   UNL     1       3.901  -0.423  -4.199  0.00  0.00    -0.027 A 
ATOM     29  C   UNL     1       5.019  -1.179  -4.317  0.00  0.00    +0.009 A 
ATOM     30  C   UNL     1       5.702  -1.183  -5.519  0.00  0.00    +0.008 A 
ATOM     31  C   UNL     1       5.239  -0.421  -6.540  0.00  0.00    +0.045 A 
ATOM     32  S   UNL     1       3.791   0.329  -5.814  0.00  0.00    -0.103 S 
ENDBRANCH  27  28
ENDBRANCH  19  27
ENDBRANCH  18  19
ENDBRANCH   1  18
TORSDOF 7
