REMARK  Name = ZINC13576662
REMARK  4 active torsions:
REMARK  status: ('A' for Active; 'I' for Inactive)
REMARK    1  A    between atoms: C_1  and  C_2
REMARK    2  A    between atoms: C_2  and  N_3
REMARK    3  A    between atoms: C_16  and  C_18
REMARK    4  A    between atoms: N_22  and  C_25
REMARK                            x       y       z     vdW  Elec       q    Type
REMARK                         _______ _______ _______ _____ _____    ______ ____
ROOT
ATOM      1  N   UNL     1       1.382  -2.033  -2.400  0.00  0.00    +0.388 N 
ATOM      2  C   UNL     1       0.916  -2.351  -3.757  0.00  0.00    -0.073 C 
ATOM      3  C   UNL     1       1.994  -3.158  -4.494  0.00  0.00    +0.019 C 
ATOM      4  C   UNL     1       2.420  -4.289  -3.592  0.00  0.00    -0.022 A 
ATOM      5  C   UNL     1       3.164  -5.487  -3.908  0.00  0.00    +0.003 A 
ATOM      6  C   UNL     1       3.716  -5.979  -5.095  0.00  0.00    +0.010 A 
ATOM      7  C   UNL     1       4.372  -7.183  -5.023  0.00  0.00    +0.001 A 
ATOM      8  C   UNL     1       4.489  -7.888  -3.836  0.00  0.00    +0.002 A 
ATOM      9  C   UNL     1       3.954  -7.425  -2.647  0.00  0.00    +0.026 A 
ATOM     10  C   UNL     1       3.281  -6.205  -2.689  0.00  0.00    +0.047 A 
ATOM     11  N   UNL     1       2.647  -5.476  -1.724  0.00  0.00    -0.359 N 
ATOM     12  H   UNL     1       2.572  -5.731  -0.791  0.00  0.00    +0.166 HD
ATOM     13  C   UNL     1       2.135  -4.331  -2.270  0.00  0.00    +0.011 A 
ATOM     14  C   UNL     1       1.365  -3.242  -1.562  0.00  0.00    +0.021 C 
ATOM     15  H   UNL     1       2.323  -1.673  -2.448  0.00  0.00    -0.080 HD
ENDROOT
BRANCH  14  16
ATOM     16  C   UNL     1       2.014  -2.946  -0.234  0.00  0.00    +0.074 A 
ATOM     17  C   UNL     1       1.348  -3.189   0.930  0.00  0.00    +0.260 A 
ATOM     18  N   UNL     1       1.958  -2.913   2.127  0.00  0.00    -0.274 N 
ATOM     19  C   UNL     1       3.203  -2.404   2.156  0.00  0.00    +0.337 A 
ATOM     20  N   UNL     1       3.877  -2.156   1.018  0.00  0.00    -0.229 N 
ATOM     21  C   UNL     1       3.317  -2.420  -0.179  0.00  0.00    +0.267 A 
ATOM     22  O   UNL     1       3.933  -2.199  -1.207  0.00  0.00    -0.267 OA
ATOM     23  O   UNL     1       3.728  -2.164   3.227  0.00  0.00    -0.246 OA
ATOM     24  O   UNL     1       0.098  -3.699   0.905  0.00  0.00    -0.267 OA
ATOM     25  H   UNL     1       1.488  -3.084   2.958  0.00  0.00    +0.173 HD
BRANCH  20  26
ATOM     26  C   UNL     1       5.172  -1.626   1.078  0.00  0.00    +0.056 A 
ATOM     27  C   UNL     1       5.361  -0.250   1.081  0.00  0.00    +0.026 A 
ATOM     28  C   UNL     1       6.639   0.271   1.141  0.00  0.00    +0.003 A 
ATOM     29  C   UNL     1       7.730  -0.576   1.197  0.00  0.00    +0.020 A 
ATOM     30  C   UNL     1       7.546  -1.947   1.193  0.00  0.00    +0.043 A 
ATOM     31  C   UNL     1       6.269  -2.474   1.140  0.00  0.00    +0.046 A 
ATOM     32 CL   UNL     1       8.919  -3.007   1.263  0.00  0.00    -0.083 Cl
ENDBRANCH  20  26
ENDBRANCH  14  16
BRANCH   1  34
ATOM     33  C   UNL     1       0.612   0.282  -2.607  0.00  0.00    -0.017 C 
ATOM     34  C   UNL     1       0.501  -1.018  -1.808  0.00  0.00    -0.081 C 
ENDBRANCH   1  34
TORSDOF 3
