REMARK  Name = ZINC39795403
REMARK  8 active torsions:
REMARK  status: ('A' for Active; 'I' for Inactive)
REMARK    1  A    between atoms: C_1  and  O_2
REMARK    2  A    between atoms: O_2  and  C_3
REMARK    3  A    between atoms: C_5  and  N_12
REMARK    4  A    between atoms: C_6  and  O_10
REMARK    5  A    between atoms: O_10  and  C_11
REMARK    6  A    between atoms: C_13  and  C_15
REMARK    7  A    between atoms: C_15  and  O_16
REMARK    8  A    between atoms: O_16  and  C_17
REMARK                            x       y       z     vdW  Elec       q    Type
REMARK                         _______ _______ _______ _____ _____    ______ ____
ROOT
ATOM      1  C   UNL     1       3.178   2.434   5.072  0.00  0.00    +0.324 C 
ENDROOT
BRANCH   1   3
ATOM      2  N   UNL     1       2.421   0.276   4.131  0.00  0.00    -0.280 N 
ATOM      3  C   UNL     1       2.452   1.619   4.033  0.00  0.00    +0.255 C 
ATOM      4  O   UNL     1       1.897   2.173   3.107  0.00  0.00    -0.272 OA
ATOM      5  H   UNL     1       2.794  -0.163   4.912  0.00  0.00    +0.155 HD
BRANCH   2   8
ATOM      6  C   UNL     1       1.217  -0.743   0.803  0.00  0.00    +0.140 A 
ATOM      7  C   UNL     1       1.784   0.016   1.816  0.00  0.00    +0.074 A 
ATOM      8  C   UNL     1       1.848  -0.489   3.106  0.00  0.00    +0.079 A 
ATOM      9  C   UNL     1       1.342  -1.758   3.381  0.00  0.00    +0.143 A 
ATOM     10  C   UNL     1       0.776  -2.512   2.366  0.00  0.00    +0.071 A 
ATOM     11  C   UNL     1       0.709  -2.004   1.081  0.00  0.00    +0.086 A 
ATOM     12 CL   UNL     1      -0.006  -2.949  -0.188  0.00  0.00    -0.080 Cl
BRANCH   6  14
ATOM     13  C   UNL     1       1.696   1.057  -0.676  0.00  0.00    +0.277 C 
ATOM     14  O   UNL     1       1.154  -0.248  -0.462  0.00  0.00    -0.494 OA
ENDBRANCH   6  14
BRANCH   9  15
ATOM     15  O   UNL     1       1.403  -2.256   4.646  0.00  0.00    -0.493 OA
ATOM     16  C   UNL     1       0.866  -3.563   4.855  0.00  0.00    +0.277 C 
ENDBRANCH   9  15
ENDBRANCH   2   8
ENDBRANCH   1   3
BRANCH   1  17
ATOM     17  O   UNL     1       3.069   3.822   4.750  0.00  0.00    -0.483 OA
BRANCH  17  18
ATOM     18  C   UNL     1       3.673   4.700   5.594  0.00  0.00    +0.120 C 
ATOM     19  C   UNL     1       4.332   4.215   6.665  0.00  0.00    +0.047 C 
ATOM     20  C   UNL     1       5.074   5.158   7.547  0.00  0.00    +0.137 C 
ATOM     21  C   UNL     1       4.466   6.540   7.439  0.00  0.00    -0.012 C 
ATOM     22  C   UNL     1       4.466   7.029   8.724  0.00  0.00    +0.003 A 
ATOM     23  C   UNL     1       4.153   8.304   9.247  0.00  0.00    +0.010 A 
ATOM     24  C   UNL     1       4.236   8.452  10.601  0.00  0.00    +0.001 A 
ATOM     25  C   UNL     1       4.611   7.422  11.461  0.00  0.00    +0.002 A 
ATOM     26  C   UNL     1       4.936   6.169  11.037  0.00  0.00    +0.026 A 
ATOM     27  C   UNL     1       4.882   5.931   9.637  0.00  0.00    +0.044 A 
ATOM     28  N   UNL     1       5.151   4.850   8.960  0.00  0.00    -0.374 N 
ATOM     29  C   UNL     1       3.889   7.018   6.265  0.00  0.00    +0.010 C 
ATOM     30  C   UNL     1       3.586   6.083   5.307  0.00  0.00    +0.046 C 
ATOM     31  H   UNL     1       5.370   3.986   9.343  0.00  0.00    +0.161 HD
ENDBRANCH  17  18
ENDBRANCH   1  17
TORSDOF 6
