REMARK  Name = ZINC39624657
REMARK  7 active torsions:
REMARK  status: ('A' for Active; 'I' for Inactive)
REMARK    1  A    between atoms: C_1  and  C_2
REMARK    2  A    between atoms: C_2  and  C_3
REMARK    3  A    between atoms: C_2  and  C_4
REMARK    4  A    between atoms: C_4  and  N_5
REMARK    5  A    between atoms: C_6  and  C_8
REMARK    6  A    between atoms: C_19  and  C_21
REMARK    7  A    between atoms: C_24  and  C_26
REMARK                            x       y       z     vdW  Elec       q    Type
REMARK                         _______ _______ _______ _____ _____    ______ ____
ROOT
ATOM      1  C   UNL     1      -4.078  -0.112  -2.723  0.00  0.00    +0.100 C 
ATOM      2  C   UNL     1      -4.288   1.418  -2.769  0.00  0.00    +0.121 C 
ATOM      3  N   UNL     1      -5.612   1.595  -3.410  0.00  0.00    -0.294 N 
ATOM      4  C   UNL     1      -6.444   0.507  -2.844  0.00  0.00    +0.115 C 
ATOM      5  C   UNL     1      -5.495  -0.706  -2.772  0.00  0.00    -0.004 C 
ATOM      6  C   UNL     1      -5.660  -1.580  -4.012  0.00  0.00    -0.010 C 
ATOM      7  C   UNL     1      -7.058  -2.205  -4.009  0.00  0.00    -0.082 C 
ATOM      8  N   UNL     1      -7.233  -3.008  -2.793  0.00  0.00    +0.379 N 
ATOM      9  C   UNL     1      -7.166  -2.145  -1.608  0.00  0.00    -0.082 C 
ATOM     10  C   UNL     1      -5.773  -1.517  -1.509  0.00  0.00    -0.010 C 
ATOM     11  C   UNL     1      -5.978   2.534  -4.305  0.00  0.00    +0.282 C 
ATOM     12  O   UNL     1      -7.114   2.549  -4.742  0.00  0.00    -0.267 OA
ATOM     13  H   UNL     1      -8.131  -3.468  -2.822  0.00  0.00    -0.086 HD
ATOM     14  H   UNL     1      -6.504  -3.704  -2.743  0.00  0.00    -0.086 HD
ENDROOT
BRANCH  11  15
ATOM     15  C   UNL     1      -5.008   3.538  -4.751  0.00  0.00    +0.190 A 
ATOM     16  C   UNL     1      -5.250   4.552  -5.652  0.00  0.00    +0.055 A 
ATOM     17  C   UNL     1      -4.056   5.267  -5.784  0.00  0.00    +0.050 A 
ATOM     18  C   UNL     1      -3.138   4.671  -4.968  0.00  0.00    +0.136 A 
ATOM     19  O   UNL     1      -3.724   3.635  -4.346  0.00  0.00    -0.450 OA
BRANCH  18  20
ATOM     20  C   UNL     1      -1.736   5.099  -4.793  0.00  0.00    +0.017 A 
ATOM     21  C   UNL     1      -1.248   6.205  -5.492  0.00  0.00    +0.014 A 
ATOM     22  C   UNL     1       0.063   6.600  -5.324  0.00  0.00    +0.039 A 
ATOM     23  C   UNL     1       0.895   5.901  -4.463  0.00  0.00    +0.123 A 
ATOM     24  C   UNL     1       0.416   4.802  -3.768  0.00  0.00    +0.039 A 
ATOM     25  C   UNL     1      -0.894   4.402  -3.923  0.00  0.00    +0.014 A 
ATOM     26  F   UNL     1       2.178   6.293  -4.303  0.00  0.00    -0.205 F 
ENDBRANCH  18  20
ENDBRANCH  11  15
BRANCH   1  28
ATOM     27  N   UNL     1      -2.609  -1.608  -1.411  0.00  0.00    -0.315 N 
ATOM     28  C   UNL     1      -3.387  -0.508  -1.443  0.00  0.00    +0.218 C 
ATOM     29  O   UNL     1      -3.530   0.163  -0.443  0.00  0.00    -0.275 OA
ATOM     30  H   UNL     1      -2.494  -2.145  -2.211  0.00  0.00    +0.149 HD
BRANCH  27  31
ATOM     31  C   UNL     1      -1.937  -1.994  -0.167  0.00  0.00    +0.107 C 
BRANCH  31  33
ATOM     32  C   UNL     1       0.002  -2.980  -1.397  0.00  0.00    +0.009 C 
ATOM     33  C   UNL     1      -1.124  -3.268  -0.401  0.00  0.00    -0.000 C 
ATOM     34  C   UNL     1      -0.523  -3.740   0.924  0.00  0.00    +0.009 C 
ENDBRANCH  31  33
ENDBRANCH  27  31
ENDBRANCH   1  28
TORSDOF 5
