REMARK  Name = ZINC06190865
REMARK  14 active torsions:
REMARK  status: ('A' for Active; 'I' for Inactive)
REMARK    1  A    between atoms: C_1  and  C_2
REMARK    2  A    between atoms: C_2  and  C_3
REMARK    3  A    between atoms: C_2  and  C_4
REMARK    4  A    between atoms: C_7  and  N_10
REMARK    5  A    between atoms: N_10  and  C_11
REMARK    6  A    between atoms: C_11  and  C_13
REMARK    7  A    between atoms: C_11  and  C_18
REMARK    8  A    between atoms: N_20  and  C_21
REMARK    9  A    between atoms: C_21  and  C_22
REMARK   10  A    between atoms: C_21  and  C_23
REMARK   11  A    between atoms: C_21  and  C_24
REMARK   12  A    between atoms: C_25  and  C_27
REMARK   13  A    between atoms: C_28  and  N_35
REMARK   14  A    between atoms: C_29  and  C_32
REMARK                            x       y       z     vdW  Elec       q    Type
REMARK                         _______ _______ _______ _____ _____    ______ ____
ROOT
ATOM      1  N   UNL     1      -2.278   2.194  -1.040  0.00  0.00    -0.250 N 
ATOM      2  C   UNL     1      -2.481   2.845  -2.202  0.00  0.00    +0.262 C 
ATOM      3  O   UNL     1      -3.259   2.395  -3.024  0.00  0.00    -0.269 OA
ENDROOT
BRANCH   1   7
ATOM      4  C   UNL     1      -4.004  -1.546  -0.417  0.00  0.00    -0.045 A 
ATOM      5  C   UNL     1      -4.804  -0.419  -0.481  0.00  0.00    +0.006 A 
ATOM      6  C   UNL     1      -4.234   0.822  -0.687  0.00  0.00    +0.024 A 
ATOM      7  C   UNL     1      -2.858   0.938  -0.831  0.00  0.00    +0.038 A 
ATOM      8  C   UNL     1      -2.058  -0.196  -0.772  0.00  0.00    +0.024 A 
ATOM      9  C   UNL     1      -2.634  -1.434  -0.559  0.00  0.00    +0.006 A 
BRANCH   4  11
ATOM     10  C   UNL     1      -4.303  -3.814  -1.373  0.00  0.00    +0.012 C 
ATOM     11  C   UNL     1      -4.629  -2.898  -0.191  0.00  0.00    +0.013 C 
ATOM     12  C   UNL     1      -4.071  -3.509   1.096  0.00  0.00    +0.012 C 
ENDBRANCH   4  11
ENDBRANCH   1   7
BRANCH   2  13
ATOM     13  C   UNL     1      -1.766   4.092  -2.477  0.00  0.00    +0.116 A 
ATOM     14  C   UNL     1      -1.925   4.988  -3.536  0.00  0.00    +0.076 A 
ATOM     15  C   UNL     1      -1.052   6.073  -3.453  0.00  0.00    +0.155 A 
ATOM     16  N   UNL     1      -0.212   6.147  -2.445  0.00  0.00    -0.203 NA
ATOM     17  S   UNL     1      -0.467   4.877  -1.547  0.00  0.00    +0.019 S 
BRANCH  15  18
ATOM     18  C   UNL     1      -1.072   7.126  -4.485  0.00  0.00    +0.262 C 
ATOM     19  O   UNL     1      -1.852   7.051  -5.415  0.00  0.00    -0.269 OA
ATOM     20  N   UNL     1      -0.226   8.172  -4.397  0.00  0.00    -0.324 N 
ATOM     21  H   UNL     1       0.396   8.231  -3.655  0.00  0.00    +0.145 HD
ATOM     22  H   UNL     1      -0.239   8.864  -5.076  0.00  0.00    +0.145 HD
ENDBRANCH  15  18
BRANCH  14  23
ATOM     23  N   UNL     1      -2.848   4.817  -4.559  0.00  0.00    -0.355 N 
ATOM     24  H   UNL     1      -3.429   4.041  -4.564  0.00  0.00    +0.142 HD
ATOM     25  H   UNL     1      -2.912   5.475  -5.269  0.00  0.00    +0.142 HD
ENDBRANCH  14  23
ENDBRANCH   2  13
BRANCH   1  26
ATOM     26  C   UNL     1      -1.451   2.802   0.005  0.00  0.00    +0.204 C 
BRANCH  26  27
ATOM     27  C   UNL     1      -1.278   1.826   1.141  0.00  0.00    +0.019 A 
ATOM     28  C   UNL     1      -0.141   1.438   1.767  0.00  0.00    +0.013 A 
ATOM     29  C   UNL     1      -0.222   0.514   2.793  0.00  0.00    +0.008 A 
ATOM     30  C   UNL     1      -1.436   0.025   3.142  0.00  0.00    +0.045 A 
ATOM     31  S   UNL     1      -2.518   0.875   2.004  0.00  0.00    -0.099 S 
ENDBRANCH  26  27
BRANCH  26  32
ATOM     32  C   UNL     1      -2.122   4.051   0.514  0.00  0.00    +0.239 C 
ATOM     33  O   UNL     1      -3.311   4.215   0.340  0.00  0.00    -0.273 OA
ATOM     34  N   UNL     1      -1.401   4.986   1.164  0.00  0.00    -0.309 N 
ATOM     35  H   UNL     1      -0.451   4.855   1.304  0.00  0.00    +0.149 HD
BRANCH  34  36
ATOM     36  C   UNL     1      -2.054   6.201   1.659  0.00  0.00    +0.026 C 
ATOM     37  C   UNL     1      -3.151   5.821   2.656  0.00  0.00    +0.031 C 
ATOM     38  C   UNL     1      -1.020   7.089   2.353  0.00  0.00    +0.031 C 
ATOM     39  C   UNL     1      -2.674   6.962   0.485  0.00  0.00    +0.031 C 
ENDBRANCH  34  36
ENDBRANCH  26  32
ENDBRANCH   1  26
TORSDOF 9
