REMARK  Name = ZINC02450889
REMARK  6 active torsions:
REMARK  status: ('A' for Active; 'I' for Inactive)
REMARK    1  A    between atoms: C_1  and  C_2
REMARK    2  A    between atoms: N_5  and  C_7
REMARK    3  A    between atoms: C_12  and  C_14
REMARK    4  A    between atoms: C_12  and  C_15
REMARK    5  A    between atoms: C_17  and  O_28
REMARK    6  A    between atoms: C_20  and  C_22
REMARK                            x       y       z     vdW  Elec       q    Type
REMARK                         _______ _______ _______ _____ _____    ______ ____
ROOT
ATOM      1  C   UNL     1      -0.018   1.503   0.010  0.00  0.00    +0.068 C 
ATOM      2  C   UNL     1       0.002  -0.004   0.002  0.00  0.00    +0.067 A 
ATOM      3  C   UNL     1       0.008  -0.815  -1.147  0.00  0.00    +0.036 A 
ATOM      4  C   UNL     1       0.031  -2.120  -0.735  0.00  0.00    +0.160 A 
ATOM      5  N   UNL     1       0.032  -2.099   0.644  0.00  0.00    -0.243 N 
ATOM      6  N   UNL     1       0.023  -0.767   1.058  0.00  0.00    -0.174 NA
ATOM      7  N   UNL     1       0.060  -3.277  -1.418  0.00  0.00    -0.197 NA
ATOM      8  C   UNL     1       0.072  -3.622  -2.623  0.00  0.00    +0.199 C 
ATOM      9  C   UNL     1      -0.004  -2.796  -3.846  0.00  0.00    +0.165 C 
ATOM     10  S   UNL     1       0.901  -1.248  -3.711  0.00  0.00    -0.138 S 
ATOM     11  C   UNL     1      -0.014  -0.247  -2.534  0.00  0.00    +0.112 C 
ENDROOT
BRANCH   5  12
ATOM     12  C   UNL     1       0.045  -3.272   1.522  0.00  0.00    +0.114 C 
ATOM     13  C   UNL     1      -1.203  -3.260   2.410  0.00  0.00    +0.055 C 
ATOM     14  C   UNL     1      -1.142  -4.446   3.377  0.00  0.00    +0.162 C 
ATOM     15  O   UNL     1       0.057  -4.365   4.152  0.00  0.00    -0.374 OA
ATOM     16  C   UNL     1       1.257  -4.419   3.378  0.00  0.00    +0.066 C 
ATOM     17  C   UNL     1       1.293  -3.234   2.409  0.00  0.00    +0.061 C 
ATOM     18  C   UNL     1       1.293  -5.726   2.583  0.00  0.00    +0.041 C 
ATOM     19  C   UNL     1       2.468  -4.354   4.309  0.00  0.00    +0.041 C 
ENDBRANCH   5  12
BRANCH  11  20
ATOM     20  C   UNL     1       0.586   1.136  -2.502  0.00  0.00    -0.030 A 
ATOM     21  C   UNL     1       1.891   1.313  -2.083  0.00  0.00    +0.005 A 
ATOM     22  C   UNL     1       2.441   2.581  -2.054  0.00  0.00    +0.000 A 
ATOM     23  C   UNL     1       1.686   3.671  -2.444  0.00  0.00    +0.000 A 
ATOM     24  C   UNL     1       0.381   3.494  -2.864  0.00  0.00    +0.000 A 
ATOM     25  C   UNL     1      -0.168   2.225  -2.897  0.00  0.00    +0.005 A 
ENDBRANCH  11  20
BRANCH   8  26
ATOM     26  O   UNL     1       0.168  -4.950  -2.835  0.00  0.00    -0.495 OA
ATOM     27  H   UNL     1       0.216  -5.476  -2.025  0.00  0.00    +0.293 HD
ENDBRANCH   8  26
TORSDOF 3
