REMARK  Name = ZINC10002002
REMARK  11 active torsions:
REMARK  status: ('A' for Active; 'I' for Inactive)
REMARK    1  A    between atoms: C_1  and  C_2
REMARK    2  A    between atoms: C_2  and  O_3
REMARK    3  A    between atoms: O_3  and  C_4
REMARK    4  A    between atoms: C_13  and  C_14
REMARK    5  A    between atoms: N_15  and  N_16
REMARK    6  A    between atoms: C_17  and  C_19
REMARK    7  A    between atoms: C_19  and  C_21
REMARK    8  A    between atoms: C_19  and  N_24
REMARK    9  A    between atoms: C_21  and  C_22
REMARK   10  A    between atoms: C_21  and  C_23
REMARK   11  A    between atoms: C_25  and  C_27
REMARK                            x       y       z     vdW  Elec       q    Type
REMARK                         _______ _______ _______ _____ _____    ______ ____
ROOT
ATOM      1  N   UNL     1      -2.572   8.058   0.068  0.00  0.00    -0.205 N 
ATOM      2  C   UNL     1      -2.563   9.405   0.075  0.00  0.00    +0.253 C 
ATOM      3  O   UNL     1      -1.509  10.005   0.068  0.00  0.00    -0.272 OA
ATOM      4  H   UNL     1      -3.416   7.578   0.074  0.00  0.00    +0.177 HD
ENDROOT
BRANCH   1   6
ATOM      5  C   UNL     1      -1.372   6.050   0.046  0.00  0.00    +0.142 C 
ATOM      6  N   UNL     1      -1.364   7.349   0.053  0.00  0.00    -0.188 NA
BRANCH   5  16
ATOM      7  C   UNL     1       1.117   5.981   0.022  0.00  0.00    +0.130 A 
ATOM      8  C   UNL     1       2.316   5.269   0.008  0.00  0.00    +0.047 A 
ATOM      9  C   UNL     1       2.342   3.910   0.001  0.00  0.00    +0.012 A 
ATOM     10  C   UNL     1       1.148   3.168   0.008  0.00  0.00    -0.017 A 
ATOM     11  C   UNL     1       1.163   1.762   0.000  0.00  0.00    +0.008 A 
ATOM     12  C   UNL     1      -0.013   1.076   0.008  0.00  0.00    +0.001 A 
ATOM     13  C   UNL     1      -1.234   1.745   0.017  0.00  0.00    +0.001 A 
ATOM     14  C   UNL     1      -1.286   3.107   0.030  0.00  0.00    +0.009 A 
ATOM     15  C   UNL     1      -0.096   3.845   0.023  0.00  0.00    -0.006 A 
ATOM     16  C   UNL     1      -0.104   5.306   0.030  0.00  0.00    +0.044 A 
BRANCH   7  17
ATOM     17  O   UNL     1       1.138   7.338   0.029  0.00  0.00    -0.492 OA
BRANCH  17  19
ATOM     18  C   UNL     1       2.244   9.487   0.030  0.00  0.00    +0.048 C 
ATOM     19  C   UNL     1       2.421   7.967   0.020  0.00  0.00    +0.226 C 
ENDBRANCH  17  19
ENDBRANCH   7  17
ENDBRANCH   5  16
ENDBRANCH   1   6
BRANCH   2  20
ATOM     20  C   UNL     1      -3.864  10.168   0.091  0.00  0.00    +0.163 C 
BRANCH  20  21
ATOM     21  N   UNL     1      -3.586  11.606   0.096  0.00  0.00    -0.300 N 
ATOM     22  C   UNL     1      -4.493  12.465   0.603  0.00  0.00    +0.245 C 
ATOM     23  O   UNL     1      -5.540  12.047   1.056  0.00  0.00    -0.270 OA
ATOM     24  H   UNL     1      -2.751  11.940  -0.265  0.00  0.00    +0.150 HD
BRANCH  22  25
ATOM     25  C   UNL     1      -4.214  13.915   0.607  0.00  0.00    +0.040 A 
ATOM     26  C   UNL     1      -3.008  14.397   0.092  0.00  0.00    +0.017 A 
ATOM     27  C   UNL     1      -2.751  15.751   0.092  0.00  0.00    +0.050 A 
ATOM     28  C   UNL     1      -3.683  16.639   0.614  0.00  0.00    +0.166 A 
ATOM     29  C   UNL     1      -4.887  16.163   1.135  0.00  0.00    +0.167 A 
ATOM     30  C   UNL     1      -5.152  14.807   1.132  0.00  0.00    +0.062 A 
ATOM     31  O   UNL     1      -5.619  17.226   1.579  0.00  0.00    -0.453 OA
ATOM     32  C   UNL     1      -4.683  18.313   1.700  0.00  0.00    +0.466 C 
ATOM     33  O   UNL     1      -3.664  17.997   0.733  0.00  0.00    -0.453 OA
ENDBRANCH  22  25
ENDBRANCH  20  21
BRANCH  20  34
ATOM     34  C   UNL     1      -4.680   9.809  -1.152  0.00  0.00    +0.012 C 
ATOM     35  C   UNL     1      -6.000  10.583  -1.135  0.00  0.00    +0.009 C 
ATOM     36  C   UNL     1      -3.888  10.180  -2.407  0.00  0.00    +0.009 C 
ENDBRANCH  20  34
ENDBRANCH   2  20
TORSDOF 8
