REMARK  Name = ZINC09800829
REMARK  6 active torsions:
REMARK  status: ('A' for Active; 'I' for Inactive)
REMARK    1  A    between atoms: C_3  and  C_8
REMARK    2  A    between atoms: C_11  and  S_14
REMARK    3  A    between atoms: N_12  and  N_13
REMARK    4  A    between atoms: S_14  and  C_15
REMARK    5  A    between atoms: C_15  and  C_16
REMARK    6  A    between atoms: N_18  and  C_19
REMARK                            x       y       z     vdW  Elec       q    Type
REMARK                         _______ _______ _______ _____ _____    ______ ____
ROOT
ATOM      1  C   UNL     1       3.659   2.160  -0.044  0.00  0.00    +0.182 A 
ATOM      2  N   UNL     1       3.806   3.437  -0.312  0.00  0.00    -0.127 NA
ATOM      3  N   UNL     1       5.046   3.763  -0.224  0.00  0.00    -0.121 NA
ATOM      4  C   UNL     1       5.766   2.714   0.105  0.00  0.00    +0.209 A 
ATOM      5  N   UNL     1       4.909   1.659   0.237  0.00  0.00    -0.224 N 
ENDROOT
BRANCH   1   8
ATOM      6  C   UNL     1      -0.014   1.372  -0.031  0.00  0.00    +0.003 A 
ATOM      7  C   UNL     1       1.169   2.083  -0.035  0.00  0.00    +0.012 A 
ATOM      8  C   UNL     1       2.388   1.404  -0.040  0.00  0.00    +0.023 A 
ATOM      9  C   UNL     1       2.404   0.008  -0.041  0.00  0.00    +0.050 A 
ATOM     10  C   UNL     1       1.213  -0.692  -0.037  0.00  0.00    +0.124 A 
ATOM     11  C   UNL     1       0.006  -0.011  -0.033  0.00  0.00    +0.038 A 
ATOM     12  F   UNL     1       1.224  -2.043  -0.039  0.00  0.00    -0.205 F 
ENDBRANCH   1   8
BRANCH   5  13
ATOM     13  N   UNL     1       5.227   0.375   0.574  0.00  0.00    -0.295 N 
ATOM     14  H   UNL     1       5.433  -0.175  -0.247  0.00  0.00    +0.163 HD
ATOM     15  H   UNL     1       5.997   0.352   1.226  0.00  0.00    +0.163 HD
ENDBRANCH   5  13
BRANCH   4  16
ATOM     16  S   UNL     1       7.512   2.678   0.340  0.00  0.00    -0.075 S 
BRANCH  16  17
ATOM     17  C   UNL     1       8.034   4.386   0.024  0.00  0.00    +0.173 C 
BRANCH  17  18
ATOM     18  C   UNL     1       9.527   4.496   0.193  0.00  0.00    +0.227 C 
ATOM     19  O   UNL     1      10.176   3.517   0.497  0.00  0.00    -0.275 OA
ATOM     20  N   UNL     1      10.141   5.681   0.007  0.00  0.00    -0.285 N 
ATOM     21  H   UNL     1       9.633   6.447  -0.301  0.00  0.00    +0.155 HD
BRANCH  20  22
ATOM     22  C   UNL     1      11.513   5.805   0.258  0.00  0.00    +0.035 A 
ATOM     23  C   UNL     1      12.019   6.986   0.784  0.00  0.00    +0.025 A 
ATOM     24  C   UNL     1      13.373   7.107   1.031  0.00  0.00    +0.023 A 
ATOM     25  C   UNL     1      14.225   6.052   0.755  0.00  0.00    +0.059 A 
ATOM     26  C   UNL     1      13.723   4.873   0.230  0.00  0.00    +0.061 A 
ATOM     27  C   UNL     1      12.368   4.745  -0.014  0.00  0.00    +0.044 A 
ATOM     28 CL   UNL     1      14.795   3.552  -0.116  0.00  0.00    -0.082 Cl
ATOM     29 CL   UNL     1      15.925   6.207   1.067  0.00  0.00    -0.082 Cl
ENDBRANCH  20  22
ENDBRANCH  17  18
ENDBRANCH  16  17
ENDBRANCH   4  16
TORSDOF 6
