REMARK  Name = ZINC45724924
REMARK  9 active torsions:
REMARK  status: ('A' for Active; 'I' for Inactive)
REMARK    1  A    between atoms: C_1  and  C_2
REMARK    2  A    between atoms: C_2  and  O_3
REMARK    3  A    between atoms: O_3  and  C_4
REMARK    4  A    between atoms: C_11  and  C_13
REMARK    5  A    between atoms: C_13  and  C_15
REMARK    6  A    between atoms: C_13  and  N_16
REMARK    7  A    between atoms: N_19  and  C_20
REMARK    8  A    between atoms: C_25  and  C_26
REMARK    9  A    between atoms: C_26  and  C_27
REMARK                            x       y       z     vdW  Elec       q    Type
REMARK                         _______ _______ _______ _____ _____    ______ ____
ROOT
ATOM      1  N   UNL     1       2.685  -1.383   6.283  0.00  0.00    -0.290 N 
ATOM      2  C   UNL     1       2.833  -1.269   7.617  0.00  0.00    +0.304 C 
ATOM      3  O   UNL     1       3.485  -2.093   8.229  0.00  0.00    -0.252 OA
ATOM      4  N   UNL     1       2.257  -0.242   8.274  0.00  0.00    -0.269 N 
ATOM      5  H   UNL     1       2.164  -0.726   5.794  0.00  0.00    +0.151 HD
ATOM      6  H   UNL     1       1.806   0.459   7.778  0.00  0.00    +0.156 HD
ENDROOT
BRANCH   4   7
ATOM      7  C   UNL     1       2.311  -0.187   9.671  0.00  0.00    +0.038 A 
ATOM      8  C   UNL     1       2.467  -1.354  10.408  0.00  0.00    +0.023 A 
ATOM      9  C   UNL     1       2.520  -1.296  11.787  0.00  0.00    +0.002 A 
ATOM     10  C   UNL     1       2.417  -0.079  12.434  0.00  0.00    +0.000 A 
ATOM     11  C   UNL     1       2.260   1.085  11.703  0.00  0.00    +0.006 A 
ATOM     12  C   UNL     1       2.213   1.034  10.323  0.00  0.00    -0.017 A 
BRANCH  12  13
ATOM     13  C   UNL     1       2.049   2.303   9.528  0.00  0.00    +0.132 C 
BRANCH  13  14
ATOM     14  C   UNL     1       0.590   2.517   9.217  0.00  0.00    +0.215 C 
ATOM     15  O   UNL     1      -0.236   1.717   9.604  0.00  0.00    -0.276 OA
ATOM     16  N   UNL     1       0.202   3.596   8.509  0.00  0.00    -0.329 N 
ATOM     17  H   UNL     1       0.862   4.236   8.200  0.00  0.00    +0.145 HD
ATOM     18  H   UNL     1      -0.737   3.733   8.310  0.00  0.00    +0.145 HD
ENDBRANCH  13  14
ENDBRANCH  12  13
ENDBRANCH   4   7
BRANCH   1  19
ATOM     19  C   UNL     1       3.310  -2.500   5.569  0.00  0.00    +0.137 C 
ATOM     20  C   UNL     1       4.758  -2.141   5.231  0.00  0.00    +0.036 C 
BRANCH  19  28
ATOM     21  C   UNL     1       0.748  -1.861   1.325  0.00  0.00    +0.163 A 
ATOM     22  C   UNL     1       0.202  -2.713   0.383  0.00  0.00    +0.049 A 
ATOM     23  C   UNL     1       0.309  -4.088   0.526  0.00  0.00    +0.004 A 
ATOM     24  C   UNL     1       0.964  -4.625   1.612  0.00  0.00    +0.012 A 
ATOM     25  C   UNL     1       1.521  -3.778   2.571  0.00  0.00    +0.024 A 
ATOM     26  C   UNL     1       1.419  -2.386   2.428  0.00  0.00    +0.177 A 
ATOM     27  O   UNL     1       2.046  -1.827   3.484  0.00  0.00    -0.454 OA
ATOM     28  C   UNL     1       2.549  -2.772   4.297  0.00  0.00    +0.126 A 
ATOM     29  C   UNL     1       2.267  -3.991   3.818  0.00  0.00    +0.055 A 
BRANCH  21  30
ATOM     30  O   UNL     1       0.636  -0.515   1.174  0.00  0.00    -0.489 OA
BRANCH  30  32
ATOM     31  C   UNL     1      -0.090   1.482   0.021  0.00  0.00    +0.048 C 
ATOM     32  C   UNL     1      -0.066  -0.048   0.020  0.00  0.00    +0.226 C 
ENDBRANCH  30  32
ENDBRANCH  21  30
ENDBRANCH  19  28
ENDBRANCH   1  19
TORSDOF 7
