REMARK  Name = ZINC17180243
REMARK  10 active torsions:
REMARK  status: ('A' for Active; 'I' for Inactive)
REMARK    1  A    between atoms: C_1  and  C_2
REMARK    2  A    between atoms: C_2  and  C_3
REMARK    3  A    between atoms: C_3  and  C_4
REMARK    4  A    between atoms: C_4  and  C_5
REMARK    5  A    between atoms: C_5  and  C_6
REMARK    6  A    between atoms: C_18  and  C_20
REMARK    7  A    between atoms: C_23  and  C_25
REMARK    8  A    between atoms: C_30  and  N_31
REMARK    9  A    between atoms: C_37  and  C_39
REMARK   10  A    between atoms: C_37  and  C_40
REMARK                            x       y       z     vdW  Elec       q    Type
REMARK                         _______ _______ _______ _____ _____    ______ ____
ROOT
ATOM      1  C   UNL     1      -3.145  -4.030  -1.278  0.00  0.00    +0.221 C 
ATOM      2  O   UNL     1      -4.221  -4.332  -0.806  0.00  0.00    -0.275 OA
ATOM      3  N   UNL     1      -2.931  -2.775  -1.721  0.00  0.00    -0.255 N 
ATOM      4  C   UNL     1      -1.690  -2.438  -2.262  0.00  0.00    +0.058 A 
ATOM      5  C   UNL     1      -0.548  -2.402  -1.477  0.00  0.00    +0.025 A 
ATOM      6  C   UNL     1       0.647  -1.983  -2.034  0.00  0.00    +0.002 A 
ATOM      7  C   UNL     1       0.707  -1.602  -3.362  0.00  0.00    +0.002 A 
ATOM      8  C   UNL     1      -0.426  -1.659  -4.155  0.00  0.00    +0.025 A 
ATOM      9  C   UNL     1      -1.617  -2.098  -3.603  0.00  0.00    +0.053 A 
ATOM     10  N   UNL     1      -2.782  -2.229  -4.352  0.00  0.00    -0.316 N 
ATOM     11  C   UNL     1      -3.918  -1.511  -4.156  0.00  0.00    +0.017 C 
ATOM     12  C   UNL     1      -4.498  -1.297  -2.964  0.00  0.00    +0.040 C 
ATOM     13  C   UNL     1      -3.993  -1.796  -1.631  0.00  0.00    +0.182 C 
ATOM     14  C   UNL     1      -5.691  -0.541  -2.876  0.00  0.00    +0.163 C 
ATOM     15  O   UNL     1      -6.206  -0.381  -1.787  0.00  0.00    -0.292 OA
ATOM     16  C   UNL     1      -6.342   0.070  -4.081  0.00  0.00    +0.086 C 
ATOM     17  C   UNL     1      -5.256   0.362  -5.124  0.00  0.00    -0.023 C 
ATOM     18  C   UNL     1      -4.537  -0.952  -5.427  0.00  0.00    +0.058 C 
ATOM     19  C   UNL     1      -4.261   1.381  -4.565  0.00  0.00    +0.011 C 
ATOM     20  C   UNL     1      -5.897   0.909  -6.401  0.00  0.00    +0.011 C 
ATOM     21  H   UNL     1      -2.828  -2.959  -5.173  0.00  0.00    +0.152 HD
ENDROOT
BRANCH  13  22
ATOM     22  C   UNL     1      -3.488  -0.617  -0.839  0.00  0.00    +0.131 A 
ATOM     23  C   UNL     1      -4.184   0.056   0.098  0.00  0.00    +0.047 A 
ATOM     24  C   UNL     1      -3.340   1.073   0.588  0.00  0.00    +0.050 A 
ATOM     25  C   UNL     1      -2.167   0.970  -0.091  0.00  0.00    +0.137 A 
ATOM     26  O   UNL     1      -2.270  -0.062  -0.951  0.00  0.00    -0.457 OA
BRANCH  25  27
ATOM     27  C   UNL     1      -0.982   1.835   0.088  0.00  0.00    +0.047 A 
ATOM     28  C   UNL     1      -0.390   1.961   1.346  0.00  0.00    +0.014 A 
ATOM     29  C   UNL     1       0.712   2.774   1.507  0.00  0.00    +0.001 A 
ATOM     30  C   UNL     1       1.235   3.460   0.424  0.00  0.00    +0.002 A 
ATOM     31  C   UNL     1       0.656   3.335  -0.826  0.00  0.00    +0.033 A 
ATOM     32  C   UNL     1      -0.447   2.524  -1.001  0.00  0.00    +0.137 A 
BRANCH  32  33
ATOM     33  N   UNL     1      -1.065   2.391  -2.340  0.00  0.00    +0.057 N 
ATOM     34  O   UNL     1      -0.533   2.902  -3.309  0.00  0.00    -0.126 OA
ATOM     35  O   UNL     1      -2.105   1.771  -2.471  0.00  0.00    -0.126 OA
ENDBRANCH  32  33
ENDBRANCH  25  27
ENDBRANCH  13  22
BRANCH   1  36
ATOM     36  C   UNL     1      -2.047  -5.058  -1.367  0.00  0.00    +0.096 C 
BRANCH  36  37
ATOM     37  C   UNL     1      -2.546  -6.388  -0.800  0.00  0.00    +0.009 C 
BRANCH  37  38
ATOM     38  C   UNL     1      -1.431  -7.432  -0.891  0.00  0.00    +0.000 C 
BRANCH  38  40
ATOM     39  C   UNL     1      -0.815  -9.806  -0.415  0.00  0.00    +0.004 C 
ATOM     40  C   UNL     1      -1.930  -8.762  -0.324  0.00  0.00    -0.003 C 
ENDBRANCH  38  40
ENDBRANCH  37  38
ENDBRANCH  36  37
ENDBRANCH   1  36
TORSDOF 7
