REMARK  Name = ZINC01242178
REMARK  13 active torsions:
REMARK  status: ('A' for Active; 'I' for Inactive)
REMARK    1  A    between atoms: C_1  and  C_2
REMARK    2  A    between atoms: C_2  and  O_3
REMARK    3  A    between atoms: O_3  and  C_4
REMARK    4  A    between atoms: C_6  and  C_14
REMARK    5  A    between atoms: C_9  and  O_10
REMARK    6  A    between atoms: O_10  and  C_11
REMARK    7  A    between atoms: C_11  and  C_12
REMARK    8  A    between atoms: C_11  and  C_13
REMARK    9  A    between atoms: C_23  and  C_31
REMARK   10  A    between atoms: C_24  and  N_30
REMARK   11  A    between atoms: C_25  and  C_26
REMARK   12  A    between atoms: C_25  and  C_28
REMARK   13  A    between atoms: C_33  and  C_35
REMARK                            x       y       z     vdW  Elec       q    Type
REMARK                         _______ _______ _______ _____ _____    ______ ____
ROOT
ATOM      1  C   UNL     1      -3.038   7.125   0.724  0.00  0.00    +0.068 C 
ATOM      2  C   UNL     1      -4.222   7.040  -0.240  0.00  0.00    +0.048 C 
ATOM      3  C   UNL     1      -5.146   5.893   0.095  0.00  0.00    +0.117 C 
ATOM      4  N   UNL     1      -6.389   6.371   0.710  0.00  0.00    -0.297 N 
ATOM      5  C   UNL     1      -7.134   7.423  -0.006  0.00  0.00    +0.135 C 
ATOM      6  C   UNL     1      -6.185   8.578  -0.208  0.00  0.00    -0.003 C 
ATOM      7  C   UNL     1      -4.884   8.385  -0.294  0.00  0.00    -0.026 C 
ATOM      8  C   UNL     1      -3.988   9.563  -0.443  0.00  0.00    +0.074 C 
ATOM      9  C   UNL     1      -2.659   9.418  -0.214  0.00  0.00    +0.054 C 
ATOM     10  C   UNL     1      -2.017   8.118   0.165  0.00  0.00    +0.188 C 
ATOM     11  C   UNL     1      -6.831   5.871   1.881  0.00  0.00    +0.213 C 
ATOM     12  O   UNL     1      -6.254   4.938   2.398  0.00  0.00    -0.276 OA
ATOM     13  C   UNL     1      -8.041   6.471   2.548  0.00  0.00    +0.109 C 
ENDROOT
BRANCH   1  16
ATOM     14  C   UNL     1      -1.480   4.035   2.239  0.00  0.00    +0.162 A 
ATOM     15  C   UNL     1      -2.068   5.283   2.112  0.00  0.00    +0.053 A 
ATOM     16  C   UNL     1      -2.399   5.767   0.860  0.00  0.00    -0.037 A 
ATOM     17  C   UNL     1      -2.145   5.008  -0.267  0.00  0.00    +0.008 A 
ATOM     18  C   UNL     1      -1.554   3.764  -0.148  0.00  0.00    +0.050 A 
ATOM     19  C   UNL     1      -1.225   3.271   1.105  0.00  0.00    +0.162 A 
BRANCH  14  20
ATOM     20  O   UNL     1      -1.154   3.557   3.470  0.00  0.00    -0.489 OA
BRANCH  20  22
ATOM     21  C   UNL     1      -1.011   3.696   5.879  0.00  0.00    +0.048 C 
ATOM     22  C   UNL     1      -1.445   4.396   4.590  0.00  0.00    +0.226 C 
ENDBRANCH  20  22
ENDBRANCH  14  20
BRANCH  19  23
ATOM     23  O   UNL     1      -0.648   2.045   1.224  0.00  0.00    -0.486 OA
BRANCH  23  24
ATOM     24  C   UNL     1      -0.522   1.268   0.031  0.00  0.00    +0.167 C 
ATOM     25  C   UNL     1      -0.441  -0.216   0.395  0.00  0.00    +0.051 C 
ATOM     26  C   UNL     1       0.750   1.681  -0.713  0.00  0.00    +0.051 C 
ENDBRANCH  23  24
ENDBRANCH  19  23
ENDBRANCH   1  16
BRANCH   9  27
ATOM     27  N   UNL     1      -1.860  10.521  -0.335  0.00  0.00    -0.358 N 
ATOM     28  H   UNL     1      -0.778  10.438  -0.155  0.00  0.00    +0.142 HD
ATOM     29  H   UNL     1      -2.299  11.491  -0.611  0.00  0.00    +0.142 HD
ENDBRANCH   9  27
BRANCH  10  30
ATOM     30  C   UNL     1      -0.985   8.370   1.184  0.00  0.00    +0.091 C 
ATOM     31  N   UNL     1      -0.189   8.565   1.970  0.00  0.00    -0.194 NA
ENDBRANCH  10  30
BRANCH  10  32
ATOM     32  C   UNL     1      -1.381   7.533  -1.027  0.00  0.00    +0.091 C 
ATOM     33  N   UNL     1      -0.891   7.081  -1.946  0.00  0.00    -0.194 NA
ENDBRANCH  10  32
BRANCH   8  34
ATOM     34  C   UNL     1      -4.523  10.835  -0.825  0.00  0.00    +0.101 C 
ATOM     35  N   UNL     1      -4.947  11.845  -1.127  0.00  0.00    -0.191 NA
ENDBRANCH   8  34
TORSDOF 9
