REMARK  Name = ZINC08619484
REMARK  9 active torsions:
REMARK  status: ('A' for Active; 'I' for Inactive)
REMARK    1  A    between atoms: C_1  and  C_2
REMARK    2  A    between atoms: C_2  and  C_3
REMARK    3  A    between atoms: C_2  and  C_4
REMARK    4  A    between atoms: C_2  and  C_5
REMARK    5  A    between atoms: C_8  and  C_11
REMARK    6  A    between atoms: C_20  and  S_22
REMARK    7  A    between atoms: S_22  and  C_23
REMARK    8  A    between atoms: C_23  and  C_24
REMARK    9  A    between atoms: N_26  and  C_27
REMARK                            x       y       z     vdW  Elec       q    Type
REMARK                         _______ _______ _______ _____ _____    ______ ____
ROOT
ATOM      1  C   UNL     1       2.714  -1.906  -4.710  0.00  0.00    +0.165 A 
ATOM      2  N   UNL     1       3.984  -1.576  -4.910  0.00  0.00    -0.208 NA
ATOM      3  C   UNL     1       4.621  -1.998  -6.006  0.00  0.00    +0.162 A 
ATOM      4  C   UNL     1       5.915  -1.821  -6.480  0.00  0.00    +0.119 A 
ATOM      5  C   UNL     1       6.019  -2.502  -7.695  0.00  0.00    +0.267 A 
ATOM      6  O   UNL     1       7.017  -2.563  -8.394  0.00  0.00    -0.266 OA
ATOM      7  N   UNL     1       4.832  -3.079  -7.963  0.00  0.00    -0.256 N 
ATOM      8  H   UNL     1       4.626  -3.614  -8.746  0.00  0.00    +0.191 HD
ATOM      9  N   UNL     1       3.947  -2.778  -6.924  0.00  0.00    -0.210 N 
ATOM     10  C   UNL     1       2.642  -3.100  -6.689  0.00  0.00    +0.192 A 
ATOM     11  N   UNL     1       2.051  -2.664  -5.587  0.00  0.00    -0.202 NA
ENDROOT
BRANCH   1  15
ATOM     12  C   UNL     1       0.729  -0.542  -1.209  0.00  0.00    -0.042 A 
ATOM     13  C   UNL     1       0.051  -1.327  -2.123  0.00  0.00    +0.005 A 
ATOM     14  C   UNL     1       0.690  -1.773  -3.262  0.00  0.00    +0.012 A 
ATOM     15  C   UNL     1       2.023  -1.430  -3.490  0.00  0.00    +0.019 A 
ATOM     16  C   UNL     1       2.701  -0.638  -2.564  0.00  0.00    +0.012 A 
ATOM     17  C   UNL     1       2.050  -0.194  -1.432  0.00  0.00    +0.005 A 
BRANCH  12  19
ATOM     18  C   UNL     1       0.015   1.472   0.049  0.00  0.00    +0.015 C 
ATOM     19  C   UNL     1       0.025  -0.058   0.033  0.00  0.00    -0.013 C 
ATOM     20  C   UNL     1       0.760  -0.576   1.271  0.00  0.00    +0.015 C 
ATOM     21  C   UNL     1      -1.413  -0.578   0.039  0.00  0.00    +0.015 C 
ENDBRANCH  12  19
ENDBRANCH   1  15
BRANCH  10  22
ATOM     22  S   UNL     1       1.751  -4.094  -7.839  0.00  0.00    -0.077 S 
BRANCH  22  23
ATOM     23  C   UNL     1       0.100  -4.243  -7.104  0.00  0.00    +0.173 C 
BRANCH  23  24
ATOM     24  C   UNL     1      -0.775  -5.081  -8.001  0.00  0.00    +0.228 C 
ATOM     25  O   UNL     1      -0.328  -5.534  -9.034  0.00  0.00    -0.275 OA
ATOM     26  N   UNL     1      -2.054  -5.329  -7.654  0.00  0.00    -0.283 N 
ATOM     27  H   UNL     1      -2.393  -5.022  -6.799  0.00  0.00    +0.155 HD
BRANCH  26  28
ATOM     28  C   UNL     1      -2.894  -6.028  -8.530  0.00  0.00    +0.069 A 
ATOM     29  C   UNL     1      -2.379  -7.040  -9.328  0.00  0.00    +0.026 A 
ATOM     30  C   UNL     1      -3.210  -7.729 -10.190  0.00  0.00    +0.002 A 
ATOM     31  C   UNL     1      -4.554  -7.411 -10.261  0.00  0.00    +0.003 A 
ATOM     32  C   UNL     1      -5.072  -6.403  -9.468  0.00  0.00    +0.040 A 
ATOM     33  C   UNL     1      -4.247  -5.714  -8.598  0.00  0.00    +0.144 A 
ATOM     34  F   UNL     1      -4.754  -4.733  -7.819  0.00  0.00    -0.204 F 
ENDBRANCH  26  28
ENDBRANCH  23  24
ENDBRANCH  22  23
ENDBRANCH  10  22
TORSDOF 6
