REMARK  Name = ZINC14269970
REMARK  8 active torsions:
REMARK  status: ('A' for Active; 'I' for Inactive)
REMARK    1  A    between atoms: C_1  and  O_2
REMARK    2  A    between atoms: O_2  and  C_3
REMARK    3  A    between atoms: C_6  and  N_28
REMARK    4  A    between atoms: C_8  and  N_9
REMARK    5  A    between atoms: N_9  and  C_10
REMARK    6  A    between atoms: C_10  and  N_12
REMARK    7  A    between atoms: C_13  and  C_15
REMARK    8  A    between atoms: C_18  and  C_20
REMARK                            x       y       z     vdW  Elec       q    Type
REMARK                         _______ _______ _______ _____ _____    ______ ____
ROOT
ATOM      1  N   UNL     1      -0.001   0.909  -0.223  0.00  0.00    -0.261 N 
ATOM      2  C   UNL     1      -1.175   1.526  -0.459  0.00  0.00    +0.285 C 
ATOM      3  O   UNL     1      -1.200   2.721  -0.690  0.00  0.00    -0.266 OA
ATOM      4  H   UNL     1       0.019  -0.043  -0.039  0.00  0.00    +0.157 HD
ENDROOT
BRANCH   2   5
ATOM      5  C   UNL     1      -2.422   0.758  -0.440  0.00  0.00    +0.190 A 
ATOM      6  C   UNL     1      -3.686   1.261  -0.664  0.00  0.00    +0.055 A 
ATOM      7  C   UNL     1      -4.573   0.187  -0.549  0.00  0.00    +0.050 A 
ATOM      8  C   UNL     1      -3.828  -0.921  -0.262  0.00  0.00    +0.136 A 
ATOM      9  O   UNL     1      -2.533  -0.566  -0.205  0.00  0.00    -0.450 OA
BRANCH   8  10
ATOM     10  C   UNL     1      -4.356  -2.284  -0.056  0.00  0.00    +0.019 A 
ATOM     11  C   UNL     1      -3.486  -3.338   0.233  0.00  0.00    +0.013 A 
ATOM     12  C   UNL     1      -3.985  -4.609   0.425  0.00  0.00    +0.022 A 
ATOM     13  C   UNL     1      -5.347  -4.843   0.331  0.00  0.00    +0.059 A 
ATOM     14  C   UNL     1      -6.217  -3.802   0.045  0.00  0.00    +0.060 A 
ATOM     15  C   UNL     1      -5.729  -2.524  -0.144  0.00  0.00    +0.033 A 
ATOM     16 CL   UNL     1      -7.922  -4.105  -0.071  0.00  0.00    -0.082 Cl
ATOM     17 CL   UNL     1      -5.968  -6.446   0.573  0.00  0.00    -0.082 Cl
ENDBRANCH   8  10
ENDBRANCH   2   5
BRANCH   1  18
ATOM     18  C   UNL     1       1.148   1.615  -0.246  0.00  0.00    +0.141 C 
ATOM     19  S   UNL     1       1.113   3.296  -0.570  0.00  0.00    -0.018 S 
BRANCH  18  20
ATOM     20  N   UNL     1       2.323   0.998  -0.015  0.00  0.00    -0.294 N 
ATOM     21  H   UNL     1       2.338   0.059   0.230  0.00  0.00    +0.154 HD
BRANCH  20  27
ATOM     22  C   UNL     1       4.590   1.173  -0.845  0.00  0.00    +0.141 A 
ATOM     23  C   UNL     1       5.775   1.883  -0.953  0.00  0.00    +0.050 A 
ATOM     24  C   UNL     1       5.896   3.123  -0.352  0.00  0.00    +0.036 A 
ATOM     25  C   UNL     1       4.838   3.657   0.359  0.00  0.00    +0.128 A 
ATOM     26  C   UNL     1       3.651   2.957   0.468  0.00  0.00    +0.059 A 
ATOM     27  C   UNL     1       3.523   1.711  -0.128  0.00  0.00    +0.077 A 
BRANCH  25  28
ATOM     28  N   UNL     1       4.974   4.984   1.000  0.00  0.00    +0.056 N 
ATOM     29  O   UNL     1       6.017   5.604   0.901  0.00  0.00    -0.126 OA
ATOM     30  O   UNL     1       4.042   5.456   1.627  0.00  0.00    -0.126 OA
ENDBRANCH  25  28
BRANCH  22  32
ATOM     31  C   UNL     1       5.604  -0.534  -2.153  0.00  0.00    +0.277 C 
ATOM     32  O   UNL     1       4.470  -0.045  -1.435  0.00  0.00    -0.493 OA
ENDBRANCH  22  32
ENDBRANCH  20  27
ENDBRANCH  18  20
ENDBRANCH   1  18
TORSDOF 7
