REMARK  Name = ZINC35887637
REMARK  15 active torsions:
REMARK  status: ('A' for Active; 'I' for Inactive)
REMARK    1  A    between atoms: C_1  and  C_2
REMARK    2  A    between atoms: C_2  and  C_3
REMARK    3  A    between atoms: C_2  and  C_4
REMARK    4  A    between atoms: C_4  and  N_5
REMARK    5  A    between atoms: N_5  and  C_6
REMARK    6  A    between atoms: C_6  and  C_7
REMARK    7  A    between atoms: N_10  and  C_22
REMARK    8  A    between atoms: C_12  and  C_14
REMARK    9  A    between atoms: C_18  and  O_20
REMARK   10  A    between atoms: O_20  and  C_21
REMARK   11  A    between atoms: C_22  and  C_23
REMARK   12  A    between atoms: C_26  and  O_31
REMARK   13  A    between atoms: C_27  and  O_29
REMARK   14  A    between atoms: O_29  and  C_30
REMARK   15  A    between atoms: C_32  and  C_34
REMARK                            x       y       z     vdW  Elec       q    Type
REMARK                         _______ _______ _______ _____ _____    ______ ____
ROOT
ATOM      1  C   UNL     1      -3.144  -3.237   1.105  0.00  0.00    -0.005 C 
ATOM      2  C   UNL     1      -3.702  -4.085  -0.066  0.00  0.00    -0.073 C 
ATOM      3  N   UNL     1      -4.849  -4.800   0.549  0.00  0.00    +0.383 N 
ATOM      4  C   UNL     1      -4.409  -5.176   1.910  0.00  0.00    -0.070 C 
ATOM      5  C   UNL     1      -3.314  -4.170   2.326  0.00  0.00    +0.005 C 
ATOM      6  H   UNL     1      -5.652  -4.191   0.599  0.00  0.00    -0.081 HD
ENDROOT
BRANCH   5   7
ATOM      7  C   UNL     1      -3.754  -3.380   3.531  0.00  0.00    -0.042 A 
ATOM      8  C   UNL     1      -4.945  -2.679   3.500  0.00  0.00    +0.004 A 
ATOM      9  C   UNL     1      -5.352  -1.953   4.604  0.00  0.00    +0.004 A 
ATOM     10  C   UNL     1      -4.568  -1.927   5.742  0.00  0.00    +0.045 A 
ATOM     11  C   UNL     1      -3.373  -2.630   5.776  0.00  0.00    +0.120 A 
ATOM     12  C   UNL     1      -2.970  -3.362   4.668  0.00  0.00    +0.049 A 
BRANCH  11  13
ATOM     13  O   UNL     1      -2.600  -2.606   6.893  0.00  0.00    -0.495 OA
ATOM     14  C   UNL     1      -3.080  -1.835   7.997  0.00  0.00    +0.277 C 
ENDBRANCH  11  13
ENDBRANCH   5   7
BRANCH   1  15
ATOM     15  C   UNL     1      -1.668  -2.905   0.878  0.00  0.00    +0.110 C 
BRANCH  15  16
ATOM     16  N   UNL     1      -1.544  -1.973  -0.245  0.00  0.00    -0.297 N 
ATOM     17  C   UNL     1      -1.398  -2.444  -1.499  0.00  0.00    +0.247 C 
ATOM     18  O   UNL     1      -1.372  -3.643  -1.699  0.00  0.00    -0.270 OA
BRANCH  17  19
ATOM     19  C   UNL     1      -1.269  -1.504  -2.631  0.00  0.00    +0.037 A 
ATOM     20  C   UNL     1      -0.663  -0.260  -2.443  0.00  0.00    +0.016 A 
ATOM     21  C   UNL     1      -0.545   0.614  -3.503  0.00  0.00    +0.039 A 
ATOM     22  C   UNL     1      -1.027   0.259  -4.753  0.00  0.00    +0.123 A 
ATOM     23  C   UNL     1      -1.630  -0.975  -4.946  0.00  0.00    +0.039 A 
ATOM     24  C   UNL     1      -1.747  -1.858  -3.894  0.00  0.00    +0.016 A 
ATOM     25  F   UNL     1      -0.910   1.120  -5.788  0.00  0.00    -0.205 F 
ENDBRANCH  17  19
BRANCH  16  26
ATOM     26  C   UNL     1      -1.578  -0.528  -0.004  0.00  0.00    +0.111 C 
BRANCH  26  28
ATOM     27  C   UNL     1      -0.176   1.474   0.514  0.00  0.00    +0.009 C 
ATOM     28  C   UNL     1      -0.198  -0.055   0.457  0.00  0.00    +0.000 C 
ATOM     29  C   UNL     1       0.097  -0.622   1.847  0.00  0.00    +0.009 C 
ENDBRANCH  26  28
ENDBRANCH  16  26
ENDBRANCH  15  16
ENDBRANCH   1  15
BRANCH   3  30
ATOM     30  C   UNL     1      -5.172  -6.003  -0.229  0.00  0.00    -0.043 C 
BRANCH  30  31
ATOM     31  C   UNL     1      -6.412  -6.649   0.335  0.00  0.00    -0.060 A 
ATOM     32  C   UNL     1      -6.302  -7.598   1.334  0.00  0.00    +0.005 A 
ATOM     33  C   UNL     1      -7.436  -8.193   1.854  0.00  0.00    +0.049 A 
ATOM     34  C   UNL     1      -8.687  -7.837   1.375  0.00  0.00    +0.158 A 
ATOM     35  C   UNL     1      -8.798  -6.881   0.370  0.00  0.00    +0.161 A 
ATOM     36  C   UNL     1      -7.657  -6.286  -0.144  0.00  0.00    +0.051 A 
BRANCH  35  37
ATOM     37  O   UNL     1     -10.023  -6.529  -0.103  0.00  0.00    -0.491 OA
ATOM     38  C   UNL     1     -10.060  -5.541  -1.135  0.00  0.00    +0.277 C 
ENDBRANCH  35  37
BRANCH  34  39
ATOM     39  O   UNL     1      -9.804  -8.422   1.886  0.00  0.00    -0.503 OA
ATOM     40  H   UNL     1     -10.180  -7.955   2.645  0.00  0.00    +0.292 HD
ENDBRANCH  34  39
ENDBRANCH  30  31
ENDBRANCH   3  30
TORSDOF 11
