REMARK  Name = ZINC20589221
REMARK  10 active torsions:
REMARK  status: ('A' for Active; 'I' for Inactive)
REMARK    1  A    between atoms: C_1  and  O_2
REMARK    2  A    between atoms: O_2  and  C_3
REMARK    3  A    between atoms: C_6  and  C_9
REMARK    4  A    between atoms: C_9  and  C_10
REMARK    5  A    between atoms: N_12  and  C_13
REMARK    6  A    between atoms: C_13  and  C_15
REMARK    7  A    between atoms: C_13  and  C_19
REMARK    8  A    between atoms: C_15  and  C_16
REMARK    9  A    between atoms: C_16  and  S_17
REMARK   10  A    between atoms: S_17  and  C_18
REMARK                            x       y       z     vdW  Elec       q    Type
REMARK                         _______ _______ _______ _____ _____    ______ ____
ROOT
ATOM      1  C   UNL     1       1.828  -3.796   8.890  0.00  0.00    +0.236 C 
ATOM      2  O   UNL     1       3.031  -3.933   8.831  0.00  0.00    -0.274 OA
ATOM      3  N   UNL     1       1.210  -3.771  10.088  0.00  0.00    -0.300 N 
ATOM      4  C   UNL     1      -0.256  -3.722  10.174  0.00  0.00    +0.110 C 
ATOM      5  C   UNL     1      -0.736  -4.874  11.063  0.00  0.00    +0.047 C 
ATOM      6  C   UNL     1      -0.022  -4.803  12.414  0.00  0.00    +0.064 C 
ATOM      7  C   UNL     1       1.487  -4.944  12.210  0.00  0.00    +0.047 C 
ATOM      8  C   UNL     1       1.990  -3.799  11.333  0.00  0.00    +0.110 C 
ATOM      9  C   UNL     1      -0.519  -5.906  13.310  0.00  0.00    +0.057 A 
ATOM     10  C   UNL     1      -0.836  -5.729  14.613  0.00  0.00    +0.039 A 
ATOM     11  N   UNL     1      -1.241  -6.901  15.102  0.00  0.00    -0.349 N 
ATOM     12  C   UNL     1      -1.188  -7.802  14.155  0.00  0.00    +0.171 A 
ATOM     13  N   UNL     1      -0.740  -7.215  13.020  0.00  0.00    -0.348 N 
ATOM     14  H   UNL     1      -0.603  -7.648  12.163  0.00  0.00    +0.166 HD
ATOM     15  C   UNL     1      -0.718  -4.398  15.314  0.00  0.00    +0.070 C 
ATOM     16  C   UNL     1       0.163  -3.486  14.448  0.00  0.00    +0.088 C 
ATOM     17  N   UNL     1      -0.314  -3.512  13.058  0.00  0.00    -0.305 NA
ATOM     18  H   UNL     1       0.076  -2.747  12.527  0.00  0.00    +0.123 HD
ATOM     19  H   UNL     1      -1.529  -7.060  16.015  0.00  0.00    +0.166 HD
ENDROOT
BRANCH   1  20
ATOM     20  C   UNL     1       1.022  -3.654   7.624  0.00  0.00    +0.160 C 
BRANCH  20  23
ATOM     21  C   UNL     1       1.306  -2.414   5.547  0.00  0.00    +0.218 C 
ATOM     22  O   UNL     1       0.103  -2.273   5.500  0.00  0.00    -0.275 OA
ATOM     23  N   UNL     1       1.867  -3.090   6.569  0.00  0.00    -0.304 N 
ATOM     24  H   UNL     1       2.830  -3.202   6.606  0.00  0.00    +0.149 HD
BRANCH  21  25
ATOM     25  C   UNL     1       2.175  -1.833   4.461  0.00  0.00    +0.130 C 
BRANCH  25  29
ATOM     26  C   UNL     1      -0.280   0.153   1.581  0.00  0.00    +0.120 A 
ATOM     27  C   UNL     1       0.215   0.852   2.673  0.00  0.00    +0.046 A 
ATOM     28  C   UNL     1       1.008   0.208   3.602  0.00  0.00    +0.007 A 
ATOM     29  C   UNL     1       1.309  -1.133   3.445  0.00  0.00    -0.038 A 
ATOM     30  C   UNL     1       0.818  -1.831   2.358  0.00  0.00    +0.007 A 
ATOM     31  C   UNL     1       0.019  -1.193   1.429  0.00  0.00    +0.046 A 
BRANCH  26  33
ATOM     32  C   UNL     1      -1.327   2.171   0.886  0.00  0.00    +0.277 C 
ATOM     33  O   UNL     1      -1.060   0.785   0.666  0.00  0.00    -0.495 OA
ENDBRANCH  26  33
ENDBRANCH  25  29
ENDBRANCH  21  25
ENDBRANCH  20  23
BRANCH  20  34
ATOM     34  C   UNL     1       0.512  -5.029   7.188  0.00  0.00    +0.042 C 
BRANCH  34  35
ATOM     35  C   UNL     1      -0.423  -4.868   5.987  0.00  0.00    +0.071 C 
BRANCH  35  36
ATOM     36  S   UNL     1      -1.028  -6.498   5.470  0.00  0.00    -0.164 S 
ATOM     37  C   UNL     1      -2.107  -6.137   4.057  0.00  0.00    +0.084 C 
ENDBRANCH  35  36
ENDBRANCH  34  35
ENDBRANCH  20  34
ENDBRANCH   1  20
TORSDOF 8
