REMARK  Name = ZINC59858639
REMARK  10 active torsions:
REMARK  status: ('A' for Active; 'I' for Inactive)
REMARK    1  A    between atoms: C_1  and  C_2
REMARK    2  A    between atoms: C_6  and  N_8
REMARK    3  A    between atoms: C_12  and  N_13
REMARK    4  A    between atoms: N_13  and  C_14
REMARK    5  A    between atoms: C_15  and  C_28
REMARK    6  A    between atoms: N_17  and  C_20
REMARK    7  A    between atoms: C_18  and  C_19
REMARK    8  A    between atoms: C_23  and  C_27
REMARK    9  A    between atoms: C_24  and  C_26
REMARK   10  A    between atoms: C_29  and  C_31
REMARK                            x       y       z     vdW  Elec       q    Type
REMARK                         _______ _______ _______ _____ _____    ______ ____
ROOT
ATOM      1  N   UNL     1      -0.410  -6.859   3.913  0.00  0.00    -0.317 N 
ATOM      2  H   UNL     1      -0.590  -6.786   2.963  0.00  0.00    +0.152 HD
ENDROOT
BRANCH   1   7
ATOM      3  N   UNL     1      -1.459  -2.934   2.707  0.00  0.00    -0.156 N 
ATOM      4  C   UNL     1      -1.151  -4.246   2.752  0.00  0.00    +0.273 C 
ATOM      5  O   UNL     1      -1.083  -5.017   1.809  0.00  0.00    -0.268 OA
ATOM      6  C   UNL     1      -0.912  -4.559   4.166  0.00  0.00    +0.075 C 
ATOM      7  C   UNL     1      -0.565  -5.784   4.712  0.00  0.00    +0.087 C 
ATOM      8  C   UNL     1      -1.122  -3.289   4.876  0.00  0.00    +0.070 C 
ATOM      9  N   UNL     1      -1.429  -2.390   3.990  0.00  0.00    -0.176 NA
ATOM     10  C   UNL     1      -0.999  -3.068   6.362  0.00  0.00    +0.068 C 
BRANCH   3  16
ATOM     11  C   UNL     1      -2.681   1.305   0.533  0.00  0.00    +0.044 C 
ATOM     12  C   UNL     1      -2.356  -0.165   0.458  0.00  0.00    -0.049 A 
ATOM     13  C   UNL     1      -2.355  -0.810  -0.765  0.00  0.00    +0.003 A 
ATOM     14  C   UNL     1      -2.058  -2.159  -0.839  0.00  0.00    +0.002 A 
ATOM     15  C   UNL     1      -1.761  -2.865   0.310  0.00  0.00    +0.025 A 
ATOM     16  C   UNL     1      -1.760  -2.220   1.540  0.00  0.00    +0.061 A 
ATOM     17  C   UNL     1      -2.054  -0.865   1.610  0.00  0.00    +0.028 A 
ENDBRANCH   3  16
ENDBRANCH   1   7
BRANCH   1  18
ATOM     18  C   UNL     1       0.011  -8.083   4.458  0.00  0.00    +0.075 A 
ATOM     19  C   UNL     1       0.641  -8.264   5.699  0.00  0.00    +0.082 A 
ATOM     20  N   UNL     1       0.880  -9.540   5.858  0.00  0.00    -0.170 NA
ATOM     21  N   UNL     1       0.411 -10.222   4.728  0.00  0.00    -0.235 N 
ATOM     22  C   UNL     1      -0.126  -9.305   3.879  0.00  0.00    +0.063 A 
ATOM     23  C   UNL     1      -0.754  -9.591   2.540  0.00  0.00    +0.068 C 
ATOM     24  C   UNL     1       0.986  -7.173   6.680  0.00  0.00    +0.069 C 
BRANCH  21  25
ATOM     25  C   UNL     1       0.479 -11.605   4.513  0.00  0.00    +0.066 A 
ATOM     26  C   UNL     1       0.198 -12.486   5.549  0.00  0.00    +0.028 A 
ATOM     27  C   UNL     1       0.265 -13.848   5.334  0.00  0.00    +0.006 A 
ATOM     28  C   UNL     1       0.612 -14.336   4.087  0.00  0.00    -0.047 A 
ATOM     29  C   UNL     1       0.892 -13.462   3.053  0.00  0.00    -0.046 A 
ATOM     30  C   UNL     1       0.821 -12.098   3.261  0.00  0.00    +0.031 A 
ATOM     31  C   UNL     1       1.270 -13.998   1.696  0.00  0.00    +0.044 C 
ATOM     32  C   UNL     1       0.684 -15.823   3.855  0.00  0.00    +0.044 C 
ENDBRANCH  21  25
ENDBRANCH   1  18
TORSDOF 4
