REMARK  Name = ZINC20530105
REMARK  9 active torsions:
REMARK  status: ('A' for Active; 'I' for Inactive)
REMARK    1  A    between atoms: C_4  and  S_7
REMARK    2  A    between atoms: S_7  and  N_10
REMARK    3  A    between atoms: N_10  and  C_11
REMARK    4  A    between atoms: C_11  and  C_12
REMARK    5  A    between atoms: N_14  and  N_15
REMARK    6  A    between atoms: C_16  and  C_17
REMARK    7  A    between atoms: C_22  and  O_23
REMARK    8  A    between atoms: O_23  and  C_24
REMARK    9  A    between atoms: C_24  and  C_25
REMARK                            x       y       z     vdW  Elec       q    Type
REMARK                         _______ _______ _______ _____ _____    ______ ____
ROOT
ATOM      1  N   UNL     1      -1.889  -1.784   5.795  0.00  0.00    -0.188 NA
ATOM      2  C   UNL     1      -2.805  -1.702   6.711  0.00  0.00    +0.142 C 
ENDROOT
BRANCH   2   3
ATOM      3  C   UNL     1      -2.712  -2.534   7.924  0.00  0.00    +0.036 A 
ATOM      4  C   UNL     1      -3.692  -2.445   8.914  0.00  0.00    +0.013 A 
ATOM      5  C   UNL     1      -3.602  -3.230  10.044  0.00  0.00    +0.001 A 
ATOM      6  C   UNL     1      -2.536  -4.099  10.207  0.00  0.00    +0.004 A 
ATOM      7  C   UNL     1      -1.556  -4.193   9.236  0.00  0.00    +0.046 A 
ATOM      8  C   UNL     1      -1.635  -3.416   8.092  0.00  0.00    +0.130 A 
BRANCH   8   9
ATOM      9  O   UNL     1      -0.673  -3.507   7.138  0.00  0.00    -0.487 OA
BRANCH   9  10
ATOM     10  C   UNL     1       0.394  -4.427   7.379  0.00  0.00    +0.264 C 
BRANCH  10  11
ATOM     11  C   UNL     1       1.358  -4.392   6.221  0.00  0.00    -0.010 A 
ATOM     12  C   UNL     1       1.180  -5.245   5.148  0.00  0.00    +0.008 A 
ATOM     13  C   UNL     1       2.061  -5.211   4.084  0.00  0.00    +0.015 A 
ATOM     14  C   UNL     1       3.127  -4.329   4.097  0.00  0.00    +0.018 A 
ATOM     15  C   UNL     1       3.308  -3.479   5.173  0.00  0.00    +0.015 A 
ATOM     16  C   UNL     1       2.423  -3.511   6.235  0.00  0.00    +0.008 A 
ATOM     17 BR   UNL     1       4.337  -4.285   2.644  0.00  0.00    -0.050 Br
ENDBRANCH  10  11
ENDBRANCH   9  10
ENDBRANCH   8   9
ENDBRANCH   2   3
BRANCH   1  20
ATOM     18  C   UNL     1      -1.026  -1.078   3.692  0.00  0.00    +0.248 C 
ATOM     19  O   UNL     1      -0.093  -1.840   3.834  0.00  0.00    -0.273 OA
ATOM     20  N   UNL     1      -1.978  -0.993   4.643  0.00  0.00    -0.206 N 
ATOM     21  H   UNL     1      -2.824  -0.302   4.514  0.00  0.00    +0.177 HD
BRANCH  18  22
ATOM     22  C   UNL     1      -1.122  -0.227   2.452  0.00  0.00    +0.203 C 
BRANCH  22  23
ATOM     23  N   UNL     1       0.024  -0.502   1.581  0.00  0.00    -0.181 NA
ATOM     24  H   UNL     1       0.960  -0.889   2.010  0.00  0.00    +0.149 HD
BRANCH  23  25
ATOM     25  S   UNL     1       0.002  -0.004   0.002  0.00  0.00    +0.059 S 
ATOM     26  O   UNL     1      -1.243  -0.424  -0.539  0.00  0.00    -0.153 OA
ATOM     27  O   UNL     1       1.248  -0.390  -0.563  0.00  0.00    -0.153 OA
BRANCH  25  31
ATOM     28  C   UNL     1      -0.059   4.522   0.026  0.00  0.00    +0.000 A 
ATOM     29  C   UNL     1       1.147   3.847   0.011  0.00  0.00    +0.002 A 
ATOM     30  C   UNL     1       1.166   2.465   0.004  0.00  0.00    +0.028 A 
ATOM     31  C   UNL     1      -0.022   1.758   0.012  0.00  0.00    +0.105 A 
ATOM     32  C   UNL     1      -1.228   2.433   0.021  0.00  0.00    +0.028 A 
ATOM     33  C   UNL     1      -1.247   3.815   0.034  0.00  0.00    +0.002 A 
ENDBRANCH  25  31
ENDBRANCH  23  25
ENDBRANCH  22  23
ENDBRANCH  18  22
ENDBRANCH   1  20
TORSDOF 9
