REMARK  Name = ZINC21219850
REMARK  11 active torsions:
REMARK  status: ('A' for Active; 'I' for Inactive)
REMARK    1  A    between atoms: C_1  and  C_2
REMARK    2  A    between atoms: C_2  and  C_3
REMARK    3  A    between atoms: C_3  and  C_5
REMARK    4  A    between atoms: C_3  and  O_6
REMARK    5  A    between atoms: O_6  and  C_7
REMARK    6  A    between atoms: C_10  and  C_13
REMARK    7  A    between atoms: C_18  and  C_23
REMARK    8  A    between atoms: C_26  and  O_31
REMARK    9  A    between atoms: C_27  and  O_29
REMARK   10  A    between atoms: O_29  and  C_30
REMARK   11  A    between atoms: O_31  and  C_32
REMARK                            x       y       z     vdW  Elec       q    Type
REMARK                         _______ _______ _______ _____ _____    ______ ____
ROOT
ATOM      1  C   UNL     1      -9.091  -3.862  -0.004  0.00  0.00    +0.136 C 
ATOM      2  C   UNL     1      -7.789  -3.100  -0.079  0.00  0.00    +0.036 C 
ATOM      3  C   UNL     1      -7.008  -2.769   0.963  0.00  0.00    +0.017 C 
ATOM      4  C   UNL     1      -5.717  -1.999   0.743  0.00  0.00    +0.059 C 
ATOM      5  C   UNL     1      -5.108  -2.377  -0.606  0.00  0.00    +0.032 C 
ATOM      6  C   UNL     1      -6.129  -2.025  -1.694  0.00  0.00    +0.088 C 
ATOM      7  C   UNL     1      -7.410  -2.744  -1.395  0.00  0.00    +0.163 C 
ATOM      8  O   UNL     1      -8.149  -3.033  -2.316  0.00  0.00    -0.292 OA
ATOM      9  N   UNL     1      -7.280  -3.055   2.263  0.00  0.00    -0.316 N 
ATOM     10  C   UNL     1      -7.698  -4.297   2.734  0.00  0.00    +0.052 A 
ATOM     11  C   UNL     1      -6.950  -5.039   3.631  0.00  0.00    +0.025 A 
ATOM     12  C   UNL     1      -7.463  -6.228   4.121  0.00  0.00    +0.002 A 
ATOM     13  C   UNL     1      -8.710  -6.667   3.716  0.00  0.00    +0.002 A 
ATOM     14  C   UNL     1      -9.449  -5.937   2.801  0.00  0.00    +0.025 A 
ATOM     15  C   UNL     1      -8.930  -4.755   2.293  0.00  0.00    +0.049 A 
ATOM     16  N   UNL     1      -9.617  -4.016   1.335  0.00  0.00    -0.331 N 
ATOM     17  H   UNL     1      -7.176  -2.275   3.031  0.00  0.00    +0.152 HD
ATOM     18  H   UNL     1     -10.573  -3.545   1.608  0.00  0.00    +0.147 HD
ENDROOT
BRANCH   1  22
ATOM     19  C   UNL     1      -8.483  -7.750  -1.669  0.00  0.00    +0.121 A 
ATOM     20  C   UNL     1      -9.363  -6.865  -2.275  0.00  0.00    +0.046 A 
ATOM     21  C   UNL     1      -9.558  -5.609  -1.735  0.00  0.00    +0.009 A 
ATOM     22  C   UNL     1      -8.877  -5.233  -0.592  0.00  0.00    -0.023 A 
ATOM     23  C   UNL     1      -7.995  -6.112   0.011  0.00  0.00    +0.009 A 
ATOM     24  C   UNL     1      -7.801  -7.371  -0.522  0.00  0.00    +0.046 A 
BRANCH  19  25
ATOM     25  O   UNL     1      -8.290  -8.987  -2.199  0.00  0.00    -0.489 OA
BRANCH  25  26
ATOM     26  C   UNL     1      -8.928  -9.265  -3.447  0.00  0.00    +0.170 C 
ATOM     27  C   UNL     1     -10.363  -9.733  -3.192  0.00  0.00    +0.052 C 
BRANCH  26  29
ATOM     28  C   UNL     1      -6.762  -9.850  -4.546  0.00  0.00    +0.007 C 
ATOM     29  C   UNL     1      -8.156 -10.363  -4.181  0.00  0.00    +0.041 C 
ENDBRANCH  26  29
ENDBRANCH  25  26
ENDBRANCH  19  25
ENDBRANCH   1  22
BRANCH   5  30
ATOM     30  C   UNL     1      -3.836  -1.599  -0.829  0.00  0.00    -0.040 A 
ATOM     31  C   UNL     1      -3.869  -0.217  -0.857  0.00  0.00    +0.008 A 
ATOM     32  C   UNL     1      -2.706   0.501  -1.060  0.00  0.00    +0.049 A 
ATOM     33  C   UNL     1      -1.503  -0.164  -1.236  0.00  0.00    +0.161 A 
ATOM     34  C   UNL     1      -1.470  -1.555  -1.213  0.00  0.00    +0.162 A 
ATOM     35  C   UNL     1      -2.640  -2.269  -1.003  0.00  0.00    +0.053 A 
BRANCH  34  36
ATOM     36  O   UNL     1      -0.293  -2.212  -1.391  0.00  0.00    -0.491 OA
ATOM     37  C   UNL     1      -0.336  -3.640  -1.355  0.00  0.00    +0.277 C 
ENDBRANCH  34  36
BRANCH  33  38
ATOM     38  O   UNL     1      -0.357   0.541  -1.436  0.00  0.00    -0.491 OA
ATOM     39  C   UNL     1      -0.467   1.966  -1.453  0.00  0.00    +0.277 C 
ENDBRANCH  33  38
ENDBRANCH   5  30
TORSDOF 7
