REMARK  Name = ZINC09130081
REMARK  2 active torsions:
REMARK  status: ('A' for Active; 'I' for Inactive)
REMARK    1  A    between atoms: C_1  and  N_2
REMARK    2  A    between atoms: C_8  and  C_18
REMARK                            x       y       z     vdW  Elec       q    Type
REMARK                         _______ _______ _______ _____ _____    ______ ____
ROOT
ATOM      1  C   UNL     1       7.480   0.473  -4.945  0.00  0.00    +0.143 C 
ATOM      2  N   UNL     1       6.099   0.175  -4.557  0.00  0.00    -0.225 N 
ATOM      3  C   UNL     1       5.774   0.146  -3.249  0.00  0.00    +0.260 C 
ATOM      4  O   UNL     1       6.610   0.363  -2.392  0.00  0.00    -0.269 OA
ATOM      5  C   UNL     1       4.379  -0.161  -2.884  0.00  0.00    +0.116 C 
ATOM      6  C   UNL     1       3.973  -0.213  -1.562  0.00  0.00    +0.027 C 
ATOM      7  C   UNL     1       2.506  -0.091  -1.345  0.00  0.00    +0.071 C 
ATOM      8  C   UNL     1       2.175   0.720  -0.125  0.00  0.00    +0.087 C 
ATOM      9  S   UNL     1       2.509  -0.120   1.415  0.00  0.00    -0.115 S 
ATOM     10  C   UNL     1       4.239  -0.158   1.657  0.00  0.00    +0.030 A 
ATOM     11  C   UNL     1       4.685  -0.075   2.984  0.00  0.00    +0.016 A 
ATOM     12  C   UNL     1       6.023  -0.094   3.298  0.00  0.00    +0.001 A 
ATOM     13  C   UNL     1       6.957  -0.195   2.283  0.00  0.00    +0.002 A 
ATOM     14  C   UNL     1       6.536  -0.277   0.978  0.00  0.00    +0.024 A 
ATOM     15  C   UNL     1       5.172  -0.262   0.638  0.00  0.00    +0.045 A 
ATOM     16  N   UNL     1       4.920  -0.359  -0.704  0.00  0.00    -0.316 N 
ATOM     17  C   UNL     1       3.435  -0.404  -3.989  0.00  0.00    +0.258 C 
ATOM     18  O   UNL     1       2.266  -0.659  -3.767  0.00  0.00    -0.270 OA
ATOM     19  N   UNL     1       3.901  -0.337  -5.253  0.00  0.00    -0.235 N 
ATOM     20  C   UNL     1       5.186  -0.058  -5.511  0.00  0.00    +0.315 C 
ATOM     21  O   UNL     1       5.543  -0.012  -6.672  0.00  0.00    -0.252 OA
ATOM     22  H   UNL     1       5.922  -0.667  -1.037  0.00  0.00    +0.152 HD
ATOM     23  H   UNL     1       3.222  -0.514  -6.099  0.00  0.00    +0.159 HD
ENDROOT
BRANCH   8  24
ATOM     24  C   UNL     1       0.712   1.079  -0.170  0.00  0.00    -0.030 A 
ATOM     25  C   UNL     1      -0.245   0.084  -0.102  0.00  0.00    +0.008 A 
ATOM     26  C   UNL     1      -1.588   0.407  -0.148  0.00  0.00    +0.050 A 
ATOM     27  C   UNL     1      -1.979   1.733  -0.250  0.00  0.00    +0.166 A 
ATOM     28  C   UNL     1      -1.015   2.736  -0.318  0.00  0.00    +0.167 A 
ATOM     29  C   UNL     1       0.330   2.403  -0.277  0.00  0.00    +0.054 A 
ATOM     30  O   UNL     1      -1.646   3.942  -0.419  0.00  0.00    -0.453 OA
ATOM     31  C   UNL     1      -2.994   3.637  -0.824  0.00  0.00    +0.466 C 
ATOM     32  O   UNL     1      -3.214   2.310  -0.309  0.00  0.00    -0.453 OA
ENDBRANCH   8  24
TORSDOF 1
