REMARK  Name = ZINC14879930
REMARK  10 active torsions:
REMARK  status: ('A' for Active; 'I' for Inactive)
REMARK    1  A    between atoms: C_1  and  O_2
REMARK    2  A    between atoms: O_2  and  C_3
REMARK    3  A    between atoms: C_3  and  C_4
REMARK    4  A    between atoms: C_4  and  N_5
REMARK    5  A    between atoms: C_8  and  C_12
REMARK    6  A    between atoms: C_8  and  C_20
REMARK    7  A    between atoms: C_12  and  C_13
REMARK    8  A    between atoms: C_25  and  C_26
REMARK    9  A    between atoms: C_25  and  N_63
REMARK   10  A    between atoms: C_29  and  O_32
REMARK                            x       y       z     vdW  Elec       q    Type
REMARK                         _______ _______ _______ _____ _____    ______ ____
ROOT
ATOM      1  N   UNL     1      -0.670   3.054  -1.286  0.00  0.00    -0.222 N 
ATOM      2  C   UNL     1       0.314   3.734  -1.907  0.00  0.00    +0.247 C 
ATOM      3  O   UNL     1       1.263   3.269  -2.502  0.00  0.00    -0.273 OA
ATOM      4  C   UNL     1      -0.011   5.201  -1.706  0.00  0.00    +0.119 C 
ATOM      5  N   UNL     1      -1.257   5.175  -0.921  0.00  0.00    -0.284 N 
ATOM      6  C   UNL     1      -1.565   3.879  -0.731  0.00  0.00    +0.309 C 
ATOM      7  O   UNL     1      -2.544   3.500  -0.119  0.00  0.00    -0.252 OA
ATOM      8  H   UNL     1      -1.760   5.942  -0.607  0.00  0.00    +0.151 HD
ENDROOT
BRANCH   4   9
ATOM      9  C   UNL     1      -0.236   5.892  -3.052  0.00  0.00    +0.018 C 
ATOM     10  C   UNL     1      -0.583   7.365  -2.820  0.00  0.00    -0.013 C 
ATOM     11  C   UNL     1      -0.869   8.035  -4.165  0.00  0.00    -0.078 C 
ATOM     12  C   UNL     1      -1.655   5.945  -5.106  0.00  0.00    -0.078 C 
ATOM     13  C   UNL     1      -1.394   5.212  -3.788  0.00  0.00    -0.013 C 
ATOM     14  N   UNL     1      -2.008   7.351  -4.812  0.00  0.00    +0.382 N 
ATOM     15  H   UNL     1      -2.811   7.365  -4.172  0.00  0.00    -0.081 HD
BRANCH  14  16
ATOM     16  C   UNL     1      -2.376   8.050  -6.060  0.00  0.00    -0.043 C 
BRANCH  16  17
ATOM     17  C   UNL     1      -2.467   9.530  -5.788  0.00  0.00    -0.064 A 
ATOM     18  C   UNL     1      -3.664  10.083  -5.373  0.00  0.00    +0.005 A 
ATOM     19  C   UNL     1      -3.749  11.438  -5.117  0.00  0.00    +0.045 A 
ATOM     20  C   UNL     1      -2.634  12.246  -5.288  0.00  0.00    +0.117 A 
ATOM     21  C   UNL     1      -1.435  11.689  -5.710  0.00  0.00    +0.045 A 
ATOM     22  C   UNL     1      -1.354  10.333  -5.959  0.00  0.00    +0.005 A 
BRANCH  20  23
ATOM     23  O   UNL     1      -2.716  13.580  -5.042  0.00  0.00    -0.507 OA
ATOM     24  H   UNL     1      -2.971  14.106  -5.812  0.00  0.00    +0.292 HD
ENDBRANCH  20  23
ENDBRANCH  16  17
ENDBRANCH  14  16
ENDBRANCH   4   9
BRANCH   1  25
ATOM     25  C   UNL     1      -0.753   1.593  -1.232  0.00  0.00    +0.146 C 
BRANCH  25  26
ATOM     26  C   UNL     1      -0.013   1.086   0.008  0.00  0.00    +0.179 C 
BRANCH  26  28
ATOM     27  C   UNL     1      -0.068   1.127   2.404  0.00  0.00    +0.194 C 
ATOM     28  O   UNL     1      -0.682   1.547   1.184  0.00  0.00    -0.381 OA
ENDBRANCH  26  28
ENDBRANCH  25  26
ENDBRANCH   1  25
BRANCH   4  29
ATOM     29  C   UNL     1       1.104   5.897  -0.923  0.00  0.00    +0.070 C 
BRANCH  29  30
ATOM     30  C   UNL     1       1.267   5.230   0.419  0.00  0.00    -0.045 A 
ATOM     31  C   UNL     1       0.544   5.681   1.507  0.00  0.00    +0.006 A 
ATOM     32  C   UNL     1       0.689   5.067   2.737  0.00  0.00    +0.038 A 
ATOM     33  C   UNL     1       1.567   4.006   2.881  0.00  0.00    +0.123 A 
ATOM     34  C   UNL     1       2.295   3.558   1.792  0.00  0.00    +0.038 A 
ATOM     35  C   UNL     1       2.144   4.170   0.562  0.00  0.00    +0.006 A 
ATOM     36  F   UNL     1       1.713   3.409   4.084  0.00  0.00    -0.205 F 
ENDBRANCH  29  30
ENDBRANCH   4  29
TORSDOF 9
