REMARK  Name = ZINC13008007
REMARK  8 active torsions:
REMARK  status: ('A' for Active; 'I' for Inactive)
REMARK    1  A    between atoms: C_1  and  N_2
REMARK    2  A    between atoms: C_9  and  C_11
REMARK    3  A    between atoms: C_11  and  C_13
REMARK    4  A    between atoms: C_11  and  N_61
REMARK    5  A    between atoms: C_13  and  N_14
REMARK    6  A    between atoms: C_15  and  C_17
REMARK    7  A    between atoms: N_19  and  C_20
REMARK    8  A    between atoms: C_25  and  C_26
REMARK                            x       y       z     vdW  Elec       q    Type
REMARK                         _______ _______ _______ _____ _____    ______ ____
ROOT
ATOM      1  C   UNL     1       4.508   9.630  -0.390  0.00  0.00    -0.020 C 
ENDROOT
BRANCH   1  10
ATOM      2  C   UNL     1      10.457  11.950   0.612  0.00  0.00    +0.129 C 
ATOM      3  N   UNL     1       9.350  12.568  -0.130  0.00  0.00    -0.332 N 
ATOM      4  C   UNL     1       9.682  12.700  -1.565  0.00  0.00    +0.109 C 
ATOM      5  C   UNL     1       8.300  12.568  -2.245  0.00  0.00    +0.056 C 
ATOM      6  C   UNL     1       7.505  11.761  -1.238  0.00  0.00    -0.025 A 
ATOM      7  C   UNL     1       8.185  11.799  -0.027  0.00  0.00    +0.033 A 
ATOM      8  C   UNL     1       7.657  11.116   1.068  0.00  0.00    +0.023 A 
ATOM      9  C   UNL     1       6.471  10.423   0.947  0.00  0.00    +0.004 A 
ATOM     10  C   UNL     1       5.802  10.391  -0.263  0.00  0.00    -0.059 A 
ATOM     11  C   UNL     1       6.321  11.063  -1.355  0.00  0.00    +0.007 A 
ENDBRANCH   1  10
BRANCH   1  17
ATOM     12  C   UNL     1       3.577  11.766   0.267  0.00  0.00    -0.078 C 
ATOM     13  C   UNL     1       2.392  12.433   0.969  0.00  0.00    -0.019 C 
ATOM     14  C   UNL     1       2.385  12.026   2.445  0.00  0.00    -0.004 C 
ATOM     15  C   UNL     1       2.315  10.499   2.545  0.00  0.00    -0.019 C 
ATOM     16  C   UNL     1       3.502   9.889   1.797  0.00  0.00    -0.078 C 
ATOM     17  N   UNL     1       3.437  10.299   0.378  0.00  0.00    +0.385 N 
ATOM     18  H   UNL     1       2.527  10.021  -0.007  0.00  0.00    -0.081 HD
ENDBRANCH   1  17
BRANCH   1  19
ATOM     19  C   UNL     1       4.698   8.207   0.140  0.00  0.00    +0.094 C 
BRANCH  19  20
ATOM     20  N   UNL     1       3.458   7.449  -0.042  0.00  0.00    -0.309 N 
ATOM     21  C   UNL     1       3.359   6.194   0.440  0.00  0.00    +0.299 C 
ATOM     22  O   UNL     1       4.296   5.693   1.024  0.00  0.00    -0.265 OA
ATOM     23  H   UNL     1       2.708   7.849  -0.510  0.00  0.00    +0.149 HD
BRANCH  21  24
ATOM     24  C   UNL     1       2.095   5.420   0.254  0.00  0.00    +0.303 C 
ATOM     25  O   UNL     1       1.157   5.922  -0.331  0.00  0.00    -0.265 OA
ATOM     26  N   UNL     1       1.995   4.166   0.736  0.00  0.00    -0.277 N 
ATOM     27  H   UNL     1       2.714   3.793   1.270  0.00  0.00    +0.155 HD
BRANCH  26  28
ATOM     28  C   UNL     1       0.861   3.405   0.467  0.00  0.00    +0.053 A 
ATOM     29  C   UNL     1       0.031   3.740  -0.594  0.00  0.00    +0.044 A 
ATOM     30  C   UNL     1      -1.094   2.983  -0.858  0.00  0.00    +0.043 A 
ATOM     31  C   UNL     1      -1.400   1.883  -0.072  0.00  0.00    +0.021 A 
ATOM     32  C   UNL     1      -0.591   1.539   0.989  0.00  0.00    +0.022 A 
ATOM     33  C   UNL     1       0.550   2.295   1.269  0.00  0.00    +0.073 A 
ATOM     34 CL   UNL     1      -2.128   3.408  -2.187  0.00  0.00    -0.083 Cl
BRANCH  33  35
ATOM     35  C   UNL     1       1.399   1.939   2.366  0.00  0.00    +0.101 C 
ATOM     36  N   UNL     1       2.072   1.656   3.236  0.00  0.00    -0.191 NA
ENDBRANCH  33  35
ENDBRANCH  26  28
ENDBRANCH  21  24
ENDBRANCH  19  20
ENDBRANCH   1  19
TORSDOF 7
