REMARK  Name = ZINC20247339
REMARK  9 active torsions:
REMARK  status: ('A' for Active; 'I' for Inactive)
REMARK    1  A    between atoms: C_1  and  O_2
REMARK    2  A    between atoms: O_2  and  C_3
REMARK    3  A    between atoms: C_6  and  C_11
REMARK    4  A    between atoms: C_7  and  O_9
REMARK    5  A    between atoms: O_9  and  C_10
REMARK    6  A    between atoms: C_19  and  C_27
REMARK    7  A    between atoms: C_20  and  N_26
REMARK    8  A    between atoms: C_21  and  C_22
REMARK    9  A    between atoms: C_21  and  C_24
REMARK                            x       y       z     vdW  Elec       q    Type
REMARK                         _______ _______ _______ _____ _____    ______ ____
ROOT
ATOM      1  C   UNL     1      -2.900   2.993   1.249  0.00  0.00    +0.070 C 
ATOM      2  C   UNL     1      -2.204   1.775   0.668  0.00  0.00    +0.031 C 
ATOM      3  C   UNL     1      -0.783   1.608   1.245  0.00  0.00    +0.013 C 
ATOM      4  C   UNL     1      -0.013   1.086   0.008  0.00  0.00    +0.028 C 
ATOM      5  C   UNL     1      -0.789   1.609  -1.181  0.00  0.00    -0.022 C 
ATOM      6  C   UNL     1      -1.993   1.998  -0.816  0.00  0.00    -0.029 C 
ATOM      7  C   UNL     1      -3.034   2.639  -1.657  0.00  0.00    +0.074 C 
ATOM      8  C   UNL     1      -4.031   3.298  -1.005  0.00  0.00    +0.054 C 
ATOM      9  C   UNL     1      -4.143   3.380   0.479  0.00  0.00    +0.188 C 
ENDROOT
BRANCH   1  13
ATOM     10  C   UNL     1      -3.990   2.160   5.300  0.00  0.00    +0.124 A 
ATOM     11  C   UNL     1      -4.490   1.378   4.268  0.00  0.00    +0.046 A 
ATOM     12  C   UNL     1      -4.141   1.653   2.960  0.00  0.00    +0.011 A 
ATOM     13  C   UNL     1      -3.284   2.700   2.677  0.00  0.00    +0.001 A 
ATOM     14  C   UNL     1      -2.781   3.484   3.705  0.00  0.00    +0.127 A 
ATOM     15  C   UNL     1      -3.135   3.213   5.018  0.00  0.00    +0.091 A 
BRANCH  10  17
ATOM     16  C   UNL     1      -5.224   0.791   6.802  0.00  0.00    +0.277 C 
ATOM     17  O   UNL     1      -4.338   1.892   6.586  0.00  0.00    -0.495 OA
ENDBRANCH  10  17
BRANCH  14  18
ATOM     18  O   UNL     1      -1.942   4.516   3.426  0.00  0.00    -0.495 OA
ATOM     19  C   UNL     1      -1.463   5.281   4.534  0.00  0.00    +0.277 C 
ENDBRANCH  14  18
ENDBRANCH   1  13
BRANCH   8  20
ATOM     20  N   UNL     1      -4.987   3.921  -1.756  0.00  0.00    -0.358 N 
ATOM     21  H   UNL     1      -5.808   4.463  -1.264  0.00  0.00    +0.142 HD
ATOM     22  H   UNL     1      -4.936   3.881  -2.855  0.00  0.00    +0.142 HD
ENDBRANCH   8  20
BRANCH   9  23
ATOM     23  C   UNL     1      -5.244   2.502   0.908  0.00  0.00    +0.091 C 
ATOM     24  N   UNL     1      -6.093   1.825   1.239  0.00  0.00    -0.194 NA
ENDBRANCH   9  23
BRANCH   9  25
ATOM     25  C   UNL     1      -4.498   4.763   0.839  0.00  0.00    +0.091 C 
ATOM     26  N   UNL     1      -4.771   5.830   1.117  0.00  0.00    -0.194 NA
ENDBRANCH   9  25
BRANCH   7  27
ATOM     27  C   UNL     1      -2.991   2.568  -3.086  0.00  0.00    +0.101 C 
ATOM     28  N   UNL     1      -2.957   2.512  -4.221  0.00  0.00    -0.191 NA
ENDBRANCH   7  27
TORSDOF 7
