REMARK  Name = ZINC10813146
REMARK  11 active torsions:
REMARK  status: ('A' for Active; 'I' for Inactive)
REMARK    1  A    between atoms: C_1  and  C_2
REMARK    2  A    between atoms: C_2  and  N_59
REMARK    3  A    between atoms: C_3  and  C_4
REMARK    4  A    between atoms: C_3  and  N_59
REMARK    5  A    between atoms: C_5  and  C_6
REMARK    6  A    between atoms: C_5  and  N_59
REMARK    7  A    between atoms: C_6  and  N_7
REMARK    8  A    between atoms: C_16  and  S_17
REMARK    9  A    between atoms: S_17  and  C_18
REMARK   10  A    between atoms: C_19  and  C_21
REMARK   11  A    between atoms: C_21  and  N_22
REMARK                            x       y       z     vdW  Elec       q    Type
REMARK                         _______ _______ _______ _____ _____    ______ ____
ROOT
ATOM      1  N   UNL     1      -0.428  -4.025  -0.016  0.00  0.00    -0.251 N 
ATOM      2  C   UNL     1      -0.136  -2.670   0.006  0.00  0.00    +0.168 A 
ATOM      3  N   UNL     1       1.037  -2.081  -0.002  0.00  0.00    -0.223 NA
ATOM      4  C   UNL     1       1.175  -0.737   0.023  0.00  0.00    +0.094 A 
ATOM      5  C   UNL     1      -0.028   0.001   0.057  0.00  0.00    +0.042 A 
ATOM      6  S   UNL     1      -1.259  -1.281   0.051  0.00  0.00    -0.052 S 
ATOM      7  C   UNL     1      -0.056   1.375   0.085  0.00  0.00    +0.017 A 
ATOM      8  C   UNL     1       1.131   2.085   0.080  0.00  0.00    +0.002 A 
ATOM      9  C   UNL     1       2.335   1.398   0.048  0.00  0.00    +0.017 A 
ATOM     10  C   UNL     1       2.375   0.021   0.019  0.00  0.00    +0.034 A 
ATOM     11  C   UNL     1       0.570  -4.930  -0.050  0.00  0.00    +0.239 C 
ATOM     12  O   UNL     1       1.724  -4.559  -0.061  0.00  0.00    -0.273 OA
ENDROOT
BRANCH  10  13
ATOM     13  S   UNL     1       3.930  -0.806  -0.023  0.00  0.00    -0.126 S 
ATOM     14  C   UNL     1       5.145   0.541  -0.015  0.00  0.00    +0.090 C 
ENDBRANCH  10  13
BRANCH   1  15
ATOM     15  C   UNL     1      -1.823  -4.473  -0.002  0.00  0.00    +0.097 C 
BRANCH  15  16
ATOM     16  C   UNL     1      -2.332  -4.601  -1.440  0.00  0.00    -0.059 C 
BRANCH  16  17
ATOM     17  N   UNL     1      -3.688  -5.189  -1.412  0.00  0.00    +0.380 N 
ATOM     18  H   UNL     1      -3.707  -5.951  -0.724  0.00  0.00    -0.082 HD
BRANCH  17  20
ATOM     19  C   UNL     1      -6.026  -4.841  -0.780  0.00  0.00    -0.017 C 
ATOM     20  C   UNL     1      -4.676  -4.162  -1.018  0.00  0.00    -0.082 C 
ENDBRANCH  17  20
BRANCH  17  21
ATOM     21  C   UNL     1      -4.029  -5.735  -2.742  0.00  0.00    -0.082 C 
ATOM     22  C   UNL     1      -3.308  -7.072  -2.923  0.00  0.00    -0.017 C 
ENDBRANCH  17  21
ENDBRANCH  16  17
ENDBRANCH  15  16
ENDBRANCH   1  15
BRANCH  11  23
ATOM     23  C   UNL     1       0.251  -6.403  -0.073  0.00  0.00    +0.213 C 
BRANCH  23  24
ATOM     24  N   UNL     1       1.498  -7.171  -0.109  0.00  0.00    -0.225 N 
ATOM     25  C   UNL     1       2.125  -7.554  -1.236  0.00  0.00    +0.254 C 
ATOM     26  O   UNL     1       1.753  -7.320  -2.368  0.00  0.00    -0.270 OA
ATOM     27  C   UNL     1       3.343  -8.304  -0.865  0.00  0.00    +0.049 A 
ATOM     28  C   UNL     1       4.355  -8.922  -1.583  0.00  0.00    +0.014 A 
ATOM     29  C   UNL     1       5.383  -9.563  -0.909  0.00  0.00    +0.001 A 
ATOM     30  C   UNL     1       5.405  -9.590   0.473  0.00  0.00    +0.001 A 
ATOM     31  C   UNL     1       4.400  -8.976   1.204  0.00  0.00    +0.014 A 
ATOM     32  C   UNL     1       3.366  -8.331   0.544  0.00  0.00    +0.049 A 
ATOM     33  C   UNL     1       2.163  -7.593   0.982  0.00  0.00    +0.254 C 
ATOM     34  O   UNL     1       1.831  -7.398   2.134  0.00  0.00    -0.270 OA
ENDBRANCH  23  24
ENDBRANCH  11  23
TORSDOF 8
