REMARK  Name = ZINC32692528
REMARK  6 active torsions:
REMARK  status: ('A' for Active; 'I' for Inactive)
REMARK    1  A    between atoms: C_4  and  C_7
REMARK    2  A    between atoms: C_8  and  C_25
REMARK    3  A    between atoms: C_10  and  S_13
REMARK    4  A    between atoms: S_13  and  C_14
REMARK    5  A    between atoms: C_14  and  C_15
REMARK    6  A    between atoms: N_17  and  C_18
REMARK                            x       y       z     vdW  Elec       q    Type
REMARK                         _______ _______ _______ _____ _____    ______ ____
ROOT
ATOM      1  C   UNL     1       0.019  -0.004   0.019  0.00  0.00    +0.075 A 
ATOM      2  C   UNL     1      -0.740  -0.847   0.807  0.00  0.00    +0.098 A 
ATOM      3  N   UNL     1      -0.419  -2.114   0.480  0.00  0.00    -0.221 NA
ATOM      4  C   UNL     1       0.493  -2.107  -0.463  0.00  0.00    +0.168 A 
ATOM      5  N   UNL     1       0.794  -0.818  -0.786  0.00  0.00    -0.332 N 
ATOM      6  H   UNL     1       1.486  -0.371  -1.515  0.00  0.00    +0.168 HD
ENDROOT
BRANCH   1  10
ATOM      7  C   UNL     1      -0.030   4.241   0.053  0.00  0.00    +0.000 A 
ATOM      8  C   UNL     1       1.178   3.566   0.028  0.00  0.00    +0.001 A 
ATOM      9  C   UNL     1       1.202   2.187   0.017  0.00  0.00    +0.010 A 
ATOM     10  C   UNL     1       0.002   1.471   0.031  0.00  0.00    +0.000 A 
ATOM     11  C   UNL     1      -1.214   2.159   0.050  0.00  0.00    +0.010 A 
ATOM     12  C   UNL     1      -1.222   3.538   0.068  0.00  0.00    +0.001 A 
ENDBRANCH   1  10
BRANCH   2  13
ATOM     13  C   UNL     1      -1.729  -0.432   1.829  0.00  0.00    +0.002 A 
ATOM     14  C   UNL     1      -1.506   0.710   2.597  0.00  0.00    +0.010 A 
ATOM     15  C   UNL     1      -2.433   1.094   3.544  0.00  0.00    +0.001 A 
ATOM     16  C   UNL     1      -3.577   0.341   3.740  0.00  0.00    +0.000 A 
ATOM     17  C   UNL     1      -3.802  -0.796   2.985  0.00  0.00    +0.001 A 
ATOM     18  C   UNL     1      -2.885  -1.187   2.031  0.00  0.00    +0.010 A 
ENDBRANCH   2  13
BRANCH   4  19
ATOM     19  S   UNL     1       1.211  -3.537  -1.200  0.00  0.00    -0.079 S 
BRANCH  19  20
ATOM     20  C   UNL     1       0.335  -4.833  -0.289  0.00  0.00    +0.173 C 
BRANCH  20  21
ATOM     21  C   UNL     1       0.801  -6.184  -0.765  0.00  0.00    +0.227 C 
ATOM     22  O   UNL     1       1.642  -6.264  -1.635  0.00  0.00    -0.275 OA
ATOM     23  N   UNL     1       0.283  -7.305  -0.225  0.00  0.00    -0.285 N 
ATOM     24  H   UNL     1      -0.423  -7.234   0.616  0.00  0.00    +0.155 HD
BRANCH  23  25
ATOM     25  C   UNL     1       0.643  -8.558  -0.733  0.00  0.00    +0.033 A 
ATOM     26  C   UNL     1      -0.287  -9.590  -0.763  0.00  0.00    +0.024 A 
ATOM     27  C   UNL     1       0.070 -10.824  -1.270  0.00  0.00    +0.017 A 
ATOM     28  C   UNL     1       1.355 -11.037  -1.736  0.00  0.00    +0.018 A 
ATOM     29  C   UNL     1       2.285 -10.013  -1.702  0.00  0.00    +0.017 A 
ATOM     30  C   UNL     1       1.932  -8.775  -1.201  0.00  0.00    +0.024 A 
ATOM     31 BR   UNL     1       1.841 -12.730  -2.424  0.00  0.00    -0.050 Br
ENDBRANCH  23  25
ENDBRANCH  20  21
ENDBRANCH  19  20
ENDBRANCH   4  19
TORSDOF 6
