REMARK  Name = ZINC35066230
REMARK  14 active torsions:
REMARK  status: ('A' for Active; 'I' for Inactive)
REMARK    1  A    between atoms: C_1  and  C_2
REMARK    2  A    between atoms: C_2  and  C_3
REMARK    3  A    between atoms: C_3  and  C_5
REMARK    4  A    between atoms: C_3  and  N_23
REMARK    5  A    between atoms: N_15  and  C_16
REMARK    6  A    between atoms: C_20  and  C_22
REMARK    7  A    between atoms: N_23  and  C_24
REMARK    8  A    between atoms: C_24  and  C_25
REMARK    9  A    between atoms: C_25  and  N_26
REMARK   10  A    between atoms: N_26  and  C_27
REMARK   11  A    between atoms: N_26  and  C_28
REMARK   12  A    between atoms: C_29  and  C_31
REMARK   13  A    between atoms: C_31  and  C_32
REMARK   14  A    between atoms: C_32  and  C_33
REMARK                            x       y       z     vdW  Elec       q    Type
REMARK                         _______ _______ _______ _____ _____    ______ ____
ROOT
ATOM      1  C   UNL     1       0.866  -0.723   1.566  0.00  0.00    +0.142 C 
ENDROOT
BRANCH   1   2
ATOM      2  C   UNL     1       0.855  -2.220   1.402  0.00  0.00    +0.138 A 
ATOM      3  N   UNL     1       0.069  -2.737   0.507  0.00  0.00    -0.231 NA
ATOM      4  C   UNL     1       0.006  -4.077   0.303  0.00  0.00    +0.078 A 
ATOM      5  C   UNL     1      -0.839  -4.632  -0.660  0.00  0.00    +0.028 A 
ATOM      6  C   UNL     1      -0.870  -5.998  -0.833  0.00  0.00    +0.002 A 
ATOM      7  C   UNL     1      -0.071  -6.832  -0.061  0.00  0.00    +0.001 A 
ATOM      8  C   UNL     1       0.770  -6.307   0.895  0.00  0.00    +0.015 A 
ATOM      9  C   UNL     1       0.818  -4.928   1.086  0.00  0.00    +0.065 A 
ATOM     10  C   UNL     1       1.697  -4.312   2.091  0.00  0.00    +0.266 A 
ATOM     11  O   UNL     1       2.421  -4.989   2.797  0.00  0.00    -0.267 OA
ATOM     12  N   UNL     1       1.674  -2.963   2.195  0.00  0.00    -0.263 N 
BRANCH  12  13
ATOM     13  C   UNL     1       2.496  -2.325   3.133  0.00  0.00    +0.051 A 
ATOM     14  C   UNL     1       3.599  -1.595   2.709  0.00  0.00    +0.026 A 
ATOM     15  C   UNL     1       4.407  -0.967   3.636  0.00  0.00    +0.002 A 
ATOM     16  C   UNL     1       4.120  -1.065   4.986  0.00  0.00    +0.003 A 
ATOM     17  C   UNL     1       3.023  -1.792   5.411  0.00  0.00    -0.048 A 
ATOM     18  C   UNL     1       2.207  -2.418   4.488  0.00  0.00    +0.029 A 
ATOM     19  C   UNL     1       2.714  -1.897   6.882  0.00  0.00    +0.044 C 
ENDBRANCH  12  13
ENDBRANCH   1   2
BRANCH   1  20
ATOM     20  N   UNL     1       0.127  -0.359   2.778  0.00  0.00    -0.293 N 
ATOM     21  C   UNL     1       0.713   0.408   3.719  0.00  0.00    +0.216 C 
ATOM     22  O   UNL     1       1.851   0.796   3.562  0.00  0.00    -0.276 OA
BRANCH  20  23
ATOM     23  C   UNL     1      -1.247  -0.828   2.967  0.00  0.00    +0.090 C 
BRANCH  23  24
ATOM     24  C   UNL     1      -1.238  -2.108   3.805  0.00  0.00    -0.060 C 
BRANCH  24  25
ATOM     25  N   UNL     1      -2.602  -2.647   3.891  0.00  0.00    +0.377 N 
ATOM     26  C   UNL     1      -2.576  -3.937   4.593  0.00  0.00    -0.097 C 
ATOM     27  C   UNL     1      -3.455  -1.705   4.629  0.00  0.00    -0.097 C 
ATOM     28  H   UNL     1      -2.972  -2.777   2.961  0.00  0.00    -0.083 HD
ENDBRANCH  24  25
ENDBRANCH  23  24
ENDBRANCH  20  23
BRANCH  21  29
ATOM     29  C   UNL     1      -0.046   0.782   4.966  0.00  0.00    +0.100 C 
BRANCH  29  30
ATOM     30  C   UNL     1       0.841   1.649   5.862  0.00  0.00    +0.044 C 
BRANCH  30  31
ATOM     31  C   UNL     1       0.082   2.023   7.109  0.00  0.00    -0.047 A 
ATOM     32  C   UNL     1      -0.682   3.176   7.133  0.00  0.00    +0.003 A 
ATOM     33  C   UNL     1      -1.378   3.519   8.277  0.00  0.00    +0.000 A 
ATOM     34  C   UNL     1      -1.312   2.710   9.396  0.00  0.00    +0.000 A 
ATOM     35  C   UNL     1      -0.549   1.557   9.371  0.00  0.00    +0.000 A 
ATOM     36  C   UNL     1       0.144   1.212   8.226  0.00  0.00    +0.003 A 
ENDBRANCH  30  31
ENDBRANCH  29  30
ENDBRANCH  21  29
ENDBRANCH   1  20
BRANCH   1  38
ATOM     37  C   UNL     1       0.329   1.449   0.453  0.00  0.00    +0.006 C 
ATOM     38  C   UNL     1       0.202  -0.072   0.350  0.00  0.00    +0.027 C 
ENDBRANCH   1  38
TORSDOF 10
