REMARK  Name = ZINC08644672
REMARK  9 active torsions:
REMARK  status: ('A' for Active; 'I' for Inactive)
REMARK    1  A    between atoms: C_1  and  C_2
REMARK    2  A    between atoms: C_2  and  C_4
REMARK    3  A    between atoms: C_2  and  S_16
REMARK    4  A    between atoms: N_6  and  C_7
REMARK    5  A    between atoms: C_12  and  O_13
REMARK    6  A    between atoms: O_13  and  C_14
REMARK    7  A    between atoms: S_16  and  C_17
REMARK    8  A    between atoms: C_20  and  C_23
REMARK    9  A    between atoms: N_21  and  N_22
REMARK                            x       y       z     vdW  Elec       q    Type
REMARK                         _______ _______ _______ _____ _____    ______ ____
ROOT
ATOM      1  S   UNL     1      -6.184   2.279   0.953  0.00  0.00    -0.072 S 
ENDROOT
BRANCH   1   2
ATOM      2  C   UNL     1      -7.493   1.111   1.114  0.00  0.00    +0.209 A 
ATOM      3  N   UNL     1      -7.447  -0.161   0.786  0.00  0.00    -0.121 NA
ATOM      4  N   UNL     1      -8.576  -0.722   1.035  0.00  0.00    -0.127 NA
ATOM      5  C   UNL     1      -9.412   0.157   1.538  0.00  0.00    +0.183 A 
ATOM      6  N   UNL     1      -8.742   1.356   1.610  0.00  0.00    -0.224 N 
BRANCH   5   7
ATOM      7  C   UNL     1     -10.807  -0.097   1.955  0.00  0.00    +0.039 A 
ATOM      8  C   UNL     1     -11.833   0.744   1.518  0.00  0.00    +0.014 A 
ATOM      9  C   UNL     1     -13.134   0.499   1.905  0.00  0.00    +0.021 A 
ATOM     10  C   UNL     1     -13.423  -0.571   2.736  0.00  0.00    +0.042 A 
ATOM     11  C   UNL     1     -12.410  -1.405   3.178  0.00  0.00    +0.040 A 
ATOM     12  C   UNL     1     -11.105  -1.174   2.793  0.00  0.00    +0.053 A 
ATOM     13 CL   UNL     1      -9.836  -2.220   3.348  0.00  0.00    -0.083 Cl
ATOM     14 CL   UNL     1     -15.062  -0.867   3.226  0.00  0.00    -0.083 Cl
ENDBRANCH   5   7
BRANCH   6  15
ATOM     15  N   UNL     1      -9.226   2.545   2.076  0.00  0.00    -0.295 N 
ATOM     16  H   UNL     1      -9.582   3.112   1.321  0.00  0.00    +0.163 HD
ATOM     17  H   UNL     1      -9.933   2.397   2.781  0.00  0.00    +0.163 HD
ENDBRANCH   6  15
ENDBRANCH   1   2
BRANCH   1  19
ATOM     18  C   UNL     1      -5.333   0.740  -1.137  0.00  0.00    +0.029 C 
ATOM     19  C   UNL     1      -4.899   1.216   0.250  0.00  0.00    +0.137 C 
BRANCH  19  20
ATOM     20  C   UNL     1      -3.612   1.993   0.135  0.00  0.00    +0.230 C 
ATOM     21  O   UNL     1      -3.634   3.206   0.138  0.00  0.00    -0.274 OA
ATOM     22  N   UNL     1      -2.438   1.340   0.028  0.00  0.00    -0.282 N 
ATOM     23  H   UNL     1      -2.426   0.374  -0.056  0.00  0.00    +0.155 HD
BRANCH  22  24
ATOM     24  C   UNL     1      -1.234   2.057   0.038  0.00  0.00    +0.077 A 
ATOM     25  C   UNL     1      -1.171   3.301   0.649  0.00  0.00    +0.047 A 
ATOM     26  C   UNL     1       0.016   4.010   0.652  0.00  0.00    +0.043 A 
ATOM     27  C   UNL     1       1.145   3.477   0.053  0.00  0.00    +0.024 A 
ATOM     28  C   UNL     1       1.090   2.236  -0.551  0.00  0.00    +0.049 A 
ATOM     29  C   UNL     1      -0.097   1.520  -0.559  0.00  0.00    +0.141 A 
ATOM     30 CL   UNL     1       0.092   5.570   1.410  0.00  0.00    -0.083 Cl
BRANCH  29  31
ATOM     31  O   UNL     1      -0.152   0.299  -1.155  0.00  0.00    -0.493 OA
ATOM     32  C   UNL     1       1.052  -0.186  -1.753  0.00  0.00    +0.277 C 
ENDBRANCH  29  31
ENDBRANCH  22  24
ENDBRANCH  19  20
ENDBRANCH   1  19
TORSDOF 7
