REMARK  Name = ZINC13164888
REMARK  9 active torsions:
REMARK  status: ('A' for Active; 'I' for Inactive)
REMARK    1  A    between atoms: C_1  and  O_2
REMARK    2  A    between atoms: O_2  and  C_3
REMARK    3  A    between atoms: C_3  and  C_4
REMARK    4  A    between atoms: C_4  and  N_5
REMARK    5  A    between atoms: C_6  and  C_8
REMARK    6  A    between atoms: C_12  and  N_13
REMARK    7  A    between atoms: C_14  and  C_16
REMARK    8  A    between atoms: C_16  and  N_68
REMARK    9  A    between atoms: C_20  and  C_22
REMARK                            x       y       z     vdW  Elec       q    Type
REMARK                         _______ _______ _______ _____ _____    ______ ____
ROOT
ATOM      1  N   UNL     1       4.150   2.847   4.457  0.00  0.00    -0.281 N 
ATOM      2  C   UNL     1       4.154   2.709   3.116  0.00  0.00    +0.201 C 
ATOM      3  O   UNL     1       4.859   1.871   2.595  0.00  0.00    -0.278 OA
ATOM      4  H   UNL     1       3.586   3.518   4.873  0.00  0.00    +0.155 HD
ENDROOT
BRANCH   1   9
ATOM      5  C   UNL     1       5.083   2.021   6.621  0.00  0.00    +0.069 A 
ATOM      6  C   UNL     1       6.000   1.056   7.202  0.00  0.00    -0.023 A 
ATOM      7  C   UNL     1       6.636   0.260   6.314  0.00  0.00    -0.004 A 
ATOM      8  S   UNL     1       6.026   0.770   4.732  0.00  0.00    -0.077 S 
ATOM      9  C   UNL     1       4.952   2.031   5.240  0.00  0.00    +0.084 A 
ATOM     10  C   UNL     1       7.630  -0.818   6.618  0.00  0.00    +0.043 C 
ATOM     11  C   UNL     1       8.108  -0.641   8.066  0.00  0.00    +0.005 C 
ATOM     12  C   UNL     1       6.886  -0.446   8.969  0.00  0.00    +0.005 C 
ATOM     13  C   UNL     1       6.253   0.920   8.698  0.00  0.00    +0.037 C 
BRANCH   5  15
ATOM     14  N   UNL     1       4.844   4.156   7.773  0.00  0.00    -0.309 N 
ATOM     15  C   UNL     1       4.325   2.952   7.464  0.00  0.00    +0.247 C 
ATOM     16  O   UNL     1       3.227   2.636   7.884  0.00  0.00    -0.270 OA
ATOM     17  H   UNL     1       5.719   4.408   7.439  0.00  0.00    +0.149 HD
BRANCH  14  18
ATOM     18  C   UNL     1       4.086   5.086   8.615  0.00  0.00    +0.132 C 
BRANCH  18  19
ATOM     19  C   UNL     1       4.894   6.370   8.812  0.00  0.00    +0.178 C 
BRANCH  19  21
ATOM     20  C   UNL     1       5.790   8.253   7.630  0.00  0.00    +0.194 C 
ATOM     21  O   UNL     1       5.046   7.035   7.556  0.00  0.00    -0.381 OA
ENDBRANCH  19  21
ENDBRANCH  18  19
ENDBRANCH  14  18
ENDBRANCH   5  15
ENDBRANCH   1   9
BRANCH   2  22
ATOM     22  C   UNL     1       3.283   3.597   2.264  0.00  0.00    +0.020 C 
BRANCH  22  27
ATOM     23  C   UNL     1       4.770   3.754   0.340  0.00  0.00    -0.077 C 
ATOM     24  C   UNL     1       4.594   3.814  -1.193  0.00  0.00    -0.020 C 
ATOM     25  C   UNL     1       3.073   3.931  -1.418  0.00  0.00    -0.013 C 
ATOM     26  C   UNL     1       2.457   3.931  -0.002  0.00  0.00    -0.037 C 
ATOM     27  N   UNL     1       3.477   3.266   0.816  0.00  0.00    +0.390 N 
ATOM     28  H   UNL     1       3.419   2.249   0.692  0.00  0.00    -0.080 HD
BRANCH  26  29
ATOM     29  C   UNL     1       1.160   3.165   0.007  0.00  0.00    -0.057 A 
ATOM     30  C   UNL     1       1.175   1.782   0.000  0.00  0.00    +0.006 A 
ATOM     31  C   UNL     1      -0.013   1.076   0.008  0.00  0.00    +0.049 A 
ATOM     32  C   UNL     1      -1.223   1.752   0.017  0.00  0.00    +0.162 A 
ATOM     33  C   UNL     1      -1.239   3.142   0.033  0.00  0.00    +0.162 A 
ATOM     34  C   UNL     1      -0.043   3.845   0.024  0.00  0.00    +0.051 A 
ATOM     35  O   UNL     1      -2.416   3.825   0.057  0.00  0.00    -0.485 OA
ATOM     36  C   UNL     1      -3.590   3.095  -0.328  0.00  0.00    +0.270 C 
ATOM     37  C   UNL     1      -3.570   1.746   0.404  0.00  0.00    +0.270 C 
ATOM     38  O   UNL     1      -2.385   1.043   0.014  0.00  0.00    -0.485 OA
ENDBRANCH  26  29
ENDBRANCH  22  27
ENDBRANCH   2  22
TORSDOF 8
