REMARK  Name = ZINC63738966
REMARK  11 active torsions:
REMARK  status: ('A' for Active; 'I' for Inactive)
REMARK    1  A    between atoms: C_1  and  C_2
REMARK    2  A    between atoms: N_8  and  C_9
REMARK    3  A    between atoms: C_9  and  C_10
REMARK    4  A    between atoms: C_10  and  C_11
REMARK    5  A    between atoms: C_11  and  N_12
REMARK    6  A    between atoms: C_13  and  C_15
REMARK    7  A    between atoms: C_15  and  C_17
REMARK    8  A    between atoms: C_15  and  C_18
REMARK    9  A    between atoms: C_24  and  C_26
REMARK   10  A    between atoms: C_32  and  O_36
REMARK   11  A    between atoms: O_36  and  C_37
REMARK                            x       y       z     vdW  Elec       q    Type
REMARK                         _______ _______ _______ _____ _____    ______ ____
ROOT
ATOM      1  C   UNL     1       0.707   0.375   9.766  0.00  0.00    +0.004 C 
ATOM      2  C   UNL     1       1.518  -0.027  11.000  0.00  0.00    +0.023 C 
ATOM      3  C   UNL     1       0.863   0.566  12.252  0.00  0.00    +0.108 C 
ATOM      4  N   UNL     1      -0.544   0.148  12.293  0.00  0.00    -0.300 N 
ATOM      5  C   UNL     1      -1.392   0.404  11.120  0.00  0.00    +0.108 C 
ATOM      6  C   UNL     1      -0.712  -0.187   9.881  0.00  0.00    +0.023 C 
ATOM      7  C   UNL     1      -1.048  -0.460  13.385  0.00  0.00    +0.242 C 
ATOM      8  O   UNL     1      -0.338  -0.667  14.346  0.00  0.00    -0.273 OA
ENDROOT
BRANCH   7   9
ATOM      9  C   UNL     1      -2.494  -0.884  13.411  0.00  0.00    +0.190 C 
ATOM     10  C   UNL     1      -3.394   0.326  13.289  0.00  0.00    +0.016 C 
ATOM     11  C   UNL     1      -4.136   0.359  14.418  0.00  0.00    -0.003 A 
ATOM     12  C   UNL     1      -5.178   1.277  14.894  0.00  0.00    +0.013 A 
ATOM     13  C   UNL     1      -5.755   1.051  16.094  0.00  0.00    +0.046 A 
ATOM     14  C   UNL     1      -5.380  -0.043  16.898  0.00  0.00    +0.122 A 
ATOM     15  C   UNL     1      -4.425  -0.931  16.523  0.00  0.00    +0.071 A 
ATOM     16  C   UNL     1      -3.759  -0.784  15.280  0.00  0.00    +0.047 A 
ATOM     17  N   UNL     1      -2.818  -1.498  14.704  0.00  0.00    -0.370 N 
ATOM     18  H   UNL     1      -2.406  -2.297  15.070  0.00  0.00    +0.161 HD
BRANCH  14  19
ATOM     19  O   UNL     1      -5.997  -0.214  18.093  0.00  0.00    -0.495 OA
ATOM     20  C   UNL     1      -6.996   0.743  18.451  0.00  0.00    +0.277 C 
ENDBRANCH  14  19
ENDBRANCH   7   9
BRANCH   1  21
ATOM     21  C   UNL     1       1.377  -0.187   8.511  0.00  0.00    +0.075 C 
ATOM     22  C   UNL     1       2.795   0.374   8.395  0.00  0.00    +0.017 C 
BRANCH  21  24
ATOM     23  N   UNL     1       0.983  -0.177   6.069  0.00  0.00    -0.315 N 
ATOM     24  C   UNL     1       0.579   0.209   7.295  0.00  0.00    +0.216 C 
ATOM     25  O   UNL     1      -0.427   0.876   7.421  0.00  0.00    -0.276 OA
ATOM     26  H   UNL     1       1.787  -0.710   5.968  0.00  0.00    +0.149 HD
BRANCH  23  27
ATOM     27  C   UNL     1       0.207   0.209   4.887  0.00  0.00    +0.102 C 
BRANCH  27  28
ATOM     28  C   UNL     1       0.877  -0.353   3.631  0.00  0.00    +0.000 C 
BRANCH  28  29
ATOM     29  C   UNL     1       0.067   0.050   2.397  0.00  0.00    -0.077 C 
BRANCH  29  36
ATOM     30  C   UNL     1      -0.019   1.526   0.010  0.00  0.00    -0.013 C 
ATOM     31  C   UNL     1       0.002  -0.004   0.002  0.00  0.00    -0.072 C 
ATOM     32  C   UNL     1       0.717  -0.497  -1.258  0.00  0.00    -0.016 C 
ATOM     33  C   UNL     1       0.735  -2.028  -1.262  0.00  0.00    -0.003 C 
ATOM     34  C   UNL     1       1.410  -2.524   0.020  0.00  0.00    -0.019 C 
ATOM     35  C   UNL     1       0.669  -1.956   1.232  0.00  0.00    -0.078 C 
ATOM     36  N   UNL     1       0.711  -0.490   1.192  0.00  0.00    +0.381 N 
ATOM     37  H   UNL     1       1.671  -0.182   1.159  0.00  0.00    -0.081 HD
ENDBRANCH  29  36
ENDBRANCH  28  29
ENDBRANCH  27  28
ENDBRANCH  23  27
ENDBRANCH  21  24
ENDBRANCH   1  21
TORSDOF 8
