REMARK  Name = ZINC06577702
REMARK  5 active torsions:
REMARK  status: ('A' for Active; 'I' for Inactive)
REMARK    1  A    between atoms: N_9  and  C_11
REMARK    2  A    between atoms: C_11  and  C_12
REMARK    3  A    between atoms: C_12  and  C_13
REMARK    4  A    between atoms: C_13  and  N_14
REMARK    5  A    between atoms: C_15  and  C_17
REMARK                            x       y       z     vdW  Elec       q    Type
REMARK                         _______ _______ _______ _____ _____    ______ ____
ROOT
ATOM      1  N   UNL     1       8.238  -2.333   1.887  0.00  0.00    -0.315 N 
ATOM      2  C   UNL     1       9.494  -2.821   1.903  0.00  0.00    +0.216 C 
ATOM      3  O   UNL     1       9.799  -3.736   1.168  0.00  0.00    -0.276 OA
ATOM      4  H   UNL     1       7.994  -1.601   2.474  0.00  0.00    +0.149 HD
ENDROOT
BRANCH   2   5
ATOM      5  C   UNL     1      10.520  -2.229   2.835  0.00  0.00    +0.078 C 
ATOM      6  C   UNL     1      10.703  -0.743   2.515  0.00  0.00    +0.032 C 
ATOM      7  C   UNL     1      11.720  -0.137   3.486  0.00  0.00    +0.108 C 
ATOM      8  N   UNL     1      12.959  -0.924   3.425  0.00  0.00    -0.308 N 
ATOM      9  C   UNL     1      12.884  -2.377   3.629  0.00  0.00    +0.108 C 
ATOM     10  C   UNL     1      11.853  -2.959   2.656  0.00  0.00    +0.032 C 
ATOM     11  C   UNL     1      14.178  -0.307   3.180  0.00  0.00    +0.186 A 
ATOM     12  N   UNL     1      14.460   0.972   2.978  0.00  0.00    -0.124 NA
ATOM     13  N   UNL     1      15.638   1.369   2.766  0.00  0.00    -0.121 NA
ATOM     14  C   UNL     1      16.665   0.536   2.733  0.00  0.00    +0.202 A 
ATOM     15  S   UNL     1      15.820  -1.010   3.054  0.00  0.00    -0.013 S 
ATOM     16  N   UNL     1      18.020   0.790   2.516  0.00  0.00    -0.301 N 
ATOM     17  C   UNL     1      19.013  -0.148   2.495  0.00  0.00    +0.093 A 
ATOM     18  C   UNL     1      20.182   0.481   2.257  0.00  0.00    +0.019 A 
ATOM     19  C   UNL     1      19.903   1.857   2.127  0.00  0.00    +0.019 A 
ATOM     20  C   UNL     1      18.573   2.017   2.284  0.00  0.00    +0.093 A 
ENDBRANCH   2   5
BRANCH   1  21
ATOM     21  C   UNL     1       7.241  -2.908   0.981  0.00  0.00    +0.102 C 
BRANCH  21  22
ATOM     22  C   UNL     1       5.908  -2.179   1.160  0.00  0.00    +0.000 C 
BRANCH  22  23
ATOM     23  C   UNL     1       4.866  -2.780   0.214  0.00  0.00    -0.077 C 
BRANCH  23  32
ATOM     24  C   UNL     1      -0.017   1.376   0.010  0.00  0.00    +0.000 A 
ATOM     25  C   UNL     1       1.173   2.080   0.002  0.00  0.00    +0.000 A 
ATOM     26  C   UNL     1       2.375   1.401  -0.015  0.00  0.00    +0.002 A 
ATOM     27  C   UNL     1       2.395   0.014  -0.023  0.00  0.00    -0.061 A 
ATOM     28  C   UNL     1       1.208  -0.687  -0.013  0.00  0.00    -0.048 A 
ATOM     29  C   UNL     1       0.002  -0.004   0.002  0.00  0.00    +0.004 A 
ATOM     30  C   UNL     1       1.186  -2.194  -0.014  0.00  0.00    +0.017 C 
ATOM     31  C   UNL     1       2.554  -2.732  -0.434  0.00  0.00    -0.074 C 
ATOM     32  N   UNL     1       3.587  -2.079   0.386  0.00  0.00    +0.383 N 
ATOM     33  C   UNL     1       3.728  -0.686  -0.046  0.00  0.00    -0.043 C 
ATOM     34  H   UNL     1       3.313  -2.106   1.357  0.00  0.00    -0.081 HD
ENDBRANCH  23  32
ENDBRANCH  22  23
ENDBRANCH  21  22
ENDBRANCH   1  21
TORSDOF 5
