REMARK  Name = ZINC36541054
REMARK  13 active torsions:
REMARK  status: ('A' for Active; 'I' for Inactive)
REMARK    1  A    between atoms: C_1  and  C_2
REMARK    2  A    between atoms: C_5  and  S_8
REMARK    3  A    between atoms: S_8  and  C_11
REMARK    4  A    between atoms: C_11  and  N_12
REMARK    5  A    between atoms: C_13  and  C_15
REMARK    6  A    between atoms: C_15  and  C_17
REMARK    7  A    between atoms: C_15  and  N_24
REMARK    8  A    between atoms: C_20  and  O_23
REMARK    9  A    between atoms: N_24  and  C_25
REMARK   10  A    between atoms: C_32  and  C_34
REMARK   11  A    between atoms: C_34  and  C_35
REMARK   12  A    between atoms: C_35  and  C_36
REMARK   13  A    between atoms: C_35  and  C_37
REMARK                            x       y       z     vdW  Elec       q    Type
REMARK                         _______ _______ _______ _____ _____    ______ ____
ROOT
ATOM      1  C   UNL     1       3.222  -5.015   3.457  0.00  0.00    +0.197 C 
ENDROOT
BRANCH   1   2
ATOM      2  C   UNL     1       2.184  -3.960   3.743  0.00  0.00    -0.018 A 
ATOM      3  C   UNL     1       2.576  -2.662   4.010  0.00  0.00    +0.009 A 
ATOM      4  C   UNL     1       1.627  -1.693   4.274  0.00  0.00    +0.046 A 
ATOM      5  C   UNL     1       0.280  -2.024   4.270  0.00  0.00    +0.117 A 
ATOM      6  C   UNL     1      -0.111  -3.328   4.001  0.00  0.00    +0.046 A 
ATOM      7  C   UNL     1       0.842  -4.292   3.733  0.00  0.00    +0.009 A 
BRANCH   5   8
ATOM      8  O   UNL     1      -0.655  -1.073   4.529  0.00  0.00    -0.507 OA
ATOM      9  H   UNL     1      -0.971  -0.607   3.743  0.00  0.00    +0.292 HD
ENDBRANCH   5   8
ENDBRANCH   1   2
BRANCH   1  11
ATOM     10  N   UNL     1       2.889  -4.930   1.007  0.00  0.00    -0.294 N 
ATOM     11  C   UNL     1       2.920  -5.670   2.133  0.00  0.00    +0.240 C 
ATOM     12  O   UNL     1       2.706  -6.862   2.082  0.00  0.00    -0.273 OA
ATOM     13  H   UNL     1       3.060  -3.976   1.049  0.00  0.00    +0.150 HD
BRANCH  10  14
ATOM     14  C   UNL     1       2.595  -5.566  -0.279  0.00  0.00    +0.278 C 
BRANCH  14  15
ATOM     15  S   UNL     1       0.825  -5.409  -0.642  0.00  0.00    +0.013 S 
ATOM     16  O   UNL     1       0.058  -5.771   0.497  0.00  0.00    -0.168 OA
ATOM     17  O   UNL     1       0.535  -5.966  -1.917  0.00  0.00    -0.168 OA
BRANCH  15  22
ATOM     18  C   UNL     1      -0.104   0.516  -1.306  0.00  0.00    +0.044 C 
ATOM     19  C   UNL     1       0.128  -0.964  -1.140  0.00  0.00    -0.050 A 
ATOM     20  C   UNL     1       0.467  -1.737  -2.235  0.00  0.00    +0.005 A 
ATOM     21  C   UNL     1       0.680  -3.095  -2.083  0.00  0.00    +0.027 A 
ATOM     22  C   UNL     1       0.555  -3.679  -0.836  0.00  0.00    +0.090 A 
ATOM     23  C   UNL     1       0.216  -2.905   0.259  0.00  0.00    +0.027 A 
ATOM     24  C   UNL     1       0.008  -1.547   0.107  0.00  0.00    +0.005 A 
ENDBRANCH  15  22
ENDBRANCH  14  15
ENDBRANCH  10  14
ENDBRANCH   1  11
BRANCH   1  25
ATOM     25  N   UNL     1       3.198  -6.025   4.518  0.00  0.00    -0.254 N 
ATOM     26  C   UNL     1       4.335  -6.353   5.162  0.00  0.00    +0.221 C 
ATOM     27  O   UNL     1       5.379  -5.812   4.864  0.00  0.00    -0.275 OA
BRANCH  25  28
ATOM     28  C   UNL     1       1.993  -6.649   4.862  0.00  0.00    +0.056 A 
ATOM     29  C   UNL     1       1.610  -7.822   4.224  0.00  0.00    +0.025 A 
ATOM     30  C   UNL     1       0.421  -8.435   4.566  0.00  0.00    +0.002 A 
ATOM     31  C   UNL     1      -0.388  -7.884   5.543  0.00  0.00    +0.002 A 
ATOM     32  C   UNL     1      -0.011  -6.717   6.180  0.00  0.00    +0.022 A 
ATOM     33  C   UNL     1       1.181  -6.101   5.847  0.00  0.00    +0.062 A 
ATOM     34 CL   UNL     1       1.659  -4.639   6.653  0.00  0.00    -0.082 Cl
ENDBRANCH  25  28
BRANCH  26  35
ATOM     35  C   UNL     1       4.310  -7.391   6.254  0.00  0.00    +0.099 C 
BRANCH  35  36
ATOM     36  C   UNL     1       5.721  -7.574   6.816  0.00  0.00    -0.008 C 
ATOM     37  C   UNL     1       6.169  -6.280   7.499  0.00  0.00    +0.008 C 
ATOM     38  C   UNL     1       5.720  -8.715   7.836  0.00  0.00    +0.008 C 
ENDBRANCH  35  36
ENDBRANCH  26  35
ENDBRANCH   1  25
TORSDOF 10
