REMARK  Name = ZINC40170751
REMARK  9 active torsions:
REMARK  status: ('A' for Active; 'I' for Inactive)
REMARK    1  A    between atoms: C_1  and  C_2
REMARK    2  A    between atoms: C_4  and  C_35
REMARK    3  A    between atoms: C_8  and  C_34
REMARK    4  A    between atoms: C_12  and  S_15
REMARK    5  A    between atoms: S_15  and  C_16
REMARK    6  A    between atoms: C_16  and  C_18
REMARK    7  A    between atoms: C_16  and  C_19
REMARK    8  A    between atoms: N_21  and  C_22
REMARK    9  A    between atoms: C_23  and  C_31
REMARK                            x       y       z     vdW  Elec       q    Type
REMARK                         _______ _______ _______ _____ _____    ______ ____
ROOT
ATOM      1  C   UNL     1       2.489  -6.372  -2.891  0.00  0.00    +0.137 C 
ATOM      2  C   UNL     1       3.386  -7.072  -1.869  0.00  0.00    +0.029 C 
ENDROOT
BRANCH   1   3
ATOM      3  C   UNL     1       3.223  -6.242  -4.200  0.00  0.00    +0.231 C 
ATOM      4  O   UNL     1       3.824  -5.221  -4.460  0.00  0.00    -0.274 OA
ATOM      5  N   UNL     1       3.212  -7.261  -5.082  0.00  0.00    -0.278 N 
ATOM      6  H   UNL     1       2.731  -8.077  -4.875  0.00  0.00    +0.155 HD
BRANCH   5   7
ATOM      7  C   UNL     1       3.888  -7.142  -6.287  0.00  0.00    +0.084 A 
ATOM      8  C   UNL     1       3.981  -8.075  -7.308  0.00  0.00    +0.068 A 
ATOM      9  C   UNL     1       4.756  -7.704  -8.479  0.00  0.00    -0.023 A 
ATOM     10  C   UNL     1       5.297  -6.468  -8.414  0.00  0.00    -0.004 A 
ATOM     11  S   UNL     1       4.776  -5.832  -6.848  0.00  0.00    -0.077 S 
ATOM     12  C   UNL     1       6.144  -5.801  -9.453  0.00  0.00    +0.043 C 
ATOM     13  C   UNL     1       6.623  -6.872 -10.445  0.00  0.00    +0.005 C 
ATOM     14  C   UNL     1       5.425  -7.728 -10.867  0.00  0.00    +0.005 C 
ATOM     15  C   UNL     1       4.966  -8.596  -9.693  0.00  0.00    +0.037 C 
BRANCH   8  16
ATOM     16  C   UNL     1       3.324  -9.382  -7.210  0.00  0.00    +0.244 C 
ATOM     17  O   UNL     1       2.185  -9.523  -7.616  0.00  0.00    -0.270 OA
ATOM     18  N   UNL     1       3.981 -10.428  -6.671  0.00  0.00    -0.325 N 
ATOM     19  H   UNL     1       4.889 -10.316  -6.347  0.00  0.00    +0.145 HD
ATOM     20  H   UNL     1       3.547 -11.293  -6.606  0.00  0.00    +0.145 HD
ENDBRANCH   8  16
ENDBRANCH   5   7
ENDBRANCH   1   3
BRANCH   1  21
ATOM     21  S   UNL     1       2.050  -4.721  -2.278  0.00  0.00    -0.073 S 
BRANCH  21  33
ATOM     22  C   UNL     1      -0.018   1.502   0.010  0.00  0.00    +0.044 C 
ATOM     23  C   UNL     1       0.002  -0.004   0.002  0.00  0.00    -0.050 A 
ATOM     24  C   UNL     1      -0.039  -0.695  -1.196  0.00  0.00    +0.008 A 
ATOM     25  C   UNL     1       0.027  -2.076  -1.217  0.00  0.00    -0.026 A 
ATOM     26  C   UNL     1       0.210  -2.789  -0.045  0.00  0.00    +0.061 A 
ATOM     27  C   UNL     1       0.069  -2.094   1.181  0.00  0.00    +0.002 A 
ATOM     28  C   UNL     1       0.023  -0.698   1.192  0.00  0.00    +0.013 A 
ATOM     29  C   UNL     1      -0.094  -2.861   2.418  0.00  0.00    -0.038 A 
ATOM     30  C   UNL     1      -0.041  -4.212   2.365  0.00  0.00    +0.052 A 
ATOM     31  C   UNL     1       0.250  -4.863   1.149  0.00  0.00    +0.162 A 
ATOM     32  N   UNL     1       0.502  -4.139  -0.003  0.00  0.00    -0.270 N 
ATOM     33  C   UNL     1       1.082  -5.044  -0.841  0.00  0.00    +0.197 A 
ATOM     34  N   UNL     1       0.836  -6.244  -0.351  0.00  0.00    -0.122 NA
ATOM     35  N   UNL     1       0.309  -6.138   0.812  0.00  0.00    -0.129 NA
ATOM     36  C   UNL     1      -0.321  -2.174   3.740  0.00  0.00    +0.044 C 
ATOM     37  C   UNL     1      -0.188  -2.769  -2.540  0.00  0.00    +0.046 C 
ENDBRANCH  21  33
ENDBRANCH   1  21
TORSDOF 5
