REMARK  Name = ZINC44737579
REMARK  7 active torsions:
REMARK  status: ('A' for Active; 'I' for Inactive)
REMARK    1  A    between atoms: C_1  and  C_2
REMARK    2  A    between atoms: C_10  and  C_12
REMARK    3  A    between atoms: C_12  and  C_13
REMARK    4  A    between atoms: C_12  and  N_14
REMARK    5  A    between atoms: C_15  and  C_17
REMARK    6  A    between atoms: C_27  and  C_29
REMARK    7  A    between atoms: C_30  and  C_34
REMARK                            x       y       z     vdW  Elec       q    Type
REMARK                         _______ _______ _______ _____ _____    ______ ____
ROOT
ATOM      1  C   UNL     1      -1.615  -8.770   1.002  0.00  0.00    +0.100 C 
ATOM      2  C   UNL     1      -0.549  -9.334   0.036  0.00  0.00    +0.121 C 
ATOM      3  N   UNL     1      -0.031 -10.545   0.715  0.00  0.00    -0.296 N 
ATOM      4  C   UNL     1      -1.230 -11.167   1.325  0.00  0.00    +0.115 C 
ATOM      5  C   UNL     1      -2.059  -9.978   1.844  0.00  0.00    -0.004 C 
ATOM      6  C   UNL     1      -1.760  -9.733   3.320  0.00  0.00    -0.010 C 
ATOM      7  C   UNL     1      -2.262 -10.923   4.142  0.00  0.00    -0.082 C 
ATOM      8  N   UNL     1      -3.706 -11.088   3.936  0.00  0.00    +0.379 N 
ATOM      9  C   UNL     1      -3.977 -11.415   2.531  0.00  0.00    -0.082 C 
ATOM     10  C   UNL     1      -3.547 -10.246   1.640  0.00  0.00    -0.010 C 
ATOM     11  C   UNL     1       1.243 -10.982   0.766  0.00  0.00    +0.254 C 
ATOM     12  O   UNL     1       2.138 -10.304   0.298  0.00  0.00    -0.269 OA
ATOM     13  H   UNL     1      -4.045 -11.833   4.525  0.00  0.00    -0.086 HD
ATOM     14  H   UNL     1      -4.179 -10.230   4.178  0.00  0.00    -0.086 HD
ENDROOT
BRANCH  11  15
ATOM     15  C   UNL     1       1.550 -12.275   1.385  0.00  0.00    +0.077 A 
ATOM     16  C   UNL     1       2.785 -12.854   1.633  0.00  0.00    -0.031 A 
ATOM     17  C   UNL     1       2.755 -14.090   2.233  0.00  0.00    +0.011 A 
ATOM     18  C   UNL     1       1.556 -14.648   2.535  0.00  0.00    +0.046 A 
ATOM     19  S   UNL     1       0.432 -13.510   2.021  0.00  0.00    -0.092 S 
ATOM     20  C   UNL     1       4.078 -12.172   1.267  0.00  0.00    +0.045 C 
ENDBRANCH  11  15
BRANCH   1  22
ATOM     21  N   UNL     1      -1.777  -6.694   2.337  0.00  0.00    -0.305 N 
ATOM     22  C   UNL     1      -1.013  -7.708   1.885  0.00  0.00    +0.219 C 
ATOM     23  O   UNL     1       0.160  -7.766   2.190  0.00  0.00    -0.275 OA
ATOM     24  H   UNL     1      -2.715  -6.648   2.093  0.00  0.00    +0.149 HD
BRANCH  21  25
ATOM     25  C   UNL     1      -1.192  -5.661   3.196  0.00  0.00    +0.136 C 
ATOM     26  C   UNL     1      -0.537  -4.586   2.326  0.00  0.00    +0.036 C 
BRANCH  25  36
ATOM     27  C   UNL     1      -5.542  -2.281   8.199  0.00  0.00    +0.044 C 
ATOM     28  C   UNL     1      -5.072  -3.014   6.969  0.00  0.00    -0.048 A 
ATOM     29  C   UNL     1      -5.989  -3.385   5.995  0.00  0.00    +0.005 A 
ATOM     30  C   UNL     1      -5.583  -4.051   4.874  0.00  0.00    +0.030 A 
ATOM     31  C   UNL     1      -4.232  -4.363   4.700  0.00  0.00    +0.089 A 
ATOM     32  C   UNL     1      -3.303  -3.988   5.685  0.00  0.00    +0.067 A 
ATOM     33  C   UNL     1      -3.734  -3.308   6.817  0.00  0.00    +0.031 A 
ATOM     34  N   UNL     1      -2.074  -4.427   5.237  0.00  0.00    -0.340 N 
ATOM     35  H   UNL     1      -1.224  -4.322   5.694  0.00  0.00    +0.167 HD
ATOM     36  C   UNL     1      -2.274  -5.036   4.038  0.00  0.00    +0.128 A 
ATOM     37  N   UNL     1      -3.536  -4.999   3.723  0.00  0.00    -0.231 NA
ENDBRANCH  25  36
ENDBRANCH  21  25
ENDBRANCH   1  22
TORSDOF 4
