REMARK  Name = ZINC21298875
REMARK  2 active torsions:
REMARK  status: ('A' for Active; 'I' for Inactive)
REMARK    1  A    between atoms: C_1  and  N_2
REMARK    2  A    between atoms: N_6  and  C_9
REMARK                            x       y       z     vdW  Elec       q    Type
REMARK                         _______ _______ _______ _____ _____    ______ ____
ROOT
ATOM      1  C   UNL     1      -0.492   1.367  -2.558  0.00  0.00    +0.134 C 
ATOM      2  N   UNL     1      -0.787   1.587  -1.141  0.00  0.00    -0.279 N 
ATOM      3  C   UNL     1      -0.006   1.096   0.008  0.00  0.00    +0.205 C 
ATOM      4  C   UNL     1      -0.766   1.620   1.210  0.00  0.00    +0.245 C 
ATOM      5  O   UNL     1      -0.487   1.461   2.379  0.00  0.00    -0.273 OA
ATOM      6  N   UNL     1      -1.819   2.299   0.704  0.00  0.00    -0.193 N 
ATOM      7  C   UNL     1      -1.824   2.277  -0.633  0.00  0.00    +0.316 C 
ATOM      8  O   UNL     1      -2.672   2.821  -1.315  0.00  0.00    -0.252 OA
ENDROOT
BRANCH   6   9
ATOM      9  C   UNL     1      -2.785   2.949   1.485  0.00  0.00    +0.048 A 
ATOM     10  C   UNL     1      -2.772   2.808   2.866  0.00  0.00    +0.044 A 
ATOM     11  C   UNL     1      -3.723   3.453   3.635  0.00  0.00    +0.044 A 
ATOM     12  C   UNL     1      -4.693   4.231   3.028  0.00  0.00    +0.040 A 
ATOM     13  C   UNL     1      -4.710   4.370   1.651  0.00  0.00    +0.044 A 
ATOM     14  C   UNL     1      -3.759   3.730   0.879  0.00  0.00    +0.044 A 
ATOM     15 CL   UNL     1      -5.928   5.347   0.893  0.00  0.00    -0.083 Cl
ATOM     16 CL   UNL     1      -3.704   3.281   5.362  0.00  0.00    -0.083 Cl
ENDBRANCH   6   9
TORSDOF 1
