REMARK  Name = ZINC62761963
REMARK  6 active torsions:
REMARK  status: ('A' for Active; 'I' for Inactive)
REMARK    1  A    between atoms: C_1  and  C_2
REMARK    2  A    between atoms: C_6  and  C_15
REMARK    3  A    between atoms: C_8  and  O_11
REMARK    4  A    between atoms: O_11  and  C_12
REMARK    5  A    between atoms: C_12  and  C_13
REMARK    6  A    between atoms: C_13  and  O_14
REMARK                            x       y       z     vdW  Elec       q    Type
REMARK                         _______ _______ _______ _____ _____    ______ ____
ROOT
ATOM      1  C   UNL     1      -0.019   1.526   0.010  0.00  0.00    +0.007 C 
ATOM      2  C   UNL     1       0.002  -0.004   0.002  0.00  0.00    -0.012 C 
ATOM      3  C   UNL     1      -1.433  -0.534   0.013  0.00  0.00    +0.004 C 
ATOM      4  C   UNL     1      -1.413  -2.063   0.004  0.00  0.00    +0.018 C 
ATOM      5  C   UNL     1      -0.673  -2.570   1.244  0.00  0.00    +0.131 C 
ATOM      6  C   UNL     1       0.763  -2.041   1.233  0.00  0.00    +0.132 C 
ATOM      7  C   UNL     1       0.742  -0.511   1.242  0.00  0.00    +0.035 C 
ENDROOT
BRANCH   5   8
ATOM      8  C   UNL     1      -0.652  -4.077   1.236  0.00  0.00    +0.361 C 
ATOM      9  O   UNL     1      -1.181  -4.689   0.323  0.00  0.00    -0.246 OA
ATOM     10  O   UNL     1      -0.107  -4.684   2.142  0.00  0.00    -0.246 OA
ENDBRANCH   5   8
BRANCH   6  11
ATOM     11  O   UNL     1       1.454  -2.514   2.391  0.00  0.00    -0.373 OA
BRANCH  11  12
ATOM     12  C   UNL     1       2.859  -2.688   2.198  0.00  0.00    +0.188 C 
BRANCH  12  13
ATOM     13  C   UNL     1       3.493  -3.195   3.495  0.00  0.00    +0.184 C 
BRANCH  13  14
ATOM     14  O   UNL     1       2.988  -4.498   3.794  0.00  0.00    -0.393 OA
ATOM     15  H   UNL     1       3.348  -4.882   4.606  0.00  0.00    +0.209 HD
ENDBRANCH  13  14
ENDBRANCH  12  13
ENDBRANCH  11  12
ENDBRANCH   6  11
TORSDOF 5
