REMARK  Name = ZINC50137969
REMARK  6 active torsions:
REMARK  status: ('A' for Active; 'I' for Inactive)
REMARK    1  A    between atoms: C_1  and  C_2
REMARK    2  A    between atoms: C_2  and  C_4
REMARK    3  A    between atoms: C_2  and  N_16
REMARK    4  A    between atoms: C_6  and  C_9
REMARK    5  A    between atoms: N_19  and  C_20
REMARK    6  A    between atoms: N_19  and  C_21
REMARK                            x       y       z     vdW  Elec       q    Type
REMARK                         _______ _______ _______ _____ _____    ______ ____
ROOT
ATOM      1  N   UNL     1      -1.372  -0.511   0.012  0.00  0.00    -0.288 N 
ATOM      2  C   UNL     1      -2.029  -0.655   1.181  0.00  0.00    +0.303 C 
ATOM      3  O   UNL     1      -1.480  -0.364   2.226  0.00  0.00    -0.253 OA
ATOM      4  N   UNL     1      -3.293  -1.122   1.190  0.00  0.00    -0.282 N 
ATOM      5  C   UNL     1      -3.954  -1.472  -0.069  0.00  0.00    +0.134 C 
ATOM      6  H   UNL     1      -1.810  -0.743  -0.822  0.00  0.00    +0.151 HD
ENDROOT
BRANCH   4   7
ATOM      7  C   UNL     1      -4.006  -1.278   2.460  0.00  0.00    +0.108 C 
ATOM      8  C   UNL     1      -5.299  -0.435   2.456  0.00  0.00    +0.032 C 
ATOM      9  C   UNL     1      -6.269  -1.311   3.276  0.00  0.00    +0.037 C 
ATOM     10  C   UNL     1      -5.769  -2.728   3.099  0.00  0.00    -0.042 A 
ATOM     11  C   UNL     1      -4.466  -2.710   2.631  0.00  0.00    -0.024 A 
ATOM     12  C   UNL     1      -3.800  -3.901   2.397  0.00  0.00    +0.006 A 
ATOM     13  C   UNL     1      -4.430  -5.108   2.628  0.00  0.00    +0.000 A 
ATOM     14  C   UNL     1      -5.730  -5.128   3.096  0.00  0.00    +0.000 A 
ATOM     15  C   UNL     1      -6.401  -3.939   3.329  0.00  0.00    +0.004 A 
ENDBRANCH   4   7
BRANCH   1  17
ATOM     16  C   UNL     1      -0.019   1.526   0.010  0.00  0.00    +0.038 C 
ATOM     17  C   UNL     1       0.002  -0.004   0.002  0.00  0.00    +0.160 C 
BRANCH  17  18
ATOM     18  C   UNL     1       0.707  -0.490  -1.238  0.00  0.00    +0.248 A 
ATOM     19  N   UNL     1       1.909  -0.990  -1.283  0.00  0.00    -0.190 NA
ATOM     20  C   UNL     1       2.224  -1.320  -2.549  0.00  0.00    +0.202 A 
ATOM     21  N   UNL     1       1.208  -1.026  -3.322  0.00  0.00    -0.056 NA
ATOM     22  O   UNL     1       0.202  -0.486  -2.478  0.00  0.00    -0.336 OA
BRANCH  20  23
ATOM     23  C   UNL     1       3.507  -1.917  -2.995  0.00  0.00    +0.023 A 
ATOM     24  C   UNL     1       4.511  -2.187  -2.067  0.00  0.00    +0.014 A 
ATOM     25  C   UNL     1       5.703  -2.743  -2.486  0.00  0.00    +0.039 A 
ATOM     26  C   UNL     1       5.902  -3.031  -3.826  0.00  0.00    +0.123 A 
ATOM     27  C   UNL     1       4.906  -2.763  -4.752  0.00  0.00    +0.039 A 
ATOM     28  C   UNL     1       3.709  -2.213  -4.341  0.00  0.00    +0.014 A 
ATOM     29  F   UNL     1       7.070  -3.575  -4.232  0.00  0.00    -0.205 F 
ENDBRANCH  20  23
ENDBRANCH  17  18
ENDBRANCH   1  17
TORSDOF 4
