REMARK  Name = ZINC39357607
REMARK  11 active torsions:
REMARK  status: ('A' for Active; 'I' for Inactive)
REMARK    1  A    between atoms: C_4  and  C_7
REMARK    2  A    between atoms: C_9  and  C_17
REMARK    3  A    between atoms: N_18  and  N_19
REMARK    4  A    between atoms: C_24  and  C_27
REMARK    5  A    between atoms: C_27  and  C_28
REMARK    6  A    between atoms: N_30  and  C_31
REMARK    7  A    between atoms: C_31  and  C_32
REMARK    8  A    between atoms: C_32  and  C_33
REMARK    9  A    between atoms: C_33  and  C_34
REMARK   10  A    between atoms: C_34  and  C_35
REMARK   11  A    between atoms: C_35  and  C_36
REMARK                            x       y       z     vdW  Elec       q    Type
REMARK                         _______ _______ _______ _____ _____    ______ ____
ROOT
ATOM      1  N   UNL     1       4.617  -0.267  -4.793  0.00  0.00    -0.127 NA
ATOM      2  C   UNL     1       4.886  -0.846  -5.960  0.00  0.00    +0.183 C 
ATOM      3  N   UNL     1       5.018  -2.183  -6.205  0.00  0.00    -0.263 N 
ATOM      4  C   UNL     1       5.289  -2.662  -7.411  0.00  0.00    +0.233 C 
ATOM      5  O   UNL     1       5.410  -3.845  -7.648  0.00  0.00    -0.274 OA
ATOM      6  C   UNL     1       5.431  -1.577  -8.468  0.00  0.00    +0.149 C 
ATOM      7  S   UNL     1       5.125  -0.084  -7.440  0.00  0.00    -0.075 S 
ATOM      8  H   UNL     1       4.911  -2.805  -5.468  0.00  0.00    +0.157 HD
ENDROOT
BRANCH   1  10
ATOM      9  C   UNL     1       4.191  -0.413  -2.576  0.00  0.00    +0.141 C 
ATOM     10  N   UNL     1       4.458  -0.989  -3.736  0.00  0.00    -0.155 NA
BRANCH   9  12
ATOM     11  C   UNL     1       3.711  -0.707  -0.038  0.00  0.00    +0.142 C 
ATOM     12  C   UNL     1       4.019  -1.190  -1.438  0.00  0.00    +0.008 C 
ATOM     13  C   UNL     1       4.095  -2.586  -1.345  0.00  0.00    +0.005 A 
ATOM     14  C   UNL     1       4.350  -3.591  -2.299  0.00  0.00    +0.010 A 
ATOM     15  C   UNL     1       4.362  -4.896  -1.918  0.00  0.00    +0.001 A 
ATOM     16  C   UNL     1       4.128  -5.272  -0.596  0.00  0.00    +0.002 A 
ATOM     17  C   UNL     1       3.876  -4.357   0.374  0.00  0.00    +0.026 A 
ATOM     18  C   UNL     1       3.847  -2.977   0.050  0.00  0.00    +0.044 A 
ATOM     19  N   UNL     1       3.628  -1.909   0.798  0.00  0.00    -0.373 N 
ATOM     20  H   UNL     1       3.443  -1.918   1.750  0.00  0.00    +0.161 HD
BRANCH  11  24
ATOM     21  C   UNL     1      -0.017   1.378   0.010  0.00  0.00    +0.000 A 
ATOM     22  C   UNL     1       1.171   2.086   0.002  0.00  0.00    +0.000 A 
ATOM     23  C   UNL     1       2.377   1.411  -0.013  0.00  0.00    +0.006 A 
ATOM     24  C   UNL     1       2.396   0.029  -0.020  0.00  0.00    -0.021 A 
ATOM     25  C   UNL     1       1.208  -0.679  -0.012  0.00  0.00    +0.006 A 
ATOM     26  C   UNL     1       0.002  -0.004   0.002  0.00  0.00    +0.000 A 
ENDBRANCH  11  24
ENDBRANCH   9  12
ENDBRANCH   1  10
BRANCH   6  27
ATOM     27  C   UNL     1       6.839  -1.567  -9.068  0.00  0.00    +0.119 C 
BRANCH  27  28
ATOM     28  C   UNL     1       6.900  -0.564 -10.191  0.00  0.00    +0.215 C 
ATOM     29  O   UNL     1       5.914   0.079 -10.483  0.00  0.00    -0.276 OA
ATOM     30  N   UNL     1       8.049  -0.382 -10.871  0.00  0.00    -0.315 N 
ATOM     31  H   UNL     1       8.837  -0.897 -10.637  0.00  0.00    +0.149 HD
BRANCH  30  32
ATOM     32  C   UNL     1       8.108   0.593 -11.963  0.00  0.00    +0.104 C 
BRANCH  32  33
ATOM     33  C   UNL     1       9.516   0.602 -12.562  0.00  0.00    +0.019 C 
BRANCH  33  34
ATOM     34  C   UNL     1       9.577   1.620 -13.703  0.00  0.00    +0.002 C 
BRANCH  34  35
ATOM     35  C   UNL     1      10.985   1.630 -14.302  0.00  0.00    +0.011 C 
BRANCH  35  36
ATOM     36  C   UNL     1      11.046   2.648 -15.443  0.00  0.00    +0.125 C 
BRANCH  36  37
ATOM     37  C   UNL     1      12.433   2.658 -16.033  0.00  0.00    +0.356 C 
ATOM     38  O   UNL     1      13.292   1.919 -15.583  0.00  0.00    -0.246 OA
ATOM     39  O   UNL     1      12.695   3.405 -16.960  0.00  0.00    -0.246 OA
ENDBRANCH  36  37
ENDBRANCH  35  36
ENDBRANCH  34  35
ENDBRANCH  33  34
ENDBRANCH  32  33
ENDBRANCH  30  32
ENDBRANCH  27  28
ENDBRANCH   6  27
TORSDOF 11
