REMARK  Name = ZINC04618961
REMARK  10 active torsions:
REMARK  status: ('A' for Active; 'I' for Inactive)
REMARK    1  A    between atoms: C_1  and  C_2
REMARK    2  A    between atoms: C_2  and  C_4
REMARK    3  A    between atoms: C_2  and  N_58
REMARK    4  A    between atoms: C_17  and  C_18
REMARK    5  A    between atoms: C_17  and  N_58
REMARK    6  A    between atoms: C_20  and  O_30
REMARK    7  A    between atoms: C_21  and  O_25
REMARK    8  A    between atoms: O_25  and  C_26
REMARK    9  A    between atoms: C_26  and  C_27
REMARK   10  A    between atoms: O_30  and  C_31
REMARK                            x       y       z     vdW  Elec       q    Type
REMARK                         _______ _______ _______ _____ _____    ______ ____
ROOT
ATOM      1  C   UNL     1       1.526   0.031   6.144  0.00  0.00    -0.046 C 
ENDROOT
BRANCH   1   2
ATOM      2  C   UNL     1       0.937   0.438   4.818  0.00  0.00    -0.059 A 
ATOM      3  C   UNL     1       1.347   1.611   4.212  0.00  0.00    +0.051 A 
ATOM      4  C   UNL     1       0.807   1.987   2.993  0.00  0.00    +0.163 A 
ATOM      5  C   UNL     1      -0.148   1.182   2.381  0.00  0.00    +0.181 A 
ATOM      6  C   UNL     1      -0.559   0.009   2.996  0.00  0.00    +0.086 A 
ATOM      7  C   UNL     1      -0.012  -0.362   4.211  0.00  0.00    +0.025 A 
ATOM      8 CL   UNL     1      -1.756  -0.995   2.239  0.00  0.00    -0.080 Cl
BRANCH   4   9
ATOM      9  O   UNL     1       1.209   3.141   2.396  0.00  0.00    -0.491 OA
ATOM     10  C   UNL     1       2.193   3.918   3.083  0.00  0.00    +0.277 C 
ENDBRANCH   4   9
BRANCH   5  11
ATOM     11  O   UNL     1      -0.682   1.547   1.184  0.00  0.00    -0.478 OA
BRANCH  11  12
ATOM     12  C   UNL     1      -0.013   1.086   0.008  0.00  0.00    +0.324 C 
BRANCH  12  13
ATOM     13  C   UNL     1      -0.742   1.585  -1.213  0.00  0.00    +0.248 C 
ATOM     14  O   UNL     1      -1.736   2.268  -1.088  0.00  0.00    -0.272 OA
ATOM     15  N   UNL     1      -0.288   1.272  -2.443  0.00  0.00    -0.327 N 
ATOM     16  H   UNL     1       0.507   0.726  -2.543  0.00  0.00    +0.145 HD
ATOM     17  H   UNL     1      -0.758   1.594  -3.229  0.00  0.00    +0.145 HD
ENDBRANCH  12  13
ENDBRANCH  11  12
ENDBRANCH   5  11
ENDBRANCH   1   2
BRANCH   1  18
ATOM     18  N   UNL     1       0.705   0.596   7.232  0.00  0.00    +0.384 N 
ATOM     19  H   UNL     1       0.696   1.619   7.153  0.00  0.00    -0.085 HD
ATOM     20  H   UNL     1      -0.254   0.238   7.152  0.00  0.00    -0.085 HD
BRANCH  18  22
ATOM     21  C   UNL     1       2.356   1.202   8.944  0.00  0.00    -0.013 C 
ATOM     22  C   UNL     1       1.259   0.213   8.544  0.00  0.00    -0.068 C 
BRANCH  22  23
ATOM     23  C   UNL     1       0.142   0.241   9.589  0.00  0.00    -0.041 C 
ATOM     24  C   UNL     1      -0.955  -0.748   9.190  0.00  0.00    +0.009 C 
ATOM     25  C   UNL     1      -2.072  -0.720  10.234  0.00  0.00    -0.010 C 
ATOM     26  C   UNL     1      -1.504  -1.113  11.600  0.00  0.00    +0.007 C 
ATOM     27  C   UNL     1      -0.407  -0.123  11.999  0.00  0.00    -0.010 C 
ATOM     28  C   UNL     1       0.710  -0.151  10.954  0.00  0.00    +0.009 C 
ATOM     29  C   UNL     1      -0.996   1.286  12.078  0.00  0.00    +0.007 C 
ATOM     30  C   UNL     1      -1.565   1.679  10.713  0.00  0.00    -0.010 C 
ATOM     31  C   UNL     1      -2.661   0.690  10.313  0.00  0.00    +0.007 C 
ATOM     32  C   UNL     1      -0.447   1.651   9.668  0.00  0.00    +0.009 C 
ENDBRANCH  22  23
ENDBRANCH  18  22
ENDBRANCH   1  18
TORSDOF 8
