REMARK  Name = ZINC14477816
REMARK  5 active torsions:
REMARK  status: ('A' for Active; 'I' for Inactive)
REMARK    1  A    between atoms: C_1  and  C_2
REMARK    2  A    between atoms: C_2  and  C_3
REMARK    3  A    between atoms: C_3  and  C_4
REMARK    4  A    between atoms: N_6  and  C_7
REMARK    5  A    between atoms: C_20  and  C_23
REMARK                            x       y       z     vdW  Elec       q    Type
REMARK                         _______ _______ _______ _____ _____    ______ ____
ROOT
ATOM      1  C   UNL     1       4.678   2.070   1.219  0.00  0.00    +0.039 A 
ATOM      2  C   UNL     1       5.653   2.260   2.186  0.00  0.00    +0.025 A 
ATOM      3  C   UNL     1       5.617   1.525   3.355  0.00  0.00    +0.023 A 
ATOM      4  C   UNL     1       4.611   0.602   3.555  0.00  0.00    +0.062 A 
ATOM      5  C   UNL     1       3.627   0.405   2.586  0.00  0.00    +0.052 A 
ATOM      6  C   UNL     1       3.657   1.140   1.415  0.00  0.00    +0.003 A 
ATOM      7  C   UNL     1       2.628   0.986   0.334  0.00  0.00    +0.050 C 
ATOM      8  C   UNL     1       1.714   2.189   0.292  0.00  0.00    -0.023 C 
ATOM      9  C   UNL     1       0.479   1.818   0.061  0.00  0.00    -0.030 C 
ATOM     10  C   UNL     1       0.396   0.312  -0.092  0.00  0.00    +0.033 C 
ATOM     11  C   UNL     1       1.680  -0.198   0.619  0.00  0.00    +0.029 C 
ATOM     12  C   UNL     1       1.395  -0.254   2.122  0.00  0.00    +0.106 C 
ATOM     13  N   UNL     1       2.636  -0.543   2.842  0.00  0.00    -0.335 N 
ATOM     14 CL   UNL     1       4.569  -0.322   5.025  0.00  0.00    -0.082 Cl
ATOM     15  H   UNL     1       2.965  -1.475   2.636  0.00  0.00    +0.147 HD
ENDROOT
BRANCH  12  16
ATOM     16  C   UNL     1       0.846   1.073   2.579  0.00  0.00    -0.009 A 
ATOM     17  C   UNL     1       1.708   2.081   2.966  0.00  0.00    +0.008 A 
ATOM     18  C   UNL     1       1.205   3.300   3.380  0.00  0.00    +0.020 A 
ATOM     19  C   UNL     1      -0.162   3.508   3.418  0.00  0.00    +0.042 A 
ATOM     20  C   UNL     1      -1.026   2.498   3.036  0.00  0.00    +0.040 A 
ATOM     21  C   UNL     1      -0.522   1.279   2.616  0.00  0.00    +0.047 A 
ATOM     22 CL   UNL     1      -1.605   0.010   2.136  0.00  0.00    -0.083 Cl
ATOM     23 CL   UNL     1      -0.794   5.037   3.945  0.00  0.00    -0.083 Cl
ENDBRANCH  12  16
BRANCH   1  26
ATOM     24  C   UNL     1       5.317   4.025   0.022  0.00  0.00    +0.217 C 
ATOM     25  O   UNL     1       5.881   4.434   1.015  0.00  0.00    -0.275 OA
ATOM     26  N   UNL     1       4.718   2.818   0.036  0.00  0.00    -0.285 N 
ATOM     27  H   UNL     1       4.314   2.467  -0.773  0.00  0.00    +0.155 HD
BRANCH  24  28
ATOM     28  C   UNL     1       5.286   4.867  -1.227  0.00  0.00    +0.096 C 
BRANCH  28  30
ATOM     29  C   UNL     1       6.002   7.034  -2.245  0.00  0.00    +0.004 C 
ATOM     30  C   UNL     1       6.033   6.179  -0.977  0.00  0.00    +0.006 C 
ENDBRANCH  28  30
ENDBRANCH  24  28
ENDBRANCH   1  26
TORSDOF 4
