REMARK  Name = ZINC26841482
REMARK  6 active torsions:
REMARK  status: ('A' for Active; 'I' for Inactive)
REMARK    1  A    between atoms: C_1  and  C_2
REMARK    2  A    between atoms: C_2  and  N_3
REMARK    3  A    between atoms: C_4  and  N_5
REMARK    4  A    between atoms: C_12  and  C_19
REMARK    5  A    between atoms: C_22  and  C_29
REMARK    6  A    between atoms: C_26  and  C_28
REMARK                            x       y       z     vdW  Elec       q    Type
REMARK                         _______ _______ _______ _____ _____    ______ ____
ROOT
ATOM      1  N   UNL     1       3.651  -0.513  -0.036  0.00  0.00    -0.274 N 
ATOM      2  C   UNL     1       3.748  -1.887   0.017  0.00  0.00    +0.109 C 
ATOM      3  C   UNL     1       2.600  -2.704   0.024  0.00  0.00    +0.052 C 
ATOM      4  C   UNL     1       1.344  -2.124  -0.022  0.00  0.00    +0.026 C 
ATOM      5  C   UNL     1       1.250  -0.660  -0.078  0.00  0.00    +0.088 A 
ATOM      6  C   UNL     1       2.428   0.111  -0.083  0.00  0.00    +0.119 A 
ATOM      7  N   UNL     1       2.338   1.434  -0.135  0.00  0.00    -0.328 N 
ATOM      8  C   UNL     1       1.157   2.049  -0.182  0.00  0.00    +0.122 A 
ATOM      9  C   UNL     1       1.121   3.456  -0.235  0.00  0.00    -0.009 A 
ATOM     10  C   UNL     1      -0.081   4.095  -0.282  0.00  0.00    +0.008 A 
ATOM     11  C   UNL     1      -1.265   3.345  -0.276  0.00  0.00    +0.019 A 
ATOM     12  C   UNL     1      -1.212   1.995  -0.232  0.00  0.00    +0.096 A 
ATOM     13  N   UNL     1      -0.015   1.345  -0.179  0.00  0.00    -0.269 N 
ATOM     14  C   UNL     1       0.003  -0.006  -0.128  0.00  0.00    +0.268 A 
ATOM     15  O   UNL     1      -1.036  -0.644  -0.124  0.00  0.00    -0.267 OA
ATOM     16  C   UNL     1       2.403   4.248  -0.241  0.00  0.00    +0.047 C 
ATOM     17  C   UNL     1       0.129  -2.957  -0.016  0.00  0.00    +0.112 C 
ATOM     18  N   UNL     1      -0.926  -2.889   0.781  0.00  0.00    -0.237 NA
ATOM     19  C   UNL     1      -1.940  -3.717   0.654  0.00  0.00    +0.100 C 
ATOM     20  C   UNL     1      -1.895  -4.686  -0.347  0.00  0.00    +0.100 C 
ATOM     21  S   UNL     1      -0.309  -4.318  -1.088  0.00  0.00    -0.052 S 
ATOM     22  N   UNL     1      -2.826  -5.663  -0.680  0.00  0.00    -0.278 N 
ATOM     23  C   UNL     1      -2.578  -6.510  -1.699  0.00  0.00    +0.215 C 
ATOM     24  O   UNL     1      -1.543  -6.420  -2.325  0.00  0.00    -0.276 OA
ATOM     25  C   UNL     1      -3.587  -7.569  -2.060  0.00  0.00    +0.109 C 
ATOM     26  H   UNL     1      -3.764  -5.744  -0.113  0.00  0.00    +0.155 HD
ATOM     27  H   UNL     1       3.252   2.047  -0.139  0.00  0.00    +0.168 HD
ENDROOT
BRANCH  19  28
ATOM     28  C   UNL     1      -3.110  -3.621   1.559  0.00  0.00    +0.003 A 
ATOM     29  C   UNL     1      -4.391  -3.891   1.077  0.00  0.00    +0.013 A 
ATOM     30  C   UNL     1      -5.476  -3.806   1.925  0.00  0.00    +0.039 A 
ATOM     31  C   UNL     1      -5.297  -3.442   3.249  0.00  0.00    +0.123 A 
ATOM     32  C   UNL     1      -4.027  -3.167   3.731  0.00  0.00    +0.039 A 
ATOM     33  C   UNL     1      -2.935  -3.255   2.893  0.00  0.00    +0.013 A 
ATOM     34  F   UNL     1      -6.363  -3.354   4.074  0.00  0.00    -0.205 F 
ENDBRANCH  19  28
BRANCH   1  36
ATOM     35  C   UNL     1       5.327   0.524  -1.484  0.00  0.00    +0.025 C 
ATOM     36  C   UNL     1       4.873   0.296  -0.041  0.00  0.00    +0.110 C 
ENDBRANCH   1  36
BRANCH   2  37
ATOM     37  N   UNL     1       4.938  -2.447   0.062  0.00  0.00    -0.253 NA
ATOM     38  H   UNL     1       5.028  -3.542   0.104  0.00  0.00    +0.171 HD
ENDBRANCH   2  37
TORSDOF 3
