REMARK  Name = ZINC39921099
REMARK  4 active torsions:
REMARK  status: ('A' for Active; 'I' for Inactive)
REMARK    1  A    between atoms: C_1  and  C_2
REMARK    2  A    between atoms: C_6  and  C_16
REMARK    3  A    between atoms: C_7  and  N_9
REMARK    4  A    between atoms: N_9  and  C_10
REMARK                            x       y       z     vdW  Elec       q    Type
REMARK                         _______ _______ _______ _____ _____    ______ ____
ROOT
ATOM      1  C   UNL     1      -0.070   1.491  -0.645  0.00  0.00    +0.086 C 
ATOM      2  C   UNL     1      -0.038  -0.009  -0.506  0.00  0.00    +0.110 A 
ATOM      3  C   UNL     1      -1.200  -0.684  -0.450  0.00  0.00    +0.088 A 
ATOM      4  C   UNL     1      -1.187  -2.090  -0.320  0.00  0.00    +0.148 A 
ATOM      5  C   UNL     1       0.051  -2.736  -0.254  0.00  0.00    +0.114 A 
ATOM      6  C   UNL     1      -0.254  -4.168  -0.123  0.00  0.00    +0.057 A 
ATOM      7  C   UNL     1      -1.619  -4.257  -0.122  0.00  0.00    +0.200 A 
ATOM      8  O   UNL     1      -2.147  -3.026  -0.239  0.00  0.00    -0.440 OA
ATOM      9  C   UNL     1       1.233  -1.970  -0.319  0.00  0.00    +0.348 A 
ATOM     10  O   UNL     1       2.322  -2.515  -0.263  0.00  0.00    -0.244 OA
ATOM     11  O   UNL     1       1.149  -0.633  -0.448  0.00  0.00    -0.427 OA
ENDROOT
BRANCH   6  12
ATOM     12  C   UNL     1       0.714  -5.281  -0.016  0.00  0.00    -0.009 A 
ATOM     13  C   UNL     1       1.578  -5.588  -1.075  0.00  0.00    +0.028 A 
ATOM     14  C   UNL     1       2.464  -6.634  -0.931  0.00  0.00    +0.111 A 
ATOM     15  N   UNL     1       2.504  -7.341   0.183  0.00  0.00    -0.263 NA
ATOM     16  C   UNL     1       1.707  -7.085   1.204  0.00  0.00    +0.111 A 
ATOM     17  C   UNL     1       0.795  -6.054   1.150  0.00  0.00    +0.028 A 
ENDBRANCH   6  12
BRANCH   7  18
ATOM     18  N   UNL     1      -2.344  -5.431  -0.018  0.00  0.00    -0.285 N 
ATOM     19  H   UNL     1      -1.885  -6.286  -0.023  0.00  0.00    +0.155 HD
BRANCH  18  20
ATOM     20  C   UNL     1      -3.735  -5.385   0.095  0.00  0.00    +0.034 A 
ATOM     21  C   UNL     1      -4.509  -6.426  -0.404  0.00  0.00    +0.023 A 
ATOM     22  C   UNL     1      -5.884  -6.377  -0.290  0.00  0.00    +0.002 A 
ATOM     23  C   UNL     1      -6.492  -5.294   0.319  0.00  0.00    +0.000 A 
ATOM     24  C   UNL     1      -5.725  -4.256   0.816  0.00  0.00    +0.002 A 
ATOM     25  C   UNL     1      -4.348  -4.301   0.711  0.00  0.00    +0.023 A 
ENDBRANCH  18  20
ENDBRANCH   7  18
TORSDOF 3
