REMARK  Name = ZINC05095072
REMARK  9 active torsions:
REMARK  status: ('A' for Active; 'I' for Inactive)
REMARK    1  A    between atoms: C_1  and  C_2
REMARK    2  A    between atoms: C_9  and  N_31
REMARK    3  A    between atoms: C_10  and  C_29
REMARK    4  A    between atoms: C_11  and  C_13
REMARK    5  A    between atoms: C_16  and  O_27
REMARK    6  A    between atoms: C_17  and  O_19
REMARK    7  A    between atoms: O_19  and  C_20
REMARK    8  A    between atoms: C_20  and  C_21
REMARK    9  A    between atoms: O_27  and  C_28
REMARK                            x       y       z     vdW  Elec       q    Type
REMARK                         _______ _______ _______ _____ _____    ______ ____
ROOT
ATOM      1  C   UNL     1      -3.190   9.449   1.228  0.00  0.00    +0.068 C 
ATOM      2  C   UNL     1      -2.687  10.823   0.867  0.00  0.00    +0.068 A 
ATOM      3  C   UNL     1      -1.366  11.168   0.617  0.00  0.00    +0.049 A 
ATOM      4  C   UNL     1      -1.325  12.503   0.326  0.00  0.00    +0.222 A 
ATOM      5  N   UNL     1      -2.582  12.972   0.391  0.00  0.00    -0.246 N 
ATOM      6  H   UNL     1      -2.867  13.915   0.225  0.00  0.00    +0.192 HD
ATOM      7  N   UNL     1      -3.422  11.901   0.733  0.00  0.00    -0.176 NA
ATOM      8  O   UNL     1      -0.171  13.154   0.035  0.00  0.00    -0.423 OA
ATOM      9  C   UNL     1       0.988  12.520   0.305  0.00  0.00    +0.200 C 
ATOM     10  C   UNL     1       1.077  11.202   0.595  0.00  0.00    +0.098 C 
ATOM     11  C   UNL     1      -0.133  10.302   0.638  0.00  0.00    +0.101 C 
ENDROOT
BRANCH  11  12
ATOM     12  C   UNL     1      -0.132   9.390  -0.561  0.00  0.00    -0.031 A 
ATOM     13  C   UNL     1      -0.150   9.926  -1.835  0.00  0.00    +0.008 A 
ATOM     14  C   UNL     1      -0.150   9.093  -2.939  0.00  0.00    +0.050 A 
ATOM     15  C   UNL     1      -0.129   7.718  -2.769  0.00  0.00    +0.162 A 
ATOM     16  C   UNL     1      -0.110   7.179  -1.487  0.00  0.00    +0.163 A 
ATOM     17  C   UNL     1      -0.117   8.019  -0.385  0.00  0.00    +0.054 A 
BRANCH  15  18
ATOM     18  O   UNL     1      -0.129   6.898  -3.854  0.00  0.00    -0.491 OA
ATOM     19  C   UNL     1      -0.150   7.522  -5.139  0.00  0.00    +0.277 C 
ENDBRANCH  15  18
BRANCH  16  20
ATOM     20  O   UNL     1      -0.090   5.830  -1.315  0.00  0.00    -0.484 OA
BRANCH  20  21
ATOM     21  C   UNL     1      -0.070   5.347   0.030  0.00  0.00    +0.264 C 
BRANCH  21  22
ATOM     22  C   UNL     1      -0.050   3.840   0.022  0.00  0.00    -0.010 A 
ATOM     23  C   UNL     1       1.156   3.165   0.008  0.00  0.00    +0.007 A 
ATOM     24  C   UNL     1       1.175   1.783   0.000  0.00  0.00    +0.000 A 
ATOM     25  C   UNL     1      -0.013   1.076   0.008  0.00  0.00    +0.000 A 
ATOM     26  C   UNL     1      -1.219   1.751   0.017  0.00  0.00    +0.000 A 
ATOM     27  C   UNL     1      -1.238   3.133   0.030  0.00  0.00    +0.007 A 
ENDBRANCH  21  22
ENDBRANCH  20  21
ENDBRANCH  16  20
ENDBRANCH  11  12
BRANCH   9  28
ATOM     28  N   UNL     1       2.147  13.256   0.285  0.00  0.00    -0.328 N 
ATOM     29  H   UNL     1       2.116  14.204   0.081  0.00  0.00    +0.145 HD
ATOM     30  H   UNL     1       2.997  12.828   0.475  0.00  0.00    +0.145 HD
ENDBRANCH   9  28
BRANCH  10  31
ATOM     31  C   UNL     1       2.365  10.640   0.870  0.00  0.00    +0.101 C 
ATOM     32  N   UNL     1       3.386  10.194   1.088  0.00  0.00    -0.191 NA
ENDBRANCH  10  31
TORSDOF 7
