REMARK  Name = ZINC44360707
REMARK  10 active torsions:
REMARK  status: ('A' for Active; 'I' for Inactive)
REMARK    1  A    between atoms: C_1  and  C_2
REMARK    2  A    between atoms: C_2  and  O_3
REMARK    3  A    between atoms: O_3  and  C_4
REMARK    4  A    between atoms: C_4  and  C_6
REMARK    5  A    between atoms: C_6  and  C_8
REMARK    6  A    between atoms: C_6  and  N_31
REMARK    7  A    between atoms: C_8  and  C_9
REMARK    8  A    between atoms: C_10  and  C_19
REMARK    9  A    between atoms: C_16  and  C_18
REMARK   10  A    between atoms: C_22  and  C_25
REMARK                            x       y       z     vdW  Elec       q    Type
REMARK                         _______ _______ _______ _____ _____    ______ ____
ROOT
ATOM      1  C   UNL     1       1.238  -2.768  -4.984  0.00  0.00    +0.051 A 
ATOM      2  C   UNL     1       1.920  -1.969  -5.852  0.00  0.00    +0.068 A 
ATOM      3  N   UNL     1       2.426  -2.742  -6.827  0.00  0.00    -0.339 N 
ATOM      4  C   UNL     1       2.086  -4.002  -6.602  0.00  0.00    +0.116 A 
ATOM      5  N   UNL     1       1.345  -4.048  -5.449  0.00  0.00    -0.304 N 
ATOM      6  C   UNL     1       0.867  -5.239  -4.981  0.00  0.00    +0.093 A 
ATOM      7  C   UNL     1       1.119  -6.388  -5.643  0.00  0.00    +0.021 A 
ATOM      8  C   UNL     1       1.878  -6.374  -6.825  0.00  0.00    -0.046 A 
ATOM      9  C   UNL     1       2.353  -5.194  -7.307  0.00  0.00    +0.048 A 
ATOM     10  C   UNL     1       2.158  -7.659  -7.561  0.00  0.00    +0.044 C 
ATOM     11  H   UNL     1       2.956  -2.427  -7.576  0.00  0.00    +0.167 HD
ENDROOT
BRANCH   2  12
ATOM     12  C   UNL     1       2.077  -0.498  -5.740  0.00  0.00    +0.000 A 
ATOM     13  C   UNL     1       0.977   0.298  -5.421  0.00  0.00    +0.010 A 
ATOM     14  C   UNL     1       1.123   1.663  -5.316  0.00  0.00    +0.009 A 
ATOM     15  C   UNL     1       2.370   2.250  -5.529  0.00  0.00    -0.018 A 
ATOM     16  C   UNL     1       3.470   1.454  -5.848  0.00  0.00    +0.009 A 
ATOM     17  C   UNL     1       3.325   0.088  -5.947  0.00  0.00    +0.010 A 
BRANCH  15  18
ATOM     18  C   UNL     1       2.527   3.720  -5.417  0.00  0.00    -0.018 A 
ATOM     19  C   UNL     1       1.431   4.518  -5.093  0.00  0.00    +0.008 A 
ATOM     20  C   UNL     1       1.583   5.886  -4.989  0.00  0.00    +0.001 A 
ATOM     21  C   UNL     1       2.820   6.465  -5.206  0.00  0.00    +0.000 A 
ATOM     22  C   UNL     1       3.911   5.679  -5.528  0.00  0.00    +0.001 A 
ATOM     23  C   UNL     1       3.772   4.309  -5.629  0.00  0.00    +0.008 A 
ENDBRANCH  15  18
ENDBRANCH   2  12
BRANCH   1  24
ATOM     24  C   UNL     1       0.509  -2.323  -3.742  0.00  0.00    +0.085 C 
BRANCH  24  25
ATOM     25  C   UNL     1       1.468  -2.353  -2.550  0.00  0.00    +0.167 C 
BRANCH  25  26
ATOM     26  N   UNL     1       1.877  -3.739  -2.285  0.00  0.00    -0.318 NA
ATOM     27  H   UNL     1       1.078  -4.318  -2.073  0.00  0.00    +0.119 HD
ATOM     28  H   UNL     1       2.400  -4.116  -3.061  0.00  0.00    +0.119 HD
ENDBRANCH  25  26
BRANCH  25  29
ATOM     29  C   UNL     1       0.775  -1.794  -1.334  0.00  0.00    +0.324 C 
ATOM     30  O   UNL     1       0.314  -2.540  -0.504  0.00  0.00    -0.249 OA
BRANCH  29  31
ATOM     31  O   UNL     1       0.671  -0.465  -1.174  0.00  0.00    -0.464 OA
BRANCH  31  33
ATOM     32  C   UNL     1      -0.019   1.526   0.010  0.00  0.00    +0.048 C 
ATOM     33  C   UNL     1       0.002  -0.004   0.002  0.00  0.00    +0.229 C 
ENDBRANCH  31  33
ENDBRANCH  29  31
ENDBRANCH  25  29
ENDBRANCH  24  25
ENDBRANCH   1  24
TORSDOF 8
