REMARK  Name = ZINC13190061
REMARK  10 active torsions:
REMARK  status: ('A' for Active; 'I' for Inactive)
REMARK    1  A    between atoms: C_3  and  N_32
REMARK    2  A    between atoms: C_6  and  C_7
REMARK    3  A    between atoms: C_7  and  C_9
REMARK    4  A    between atoms: C_7  and  O_31
REMARK    5  A    between atoms: C_9  and  N_10
REMARK    6  A    between atoms: N_10  and  C_11
REMARK    7  A    between atoms: C_14  and  S_20
REMARK    8  A    between atoms: C_16  and  N_17
REMARK    9  A    between atoms: S_20  and  N_23
REMARK   10  A    between atoms: C_26  and  C_29
REMARK                            x       y       z     vdW  Elec       q    Type
REMARK                         _______ _______ _______ _____ _____    ______ ____
ROOT
ATOM      1  C   UNL     1       1.193   1.811   0.053  0.00  0.00    +0.058 A 
ATOM      2  C   UNL     1       0.020   1.103   0.286  0.00  0.00    +0.027 A 
ATOM      3  C   UNL     1      -1.197   1.754   0.242  0.00  0.00    +0.030 A 
ATOM      4  C   UNL     1      -1.249   3.111  -0.023  0.00  0.00    +0.108 A 
ATOM      5  C   UNL     1      -0.083   3.818  -0.255  0.00  0.00    +0.063 A 
ATOM      6  C   UNL     1       1.137   3.172  -0.217  0.00  0.00    +0.149 A 
ENDROOT
BRANCH   6   7
ATOM      7  N   UNL     1       2.384   3.929  -0.465  0.00  0.00    +0.058 N 
ATOM      8  O   UNL     1       2.499   5.067  -0.047  0.00  0.00    -0.126 OA
ATOM      9  O   UNL     1       3.296   3.415  -1.087  0.00  0.00    -0.126 OA
ENDBRANCH   6   7
BRANCH   4  10
ATOM     10  S   UNL     1      -2.803   3.939  -0.071  0.00  0.00    +0.061 S 
ATOM     11  O   UNL     1      -3.699   3.167   0.716  0.00  0.00    -0.153 OA
ATOM     12  O   UNL     1      -2.542   5.310   0.195  0.00  0.00    -0.153 OA
BRANCH  10  13
ATOM     13  N   UNL     1      -3.353   3.857  -1.631  0.00  0.00    -0.177 NA
ATOM     14  C   UNL     1      -3.020   4.910  -2.599  0.00  0.00    +0.110 C 
ATOM     15  C   UNL     1      -4.309   5.438  -3.225  0.00  0.00    +0.032 C 
ATOM     16  C   UNL     1      -5.103   4.270  -3.815  0.00  0.00    +0.105 C 
ATOM     17  C   UNL     1      -5.471   3.287  -2.702  0.00  0.00    +0.032 C 
ATOM     18  C   UNL     1      -4.190   2.732  -2.072  0.00  0.00    +0.110 C 
BRANCH  16  19
ATOM     19  C   UNL     1      -6.361   4.793  -4.460  0.00  0.00    +0.359 C 
ATOM     20  O   UNL     1      -7.441   4.417  -4.069  0.00  0.00    -0.246 OA
ATOM     21  O   UNL     1      -6.282   5.675  -5.468  0.00  0.00    -0.246 OA
ENDBRANCH  16  19
ENDBRANCH  10  13
ENDBRANCH   4  10
BRANCH   1  22
ATOM     22  N   UNL     1       2.425   1.154   0.092  0.00  0.00    -0.339 N 
ATOM     23  H   UNL     1       3.248   1.663   0.015  0.00  0.00    +0.146 HD
BRANCH  22  24
ATOM     24  C   UNL     1       2.475  -0.301   0.250  0.00  0.00    +0.137 C 
BRANCH  24  25
ATOM     25  C   UNL     1       3.934  -0.763   0.262  0.00  0.00    +0.161 C 
BRANCH  25  31
ATOM     26  C   UNL     1       3.804  -2.936   1.497  0.00  0.00    +0.008 A 
ATOM     27  C   UNL     1       3.845  -4.317   1.532  0.00  0.00    +0.033 A 
ATOM     28  C   UNL     1       4.075  -5.031   0.371  0.00  0.00    +0.126 A 
ATOM     29  C   UNL     1       4.260  -4.364  -0.826  0.00  0.00    +0.033 A 
ATOM     30  C   UNL     1       4.214  -2.982  -0.861  0.00  0.00    +0.008 A 
ATOM     31  C   UNL     1       3.984  -2.269   0.300  0.00  0.00    -0.018 A 
BRANCH  28  32
ATOM     32  N   UNL     1       4.125  -6.510   0.408  0.00  0.00    +0.056 N 
ATOM     33  O   UNL     1       4.328  -7.139  -0.615  0.00  0.00    -0.126 OA
ATOM     34  O   UNL     1       3.962  -7.098   1.463  0.00  0.00    -0.126 OA
ENDBRANCH  28  32
ENDBRANCH  25  31
BRANCH  25  35
ATOM     35  O   UNL     1       4.591  -0.235   1.415  0.00  0.00    -0.386 OA
ATOM     36  H   UNL     1       4.197  -0.512   2.254  0.00  0.00    +0.210 HD
ENDBRANCH  25  35
ENDBRANCH  24  25
ENDBRANCH  22  24
ENDBRANCH   1  22
TORSDOF 10
