REMARK  Name = ZINC13414890
REMARK  9 active torsions:
REMARK  status: ('A' for Active; 'I' for Inactive)
REMARK    1  A    between atoms: C_1  and  C_2
REMARK    2  A    between atoms: C_2  and  C_4
REMARK    3  A    between atoms: C_2  and  O_35
REMARK    4  A    between atoms: C_5  and  C_6
REMARK    5  A    between atoms: C_6  and  C_7
REMARK    6  A    between atoms: C_6  and  C_8
REMARK    7  A    between atoms: C_6  and  O_34
REMARK    8  A    between atoms: C_14  and  C_33
REMARK    9  A    between atoms: C_26  and  O_32
REMARK                            x       y       z     vdW  Elec       q    Type
REMARK                         _______ _______ _______ _____ _____    ______ ____
ROOT
ATOM      1  C   UNL     1      -1.292   2.009  -1.931  0.00  0.00    +0.031 C 
ATOM      2  C   UNL     1      -2.739   1.760  -1.429  0.00  0.00    +0.008 C 
ATOM      3  C   UNL     1      -2.630   0.848  -0.180  0.00  0.00    +0.009 C 
ATOM      4  C   UNL     1      -1.132   0.823   0.135  0.00  0.00    +0.022 C 
ATOM      5  C   UNL     1      -0.473   0.902  -1.261  0.00  0.00    -0.020 C 
ATOM      6  C   UNL     1       1.022   1.022  -1.216  0.00  0.00    +0.008 C 
ATOM      7  C   UNL     1       1.619   0.413   0.072  0.00  0.00    +0.013 C 
ATOM      8  C   UNL     1       0.809  -0.748   0.552  0.00  0.00    +0.041 C 
ATOM      9  C   UNL     1      -0.632  -0.423   0.803  0.00  0.00    -0.056 C 
ATOM     10  C   UNL     1      -1.327  -1.155   1.613  0.00  0.00    +0.046 C 
ATOM     11  C   UNL     1      -1.105  -2.279   2.487  0.00  0.00    +0.160 C 
ATOM     12  O   UNL     1      -1.720  -2.223   3.571  0.00  0.00    -0.292 OA
ATOM     13  C   UNL     1      -0.275  -3.494   2.264  0.00  0.00    +0.066 C 
ATOM     14  C   UNL     1       0.363  -4.045   3.537  0.00  0.00    +0.043 C 
ATOM     15  C   UNL     1       1.313  -3.088   4.243  0.00  0.00    +0.119 C 
ATOM     16  C   UNL     1       2.506  -2.663   3.384  0.00  0.00    +0.058 C 
ATOM     17  C   UNL     1       2.080  -1.523   2.494  0.00  0.00    -0.024 C 
ATOM     18  C   UNL     1       1.311  -1.761   1.472  0.00  0.00    -0.066 C 
ATOM     19  C   UNL     1       0.888  -3.199   1.298  0.00  0.00    +0.042 C 
ATOM     20  C   UNL     1      -0.813  -0.374  -2.049  0.00  0.00    +0.012 C 
ENDROOT
BRANCH   1  21
ATOM     21  C   UNL     1      -0.807   3.392  -1.509  0.00  0.00    +0.085 C 
ATOM     22  C   UNL     1      -1.804   4.450  -1.986  0.00  0.00    +0.046 C 
BRANCH  21  24
ATOM     23  C   UNL     1       0.460   3.702   0.555  0.00  0.00    +0.002 C 
ATOM     24  C   UNL     1      -0.696   3.448  -0.007  0.00  0.00    +0.005 C 
BRANCH  23  26
ATOM     25  C   UNL     1       1.659   2.788   2.524  0.00  0.00    +0.042 C 
ATOM     26  C   UNL     1       0.572   3.758   2.057  0.00  0.00    +0.134 C 
BRANCH  26  27
ATOM     27  O   UNL     1      -0.678   3.389   2.641  0.00  0.00    -0.388 OA
ATOM     28  H   UNL     1      -0.973   2.498   2.410  0.00  0.00    +0.210 HD
ENDBRANCH  26  27
ENDBRANCH  23  26
ENDBRANCH  21  24
BRANCH  21  29
ATOM     29  O   UNL     1       0.472   3.647  -2.091  0.00  0.00    -0.385 OA
ATOM     30  H   UNL     1       1.216   3.484  -1.495  0.00  0.00    +0.211 HD
ENDBRANCH  21  29
ENDBRANCH   1  21
BRANCH  15  31
ATOM     31  O   UNL     1       0.602  -1.922   4.673  0.00  0.00    -0.391 OA
ATOM     32  H   UNL     1       1.153  -1.272   5.130  0.00  0.00    +0.210 HD
ENDBRANCH  15  31
TORSDOF 6
