REMARK  Name = ZINC10315613
REMARK  10 active torsions:
REMARK  status: ('A' for Active; 'I' for Inactive)
REMARK    1  A    between atoms: C_1  and  C_2
REMARK    2  A    between atoms: C_3  and  C_19
REMARK    3  A    between atoms: N_10  and  C_11
REMARK    4  A    between atoms: C_11  and  C_12
REMARK    5  A    between atoms: C_19  and  N_56
REMARK    6  A    between atoms: C_20  and  C_21
REMARK    7  A    between atoms: C_20  and  N_56
REMARK    8  A    between atoms: C_21  and  N_22
REMARK    9  A    between atoms: N_22  and  C_23
REMARK   10  A    between atoms: C_26  and  N_30
REMARK                            x       y       z     vdW  Elec       q    Type
REMARK                         _______ _______ _______ _____ _____    ______ ____
ROOT
ATOM      1  C   UNL     1       3.489  -1.571  -0.164  0.00  0.00    +0.064 C 
ATOM      2  C   UNL     1       3.089  -0.485   0.801  0.00  0.00    +0.018 A 
ATOM      3  C   UNL     1       2.338   0.584   0.490  0.00  0.00    -0.036 A 
ATOM      4  C   UNL     1       2.198   1.378   1.712  0.00  0.00    +0.001 A 
ATOM      5  C   UNL     1       1.551   2.576   2.022  0.00  0.00    +0.010 A 
ATOM      6  C   UNL     1       1.610   3.070   3.294  0.00  0.00    +0.001 A 
ATOM      7  C   UNL     1       2.309   2.390   4.283  0.00  0.00    +0.002 A 
ATOM      8  C   UNL     1       2.948   1.203   4.001  0.00  0.00    +0.026 A 
ATOM      9  C   UNL     1       2.905   0.684   2.711  0.00  0.00    +0.050 A 
ATOM     10  N   UNL     1       3.437  -0.442   2.123  0.00  0.00    -0.339 N 
ENDROOT
BRANCH  10  11
ATOM     11  C   UNL     1       4.253  -1.445   2.812  0.00  0.00    +0.158 C 
BRANCH  11  12
ATOM     12  C   UNL     1       3.382  -2.602   3.228  0.00  0.00    -0.009 A 
ATOM     13  C   UNL     1       3.225  -3.687   2.386  0.00  0.00    +0.007 A 
ATOM     14  C   UNL     1       2.426  -4.748   2.767  0.00  0.00    +0.000 A 
ATOM     15  C   UNL     1       1.784  -4.726   3.991  0.00  0.00    +0.001 A 
ATOM     16  C   UNL     1       1.940  -3.642   4.834  0.00  0.00    +0.020 A 
ATOM     17  C   UNL     1       2.744  -2.582   4.455  0.00  0.00    +0.046 A 
ATOM     18 CL   UNL     1       2.946  -1.223   5.516  0.00  0.00    -0.083 Cl
ENDBRANCH  11  12
ENDBRANCH  10  11
BRANCH   3  19
ATOM     19  C   UNL     1       1.756   0.907  -0.862  0.00  0.00    -0.044 C 
BRANCH  19  20
ATOM     20  N   UNL     1       0.418   0.296  -0.971  0.00  0.00    +0.383 N 
ATOM     21  H   UNL     1      -0.187   0.673  -0.231  0.00  0.00    -0.085 HD
ATOM     22  H   UNL     1       0.500  -0.721  -0.861  0.00  0.00    -0.085 HD
BRANCH  20  23
ATOM     23  C   UNL     1      -0.177   0.598  -2.287  0.00  0.00    -0.063 C 
BRANCH  23  24
ATOM     24  C   UNL     1      -1.562  -0.047  -2.370  0.00  0.00    +0.082 C 
BRANCH  24  25
ATOM     25  N   UNL     1      -2.160   0.247  -3.675  0.00  0.00    -0.345 N 
ATOM     26  H   UNL     1      -1.673   0.780  -4.322  0.00  0.00    +0.146 HD
BRANCH  25  27
ATOM     27  C   UNL     1      -3.433  -0.240  -3.986  0.00  0.00    +0.046 A 
ATOM     28  C   UNL     1      -4.131  -1.003  -3.059  0.00  0.00    +0.026 A 
ATOM     29  C   UNL     1      -5.389  -1.482  -3.370  0.00  0.00    +0.034 A 
ATOM     30  C   UNL     1      -5.953  -1.204  -4.602  0.00  0.00    +0.128 A 
ATOM     31  C   UNL     1      -5.260  -0.444  -5.527  0.00  0.00    +0.054 A 
ATOM     32  C   UNL     1      -4.004   0.044  -5.221  0.00  0.00    +0.064 A 
ATOM     33 CL   UNL     1      -3.138   1.004  -6.379  0.00  0.00    -0.082 Cl
BRANCH  30  34
ATOM     34  N   UNL     1      -7.301  -1.719  -4.931  0.00  0.00    +0.056 N 
ATOM     35  O   UNL     1      -7.912  -2.388  -4.117  0.00  0.00    -0.126 OA
ATOM     36  O   UNL     1      -7.798  -1.475  -6.015  0.00  0.00    -0.126 OA
ENDBRANCH  30  34
ENDBRANCH  25  27
ENDBRANCH  24  25
ENDBRANCH  23  24
ENDBRANCH  20  23
ENDBRANCH  19  20
ENDBRANCH   3  19
TORSDOF 9
