REMARK  Name = ZINC36270319
REMARK  10 active torsions:
REMARK  status: ('A' for Active; 'I' for Inactive)
REMARK    1  A    between atoms: C_1  and  C_2
REMARK    2  A    between atoms: C_2  and  N_3
REMARK    3  A    between atoms: N_3  and  C_4
REMARK    4  A    between atoms: N_3  and  C_20
REMARK    5  A    between atoms: C_4  and  C_5
REMARK    6  A    between atoms: C_6  and  C_15
REMARK    7  A    between atoms: C_11  and  N_14
REMARK    8  A    between atoms: C_20  and  C_21
REMARK    9  A    between atoms: C_20  and  C_22
REMARK   10  A    between atoms: C_20  and  C_23
REMARK                            x       y       z     vdW  Elec       q    Type
REMARK                         _______ _______ _______ _____ _____    ______ ____
ROOT
ATOM      1  C   UNL     1       2.327  -1.005  -1.608  0.00  0.00    +0.035 A 
ATOM      2  C   UNL     1       2.286  -1.513  -2.874  0.00  0.00    +0.098 A 
ATOM      3  N   UNL     1       3.525  -1.457  -3.389  0.00  0.00    -0.227 NA
ATOM      4  C   UNL     1       4.346  -0.931  -2.490  0.00  0.00    +0.139 A 
ATOM      5  N   UNL     1       3.619  -0.633  -1.366  0.00  0.00    -0.303 N 
ATOM      6  C   UNL     1       4.226  -0.070  -0.278  0.00  0.00    +0.115 A 
ATOM      7  C   UNL     1       5.553   0.206  -0.295  0.00  0.00    +0.041 A 
ATOM      8  C   UNL     1       6.322  -0.087  -1.439  0.00  0.00    +0.028 A 
ATOM      9  C   UNL     1       5.728  -0.655  -2.522  0.00  0.00    +0.048 A 
ENDROOT
BRANCH   2  10
ATOM     10  C   UNL     1       1.085  -2.036  -3.561  0.00  0.00    +0.039 A 
ATOM     11  C   UNL     1       0.753  -1.971  -4.887  0.00  0.00    +0.018 A 
ATOM     12  C   UNL     1      -0.435  -2.536  -5.301  0.00  0.00    +0.008 A 
ATOM     13  C   UNL     1      -1.236  -3.137  -4.385  0.00  0.00    +0.046 A 
ATOM     14  S   UNL     1      -0.306  -2.922  -2.877  0.00  0.00    -0.095 S 
ENDBRANCH   2  10
BRANCH   7  15
ATOM     15  N   UNL     1       6.162   0.783   0.828  0.00  0.00    -0.357 N 
ATOM     16  H   UNL     1       5.634   0.985   1.616  0.00  0.00    +0.142 HD
ATOM     17  H   UNL     1       7.112   0.981   0.817  0.00  0.00    +0.142 HD
ENDBRANCH   7  15
BRANCH   1  18
ATOM     18  C   UNL     1       1.164  -0.873  -0.658  0.00  0.00    -0.021 C 
BRANCH  18  19
ATOM     19  N   UNL     1       0.856   0.548  -0.456  0.00  0.00    +0.386 N 
ATOM     20  H   UNL     1       1.700   1.045  -0.217  0.00  0.00    -0.081 HD
BRANCH  19  21
ATOM     21  C   UNL     1       0.292   1.108  -1.692  0.00  0.00    -0.074 C 
ATOM     22  C   UNL     1      -0.404   2.434  -1.381  0.00  0.00    -0.010 C 
ATOM     23  C   UNL     1       1.416   1.346  -2.703  0.00  0.00    -0.010 C 
ATOM     24  C   UNL     1      -0.722   0.125  -2.280  0.00  0.00    -0.010 C 
ENDBRANCH  19  21
BRANCH  19  26
ATOM     25  C   UNL     1       0.226   1.919   1.474  0.00  0.00    -0.017 C 
ATOM     26  C   UNL     1      -0.120   0.688   0.633  0.00  0.00    -0.081 C 
ENDBRANCH  19  26
ENDBRANCH  18  19
ENDBRANCH   1  18
TORSDOF 6
