REMARK  Name = ZINC39654142
REMARK  8 active torsions:
REMARK  status: ('A' for Active; 'I' for Inactive)
REMARK    1  A    between atoms: C_1  and  C_2
REMARK    2  A    between atoms: C_2  and  O_3
REMARK    3  A    between atoms: O_3  and  C_4
REMARK    4  A    between atoms: C_7  and  C_10
REMARK    5  A    between atoms: C_10  and  C_11
REMARK    6  A    between atoms: C_11  and  N_12
REMARK    7  A    between atoms: C_13  and  C_15
REMARK    8  A    between atoms: C_26  and  C_28
REMARK                            x       y       z     vdW  Elec       q    Type
REMARK                         _______ _______ _______ _____ _____    ______ ____
ROOT
ATOM      1  C   UNL     1       3.731 -10.138   0.895  0.00  0.00    +0.100 C 
ATOM      2  C   UNL     1       2.499 -10.846   0.288  0.00  0.00    +0.121 C 
ATOM      3  N   UNL     1       2.917 -11.212  -1.086  0.00  0.00    -0.296 N 
ATOM      4  C   UNL     1       4.326 -11.647  -0.939  0.00  0.00    +0.115 C 
ATOM      5  C   UNL     1       4.928 -10.669   0.090  0.00  0.00    -0.004 C 
ATOM      6  C   UNL     1       5.634  -9.521  -0.626  0.00  0.00    -0.010 C 
ATOM      7  C   UNL     1       6.854 -10.066  -1.374  0.00  0.00    -0.082 C 
ATOM      8  N   UNL     1       7.767 -10.710  -0.421  0.00  0.00    +0.379 N 
ATOM      9  C   UNL     1       7.111 -11.870   0.195  0.00  0.00    -0.082 C 
ATOM     10  C   UNL     1       5.901 -11.401   1.009  0.00  0.00    -0.010 C 
ATOM     11  C   UNL     1       2.181 -11.162  -2.214  0.00  0.00    +0.252 C 
ATOM     12  O   UNL     1       2.671 -11.499  -3.275  0.00  0.00    -0.270 OA
ATOM     13  H   UNL     1       8.598 -11.014  -0.907  0.00  0.00    -0.086 HD
ATOM     14  H   UNL     1       8.023 -10.050   0.297  0.00  0.00    -0.086 HD
ENDROOT
BRANCH  11  15
ATOM     15  C   UNL     1       0.782 -10.696  -2.162  0.00  0.00    +0.108 A 
ATOM     16  C   UNL     1       0.485  -9.340  -2.334  0.00  0.00    +0.138 A 
ATOM     17  C   UNL     1      -0.828  -8.912  -2.285  0.00  0.00    +0.041 A 
ATOM     18  C   UNL     1      -1.848  -9.820  -2.066  0.00  0.00    +0.026 A 
ATOM     19  C   UNL     1      -1.564 -11.164  -1.895  0.00  0.00    +0.077 A 
ATOM     20  C   UNL     1      -0.255 -11.610  -1.948  0.00  0.00    +0.156 A 
ATOM     21  F   UNL     1       0.021 -12.922  -1.786  0.00  0.00    -0.203 F 
ATOM     22 CL   UNL     1      -2.853 -12.293  -1.621  0.00  0.00    -0.081 Cl
ATOM     23  F   UNL     1       1.480  -8.450  -2.547  0.00  0.00    -0.205 F 
ENDBRANCH  11  15
BRANCH   1  25
ATOM     24  N   UNL     1       4.203  -7.821   1.620  0.00  0.00    -0.315 N 
ATOM     25  C   UNL     1       3.610  -8.645   0.733  0.00  0.00    +0.218 C 
ATOM     26  O   UNL     1       2.979  -8.184  -0.195  0.00  0.00    -0.275 OA
ATOM     27  H   UNL     1       4.708  -8.189   2.362  0.00  0.00    +0.149 HD
BRANCH  24  28
ATOM     28  C   UNL     1       4.086  -6.369   1.462  0.00  0.00    +0.109 C 
BRANCH  28  29
ATOM     29  C   UNL     1       4.845  -5.670   2.593  0.00  0.00    +0.054 C 
BRANCH  29  33
ATOM     30  C   UNL     1       4.503  -1.435   2.134  0.00  0.00    +0.121 A 
ATOM     31  C   UNL     1       3.564  -2.132   2.881  0.00  0.00    +0.046 A 
ATOM     32  C   UNL     1       3.676  -3.501   3.028  0.00  0.00    +0.007 A 
ATOM     33  C   UNL     1       4.724  -4.177   2.431  0.00  0.00    -0.046 A 
ATOM     34  C   UNL     1       5.662  -3.486   1.686  0.00  0.00    +0.007 A 
ATOM     35  C   UNL     1       5.550  -2.117   1.532  0.00  0.00    +0.046 A 
BRANCH  30  36
ATOM     36  O   UNL     1       4.394  -0.089   1.988  0.00  0.00    -0.492 OA
BRANCH  36  38
ATOM     37  C   UNL     1       3.335   2.051   2.361  0.00  0.00    +0.048 C 
ATOM     38  C   UNL     1       3.291   0.547   2.637  0.00  0.00    +0.225 C 
ENDBRANCH  36  38
ENDBRANCH  30  36
ENDBRANCH  29  33
ENDBRANCH  28  29
ENDBRANCH  24  28
ENDBRANCH   1  25
TORSDOF 7
