REMARK  Name = ZINC35365935
REMARK  8 active torsions:
REMARK  status: ('A' for Active; 'I' for Inactive)
REMARK    1  A    between atoms: C_1  and  C_2
REMARK    2  A    between atoms: C_4  and  C_36
REMARK    3  A    between atoms: C_9  and  C_22
REMARK    4  A    between atoms: C_12  and  C_15
REMARK    5  A    between atoms: C_15  and  C_16
REMARK    6  A    between atoms: N_24  and  C_25
REMARK    7  A    between atoms: C_28  and  O_31
REMARK    8  A    between atoms: O_31  and  C_32
REMARK                            x       y       z     vdW  Elec       q    Type
REMARK                         _______ _______ _______ _____ _____    ______ ____
ROOT
ATOM      1  C   UNL     1       0.231   1.146  -0.484  0.00  0.00    +0.044 C 
ATOM      2  C   UNL     1       0.316  -0.353  -0.358  0.00  0.00    -0.050 A 
ATOM      3  C   UNL     1       0.502  -1.134  -1.484  0.00  0.00    +0.008 A 
ATOM      4  C   UNL     1       0.581  -2.507  -1.375  0.00  0.00    -0.029 A 
ATOM      5  C   UNL     1       0.472  -3.118  -0.127  0.00  0.00    +0.042 A 
ATOM      6  C   UNL     1       0.284  -2.322   0.998  0.00  0.00    +0.004 A 
ATOM      7  C   UNL     1       0.213  -0.951   0.886  0.00  0.00    +0.011 A 
ATOM      8  C   UNL     1       0.204  -3.268   2.166  0.00  0.00    +0.135 C 
ATOM      9  C   UNL     1       1.311  -2.978   3.187  0.00  0.00    +0.110 C 
ATOM     10  C   UNL     1       0.563  -2.660   4.504  0.00  0.00    +0.034 C 
ATOM     11  C   UNL     1      -0.846  -2.241   4.011  0.00  0.00    +0.060 C 
ATOM     12  N   UNL     1      -1.090  -3.148   2.858  0.00  0.00    -0.296 NA
ATOM     13  C   UNL     1       0.371  -4.638   1.563  0.00  0.00    +0.243 C 
ATOM     14  O   UNL     1       0.372  -5.695   2.159  0.00  0.00    -0.273 OA
ATOM     15  N   UNL     1       0.520  -4.465   0.237  0.00  0.00    -0.283 N 
ATOM     16  C   UNL     1       0.785  -3.348  -2.608  0.00  0.00    +0.045 C 
ATOM     17  H   UNL     1      -1.795  -2.770   2.243  0.00  0.00    +0.123 HD
ATOM     18  H   UNL     1       0.644  -5.191  -0.394  0.00  0.00    +0.155 HD
ENDROOT
BRANCH   9  19
ATOM     19  C   UNL     1       2.131  -1.793   2.748  0.00  0.00    +0.223 C 
ATOM     20  O   UNL     1       1.878  -0.687   3.178  0.00  0.00    -0.275 OA
ATOM     21  N   UNL     1       3.147  -1.961   1.878  0.00  0.00    -0.285 N 
ATOM     22  H   UNL     1       3.305  -2.831   1.480  0.00  0.00    +0.155 HD
BRANCH  21  23
ATOM     23  C   UNL     1       3.974  -0.879   1.550  0.00  0.00    +0.034 A 
ATOM     24  C   UNL     1       4.260   0.091   2.501  0.00  0.00    +0.027 A 
ATOM     25  C   UNL     1       5.076   1.157   2.176  0.00  0.00    +0.047 A 
ATOM     26  C   UNL     1       5.610   1.259   0.900  0.00  0.00    +0.120 A 
ATOM     27  C   UNL     1       5.325   0.290  -0.051  0.00  0.00    +0.047 A 
ATOM     28  C   UNL     1       4.514  -0.780   0.274  0.00  0.00    +0.027 A 
BRANCH  26  29
ATOM     29  O   UNL     1       6.413   2.308   0.581  0.00  0.00    -0.495 OA
ATOM     30  C   UNL     1       6.928   2.350  -0.751  0.00  0.00    +0.277 C 
ENDBRANCH  26  29
ENDBRANCH  21  23
ENDBRANCH   9  19
BRANCH  11  31
ATOM     31  C   UNL     1      -1.889  -2.464   5.107  0.00  0.00    +0.053 C 
BRANCH  31  32
ATOM     32  C   UNL     1      -3.223  -1.935   4.646  0.00  0.00    -0.046 A 
ATOM     33  C   UNL     1      -3.570  -0.621   4.896  0.00  0.00    +0.004 A 
ATOM     34  C   UNL     1      -4.793  -0.136   4.473  0.00  0.00    +0.000 A 
ATOM     35  C   UNL     1      -5.670  -0.966   3.799  0.00  0.00    +0.000 A 
ATOM     36  C   UNL     1      -5.323  -2.280   3.547  0.00  0.00    +0.000 A 
ATOM     37  C   UNL     1      -4.097  -2.764   3.967  0.00  0.00    +0.004 A 
ENDBRANCH  31  32
ENDBRANCH  11  31
TORSDOF 5
