REMARK  Name = ZINC66925994
REMARK  7 active torsions:
REMARK  status: ('A' for Active; 'I' for Inactive)
REMARK    1  A    between atoms: C_1  and  C_2
REMARK    2  A    between atoms: C_9  and  C_11
REMARK    3  A    between atoms: C_11  and  C_12
REMARK    4  A    between atoms: C_12  and  N_13
REMARK    5  A    between atoms: N_16  and  C_17
REMARK    6  A    between atoms: C_17  and  C_18
REMARK    7  A    between atoms: C_18  and  O_28
REMARK                            x       y       z     vdW  Elec       q    Type
REMARK                         _______ _______ _______ _____ _____    ______ ____
ROOT
ATOM      1  N   UNL     1       3.531   0.547   5.078  0.00  0.00    -0.299 N 
ATOM      2  C   UNL     1       4.018   1.404   5.997  0.00  0.00    +0.300 C 
ATOM      3  O   UNL     1       3.707   2.579   5.957  0.00  0.00    -0.253 OA
ATOM      4  N   UNL     1       4.849   0.959   6.960  0.00  0.00    -0.296 N 
ATOM      5  H   UNL     1       3.779  -0.390   5.109  0.00  0.00    +0.150 HD
ATOM      6  H   UNL     1       5.096   0.022   6.992  0.00  0.00    +0.150 HD
ENDROOT
BRANCH   1   7
ATOM      7  C   UNL     1       2.627   1.031   4.031  0.00  0.00    +0.115 C 
BRANCH   7   8
ATOM      8  C   UNL     1       2.225  -0.136   3.126  0.00  0.00    +0.114 C 
BRANCH   8  16
ATOM      9  C   UNL     1      -0.001   1.524   0.001  0.00  0.00    +0.028 C 
ATOM     10  C   UNL     1       0.005  -0.006   0.001  0.00  0.00    +0.073 C 
ATOM     11  C   UNL     1       0.620  -0.518  -1.305  0.00  0.00    +0.022 C 
ATOM     12  C   UNL     1       0.751  -2.041  -1.240  0.00  0.00    +0.003 C 
ATOM     13  C   UNL     1       1.679  -2.426  -0.086  0.00  0.00    +0.019 C 
ATOM     14  C   UNL     1       1.076  -1.937   1.234  0.00  0.00    +0.108 C 
ATOM     15  N   UNL     1       0.809  -0.495   1.129  0.00  0.00    -0.299 N 
ATOM     16  C   UNL     1       1.296   0.362   2.049  0.00  0.00    +0.217 C 
ATOM     17  O   UNL     1       0.986   1.534   2.009  0.00  0.00    -0.276 OA
ENDBRANCH   8  16
ENDBRANCH   7   8
ENDBRANCH   1   7
BRANCH   4  18
ATOM     18  C   UNL     1       5.378   1.891   7.959  0.00  0.00    +0.145 C 
BRANCH  18  19
ATOM     19  C   UNL     1       6.383   1.163   8.853  0.00  0.00    +0.107 C 
ATOM     20  C   UNL     1       5.691  -0.016   9.533  0.00  0.00    +0.041 C 
ATOM     21  C   UNL     1       6.646  -0.597  10.584  0.00  0.00    +0.008 C 
ATOM     22  C   UNL     1       6.769   0.406  11.729  0.00  0.00    +0.035 C 
ATOM     23  C   UNL     1       7.103   1.776  11.199  0.00  0.00    -0.041 A 
ATOM     24  C   UNL     1       6.922   2.125   9.880  0.00  0.00    -0.011 A 
ATOM     25  C   UNL     1       7.244   3.408   9.457  0.00  0.00    +0.007 A 
ATOM     26  C   UNL     1       7.747   4.334  10.348  0.00  0.00    +0.000 A 
ATOM     27  C   UNL     1       7.932   3.983  11.672  0.00  0.00    +0.000 A 
ATOM     28  C   UNL     1       7.610   2.709  12.094  0.00  0.00    +0.004 A 
BRANCH  19  29
ATOM     29  O   UNL     1       7.462   0.677   8.051  0.00  0.00    -0.382 OA
ATOM     30  H   UNL     1       7.945   1.370   7.580  0.00  0.00    +0.211 HD
ENDBRANCH  19  29
ENDBRANCH  18  19
ENDBRANCH   4  18
TORSDOF 6
