REMARK  Name = ZINC39665826
REMARK  13 active torsions:
REMARK  status: ('A' for Active; 'I' for Inactive)
REMARK    1  A    between atoms: C_1  and  C_2
REMARK    2  A    between atoms: C_2  and  C_4
REMARK    3  A    between atoms: C_2  and  O_31
REMARK    4  A    between atoms: C_4  and  N_5
REMARK    5  A    between atoms: C_6  and  C_8
REMARK    6  A    between atoms: C_19  and  C_21
REMARK    7  A    between atoms: C_21  and  C_22
REMARK    8  A    between atoms: C_22  and  C_23
REMARK    9  A    between atoms: C_26  and  O_29
REMARK   10  A    between atoms: O_29  and  C_30
REMARK   11  A    between atoms: O_31  and  C_32
REMARK   12  A    between atoms: C_35  and  O_38
REMARK   13  A    between atoms: O_38  and  C_39
REMARK                            x       y       z     vdW  Elec       q    Type
REMARK                         _______ _______ _______ _____ _____    ______ ____
ROOT
ATOM      1  C   UNL     1       1.659  -4.300  -2.643  0.00  0.00    +0.100 C 
ATOM      2  C   UNL     1       0.292  -4.940  -2.975  0.00  0.00    +0.121 C 
ATOM      3  N   UNL     1       0.287  -5.070  -4.451  0.00  0.00    -0.300 N 
ATOM      4  C   UNL     1       1.671  -5.479  -4.790  0.00  0.00    +0.115 C 
ATOM      5  C   UNL     1       2.562  -4.660  -3.835  0.00  0.00    -0.004 C 
ATOM      6  C   UNL     1       3.746  -5.500  -3.366  0.00  0.00    -0.010 C 
ATOM      7  C   UNL     1       4.661  -5.795  -4.559  0.00  0.00    -0.082 C 
ATOM      8  N   UNL     1       5.131  -4.532  -5.142  0.00  0.00    +0.379 N 
ATOM      9  C   UNL     1       3.993  -3.772  -5.674  0.00  0.00    -0.082 C 
ATOM     10  C   UNL     1       3.051  -3.392  -4.529  0.00  0.00    -0.010 C 
ATOM     11  C   UNL     1      -0.743  -4.862  -5.295  0.00  0.00    +0.216 C 
ATOM     12  O   UNL     1      -0.588  -5.011  -6.489  0.00  0.00    -0.276 OA
ATOM     13  H   UNL     1       5.595  -3.987  -4.431  0.00  0.00    -0.086 HD
ATOM     14  H   UNL     1       5.781  -4.729  -5.888  0.00  0.00    -0.086 HD
ENDROOT
BRANCH   1  16
ATOM     15  N   UNL     1       2.354  -2.116  -1.715  0.00  0.00    -0.312 N 
ATOM     16  C   UNL     1       1.522  -2.805  -2.521  0.00  0.00    +0.218 C 
ATOM     17  O   UNL     1       0.663  -2.221  -3.147  0.00  0.00    -0.275 OA
ATOM     18  H   UNL     1       3.041  -2.583  -1.214  0.00  0.00    +0.149 HD
BRANCH  15  19
ATOM     19  C   UNL     1       2.222  -0.662  -1.596  0.00  0.00    +0.148 C 
BRANCH  19  21
ATOM     20  C   UNL     1       3.062   1.368  -0.405  0.00  0.00    +0.053 C 
ATOM     21  C   UNL     1       3.279  -0.131  -0.626  0.00  0.00    +0.187 C 
BRANCH  21  22
ATOM     22  O   UNL     1       4.581  -0.348  -1.175  0.00  0.00    -0.488 OA
BRANCH  22  23
ATOM     23  C   UNL     1       5.617  -0.420  -0.298  0.00  0.00    +0.121 A 
ATOM     24  C   UNL     1       6.889  -0.735  -0.751  0.00  0.00    +0.049 A 
ATOM     25  C   UNL     1       7.942  -0.808   0.140  0.00  0.00    +0.049 A 
ATOM     26  C   UNL     1       7.726  -0.567   1.489  0.00  0.00    +0.120 A 
ATOM     27  C   UNL     1       6.454  -0.252   1.942  0.00  0.00    +0.049 A 
ATOM     28  C   UNL     1       5.403  -0.174   1.050  0.00  0.00    +0.049 A 
BRANCH  26  29
ATOM     29  O   UNL     1       8.763  -0.641   2.366  0.00  0.00    -0.495 OA
ATOM     30  C   UNL     1       8.469  -0.380   3.740  0.00  0.00    +0.277 C 
ENDBRANCH  26  29
ENDBRANCH  22  23
ENDBRANCH  21  22
ENDBRANCH  19  21
ENDBRANCH  15  19
ENDBRANCH   1  16
BRANCH  11  31
ATOM     31  C   UNL     1      -2.087  -4.446  -4.755  0.00  0.00    +0.100 C 
BRANCH  31  32
ATOM     32  C   UNL     1      -3.072  -4.279  -5.914  0.00  0.00    +0.044 C 
BRANCH  32  33
ATOM     33  C   UNL     1      -4.416  -3.863  -5.375  0.00  0.00    -0.047 A 
ATOM     34  C   UNL     1      -5.345  -4.823  -5.020  0.00  0.00    +0.007 A 
ATOM     35  C   UNL     1      -6.578  -4.444  -4.525  0.00  0.00    +0.046 A 
ATOM     36  C   UNL     1      -6.884  -3.098  -4.385  0.00  0.00    +0.120 A 
ATOM     37  C   UNL     1      -5.950  -2.136  -4.741  0.00  0.00    +0.046 A 
ATOM     38  C   UNL     1      -4.716  -2.521  -5.230  0.00  0.00    +0.007 A 
BRANCH  36  39
ATOM     39  O   UNL     1      -8.096  -2.723  -3.899  0.00  0.00    -0.495 OA
ATOM     40  C   UNL     1      -8.342  -1.320  -3.781  0.00  0.00    +0.277 C 
ENDBRANCH  36  39
ENDBRANCH  32  33
ENDBRANCH  31  32
ENDBRANCH  11  31
TORSDOF 10
