REMARK  Name = ZINC23855014
REMARK  7 active torsions:
REMARK  status: ('A' for Active; 'I' for Inactive)
REMARK    1  A    between atoms: C_1  and  C_2
REMARK    2  A    between atoms: C_2  and  C_3
REMARK    3  A    between atoms: C_3  and  C_27
REMARK    4  A    between atoms: N_6  and  C_10
REMARK    5  A    between atoms: C_10  and  N_11
REMARK    6  A    between atoms: N_14  and  C_17
REMARK    7  A    between atoms: C_17  and  C_18
REMARK                            x       y       z     vdW  Elec       q    Type
REMARK                         _______ _______ _______ _____ _____    ______ ____
ROOT
ATOM      1  C   UNL     1      -2.487   1.371   0.020  0.00  0.00    +0.205 C 
ENDROOT
BRANCH   1   5
ATOM      2  C   UNL     1       0.640   3.376   0.014  0.00  0.00    +0.138 C 
ATOM      3  C   UNL     1      -0.871   3.261   0.028  0.00  0.00    +0.252 C 
ATOM      4  O   UNL     1      -1.675   4.169   0.040  0.00  0.00    -0.272 OA
ATOM      5  N   UNL     1      -1.137   1.940   0.018  0.00  0.00    -0.210 N 
ATOM      6  C   UNL     1      -0.014   1.211   0.009  0.00  0.00    +0.311 C 
ATOM      7  O   UNL     1       0.002  -0.004   0.002  0.00  0.00    -0.252 OA
ATOM      8  N   UNL     1       1.094   1.974   0.002  0.00  0.00    -0.281 N 
ATOM      9  H   UNL     1       2.169   1.744  -0.009  0.00  0.00    +0.152 HD
BRANCH   2  10
ATOM     10  C   UNL     1       1.109   4.095  -1.224  0.00  0.00    -0.015 A 
ATOM     11  C   UNL     1       1.345   5.457  -1.185  0.00  0.00    +0.007 A 
ATOM     12  C   UNL     1       1.781   6.116  -2.318  0.00  0.00    +0.020 A 
ATOM     13  C   UNL     1       1.970   5.415  -3.496  0.00  0.00    +0.041 A 
ATOM     14  C   UNL     1       1.728   4.054  -3.537  0.00  0.00    +0.020 A 
ATOM     15  C   UNL     1       1.298   3.394  -2.401  0.00  0.00    +0.007 A 
ATOM     16 CL   UNL     1       2.510   6.244  -4.923  0.00  0.00    -0.084 Cl
ENDBRANCH   2  10
BRANCH   2  18
ATOM     17  C   UNL     1       0.709   3.303   2.511  0.00  0.00    +0.007 C 
ATOM     18  C   UNL     1       1.137   4.092   1.272  0.00  0.00    +0.037 C 
ENDBRANCH   2  18
ENDBRANCH   1   5
BRANCH   1  19
ATOM     19  N   UNL     1      -2.933   1.173   1.405  0.00  0.00    -0.290 NA
ATOM     20  C   UNL     1      -2.384  -0.071   1.963  0.00  0.00    +0.067 C 
ATOM     21  C   UNL     1      -2.806  -0.199   3.428  0.00  0.00    -0.063 C 
ATOM     22  N   UNL     1      -4.273  -0.188   3.516  0.00  0.00    +0.384 N 
ATOM     23  C   UNL     1      -4.821   1.056   2.959  0.00  0.00    -0.063 C 
ATOM     24  C   UNL     1      -4.400   1.185   1.493  0.00  0.00    +0.067 C 
ATOM     25  H   UNL     1      -4.655  -1.027   2.916  0.00  0.00    -0.081 HD
BRANCH  22  26
ATOM     26  C   UNL     1      -4.719  -0.386   4.902  0.00  0.00    -0.043 C 
BRANCH  26  27
ATOM     27  C   UNL     1      -4.346  -1.774   5.356  0.00  0.00    -0.063 A 
ATOM     28  C   UNL     1      -3.124  -2.001   5.962  0.00  0.00    +0.005 A 
ATOM     29  C   UNL     1      -2.777  -3.269   6.378  0.00  0.00    +0.046 A 
ATOM     30  C   UNL     1      -3.655  -4.334   6.189  0.00  0.00    +0.124 A 
ATOM     31  C   UNL     1      -4.882  -4.093   5.585  0.00  0.00    -0.002 A 
ATOM     32  C   UNL     1      -5.228  -2.824   5.173  0.00  0.00    +0.009 A 
ATOM     33  C   UNL     1      -5.618  -5.417   5.529  0.00  0.00    +0.080 C 
ATOM     34  C   UNL     1      -4.804  -6.277   6.524  0.00  0.00    +0.234 C 
ATOM     35  O   UNL     1      -3.510  -5.651   6.503  0.00  0.00    -0.491 OA
ENDBRANCH  26  27
ENDBRANCH  22  26
ENDBRANCH   1  19
TORSDOF 6
