REMARK  Name = ZINC39695762
REMARK  10 active torsions:
REMARK  status: ('A' for Active; 'I' for Inactive)
REMARK    1  A    between atoms: C_1  and  C_2
REMARK    2  A    between atoms: C_2  and  C_3
REMARK    3  A    between atoms: C_3  and  C_4
REMARK    4  A    between atoms: C_3  and  C_6
REMARK    5  A    between atoms: C_4  and  C_5
REMARK    6  A    between atoms: C_10  and  C_19
REMARK    7  A    between atoms: N_21  and  C_22
REMARK    8  A    between atoms: C_22  and  C_24
REMARK    9  A    between atoms: C_22  and  C_25
REMARK   10  A    between atoms: C_31  and  C_35
REMARK                            x       y       z     vdW  Elec       q    Type
REMARK                         _______ _______ _______ _____ _____    ______ ____
ROOT
ATOM      1  C   UNL     1       1.215  -2.024   1.279  0.00  0.00    +0.219 C 
ATOM      2  O   UNL     1       0.950  -2.805   2.169  0.00  0.00    -0.275 OA
ATOM      3  N   UNL     1       1.753  -2.472   0.128  0.00  0.00    -0.300 N 
ATOM      4  C   UNL     1       2.147  -1.679  -1.060  0.00  0.00    +0.121 C 
ATOM      5  C   UNL     1       3.465  -2.325  -1.542  0.00  0.00    +0.100 C 
ATOM      6  C   UNL     1       3.417  -3.764  -1.001  0.00  0.00    -0.004 C 
ATOM      7  C   UNL     1       2.091  -3.870  -0.234  0.00  0.00    +0.115 C 
ATOM      8  C   UNL     1       3.445  -4.763  -2.153  0.00  0.00    -0.010 C 
ATOM      9  C   UNL     1       3.455  -6.186  -1.587  0.00  0.00    -0.082 C 
ATOM     10  N   UNL     1       4.633  -6.365  -0.730  0.00  0.00    +0.379 N 
ATOM     11  C   UNL     1       4.552  -5.464   0.426  0.00  0.00    -0.082 C 
ATOM     12  C   UNL     1       4.588  -4.011  -0.054  0.00  0.00    -0.010 C 
ATOM     13  H   UNL     1       4.671  -7.321  -0.408  0.00  0.00    -0.086 HD
ATOM     14  H   UNL     1       5.467  -6.158  -1.258  0.00  0.00    -0.086 HD
ENDROOT
BRANCH   5  15
ATOM     15  C   UNL     1       3.526  -2.330  -3.048  0.00  0.00    +0.219 C 
ATOM     16  O   UNL     1       2.502  -2.313  -3.697  0.00  0.00    -0.275 OA
ATOM     17  N   UNL     1       4.720  -2.354  -3.673  0.00  0.00    -0.305 N 
ATOM     18  H   UNL     1       5.539  -2.368  -3.154  0.00  0.00    +0.149 HD
BRANCH  17  19
ATOM     19  C   UNL     1       4.780  -2.360  -5.137  0.00  0.00    +0.136 C 
ATOM     20  C   UNL     1       4.702  -0.922  -5.656  0.00  0.00    +0.036 C 
BRANCH  19  21
ATOM     21  C   UNL     1       6.076  -2.985  -5.585  0.00  0.00    +0.128 A 
ATOM     22  H   UNL     1       5.618  -3.697  -7.492  0.00  0.00    +0.167 HD
ATOM     23  N   UNL     1       7.166  -3.029  -4.876  0.00  0.00    -0.231 NA
ATOM     24  C   UNL     1       8.141  -3.662  -5.577  0.00  0.00    +0.089 A 
ATOM     25  C   UNL     1       9.474  -3.979  -5.303  0.00  0.00    +0.030 A 
ATOM     26  C   UNL     1      10.222  -4.641  -6.236  0.00  0.00    +0.005 A 
ATOM     27  C   UNL     1       9.671  -5.004  -7.457  0.00  0.00    -0.048 A 
ATOM     28  C   UNL     1       8.358  -4.701  -7.749  0.00  0.00    +0.031 A 
ATOM     29  C   UNL     1       7.583  -4.029  -6.814  0.00  0.00    +0.067 A 
ATOM     30  N   UNL     1       6.274  -3.593  -6.786  0.00  0.00    -0.340 N 
ATOM     31  C   UNL     1      10.515  -5.734  -8.470  0.00  0.00    +0.044 C 
ENDBRANCH  19  21
ENDBRANCH  17  19
ENDBRANCH   5  15
BRANCH   1  32
ATOM     32  C   UNL     1       0.942  -0.553   1.461  0.00  0.00    +0.075 C 
BRANCH  32  34
ATOM     33  C   UNL     1      -0.206   1.438   0.483  0.00  0.00    +0.004 C 
ATOM     34  C   UNL     1      -0.038  -0.080   0.386  0.00  0.00    +0.009 C 
ENDBRANCH  32  34
BRANCH  32  35
ATOM     35  C   UNL     1       0.335  -0.315   2.846  0.00  0.00    +0.009 C 
ATOM     36  C   UNL     1       1.376  -0.635   3.921  0.00  0.00    +0.004 C 
ENDBRANCH  32  35
ENDBRANCH   1  32
TORSDOF 6
