REMARK  Name = ZINC39710591
REMARK  10 active torsions:
REMARK  status: ('A' for Active; 'I' for Inactive)
REMARK    1  A    between atoms: C_1  and  C_2
REMARK    2  A    between atoms: C_7  and  C_14
REMARK    3  A    between atoms: C_14  and  C_16
REMARK    4  A    between atoms: C_14  and  N_25
REMARK    5  A    between atoms: N_20  and  C_21
REMARK    6  A    between atoms: C_21  and  C_22
REMARK    7  A    between atoms: C_22  and  O_23
REMARK    8  A    between atoms: O_23  and  C_24
REMARK    9  A    between atoms: N_28  and  C_31
REMARK   10  A    between atoms: C_36  and  C_37
REMARK                            x       y       z     vdW  Elec       q    Type
REMARK                         _______ _______ _______ _____ _____    ______ ____
ROOT
ATOM      1  C   UNL     1       1.410  -5.769   1.438  0.00  0.00    +0.142 C 
ENDROOT
BRANCH   1   8
ATOM      2  C   UNL     1      -5.604  -5.703  -1.207  0.00  0.00    +0.044 C 
ATOM      3  C   UNL     1      -4.364  -5.785  -0.355  0.00  0.00    -0.049 A 
ATOM      4  C   UNL     1      -4.272  -6.800   0.597  0.00  0.00    +0.004 A 
ATOM      5  C   UNL     1      -3.179  -6.925   1.394  0.00  0.00    +0.010 A 
ATOM      6  C   UNL     1      -2.082  -5.969   1.242  0.00  0.00    -0.007 A 
ATOM      7  C   UNL     1      -0.966  -6.056   2.020  0.00  0.00    -0.003 C 
ATOM      8  C   UNL     1       0.121  -5.024   1.793  0.00  0.00    +0.123 C 
ATOM      9  C   UNL     1      -0.121  -3.982   0.724  0.00  0.00    +0.226 C 
ATOM     10  O   UNL     1       0.718  -3.130   0.500  0.00  0.00    -0.275 OA
ATOM     11  N   UNL     1      -1.248  -4.002   0.033  0.00  0.00    -0.284 N 
ATOM     12  C   UNL     1      -2.206  -4.907   0.228  0.00  0.00    +0.041 A 
ATOM     13  C   UNL     1      -3.379  -4.870  -0.549  0.00  0.00    +0.027 A 
ATOM     14  H   UNL     1      -1.384  -3.325  -0.649  0.00  0.00    +0.155 HD
ENDBRANCH   1   8
BRANCH   1  15
ATOM     15  N   UNL     1       1.708  -6.757   2.484  0.00  0.00    -0.289 NA
ATOM     16  C   UNL     1       1.931  -6.101   3.779  0.00  0.00    +0.104 C 
ATOM     17  C   UNL     1       2.058  -7.168   4.872  0.00  0.00    +0.120 C 
ATOM     18  N   UNL     1       3.100  -8.126   4.472  0.00  0.00    -0.327 N 
ATOM     19  C   UNL     1       3.019  -8.722   3.130  0.00  0.00    +0.120 C 
ATOM     20  C   UNL     1       2.854  -7.594   2.105  0.00  0.00    +0.104 C 
BRANCH  18  21
ATOM     21  C   UNL     1       4.140  -8.460   5.343  0.00  0.00    +0.034 A 
ATOM     22  C   UNL     1       4.000  -9.532   6.214  0.00  0.00    +0.043 A 
ATOM     23  C   UNL     1       5.031  -9.860   7.075  0.00  0.00    +0.043 A 
ATOM     24  C   UNL     1       6.201  -9.120   7.068  0.00  0.00    +0.020 A 
ATOM     25  C   UNL     1       6.342  -8.053   6.201  0.00  0.00    +0.006 A 
ATOM     26  C   UNL     1       5.318  -7.723   5.335  0.00  0.00    -0.029 A 
ATOM     27  C   UNL     1       5.476  -6.563   4.386  0.00  0.00    +0.045 C 
ATOM     28 CL   UNL     1       4.858 -11.200   8.165  0.00  0.00    -0.083 Cl
ENDBRANCH  18  21
ENDBRANCH   1  15
BRANCH   1  29
ATOM     29  C   UNL     1       2.547  -4.785   1.338  0.00  0.00    +0.170 A 
ATOM     30  N   UNL     1       3.027  -4.042   2.305  0.00  0.00    -0.112 NA
ATOM     31  N   UNL     1       3.992  -3.337   1.824  0.00  0.00    -0.023 NA
ATOM     32  N   UNL     1       4.140  -3.611   0.575  0.00  0.00    -0.044 NA
ATOM     33  N   UNL     1       3.272  -4.504   0.239  0.00  0.00    -0.225 N 
BRANCH  33  34
ATOM     34  C   UNL     1       3.103  -5.097  -1.090  0.00  0.00    +0.175 C 
BRANCH  34  35
ATOM     35  C   UNL     1       2.097  -4.269  -1.894  0.00  0.00    +0.183 C 
BRANCH  35  36
ATOM     36  O   UNL     1       1.897  -4.874  -3.173  0.00  0.00    -0.381 OA
ATOM     37  C   UNL     1       0.970  -4.176  -4.007  0.00  0.00    +0.194 C 
ENDBRANCH  35  36
ENDBRANCH  34  35
ENDBRANCH  33  34
ENDBRANCH   1  29
TORSDOF 7
