REMARK  Name = ZINC38776360
REMARK  7 active torsions:
REMARK  status: ('A' for Active; 'I' for Inactive)
REMARK    1  A    between atoms: C_1  and  C_2
REMARK    2  A    between atoms: C_7  and  C_8
REMARK    3  A    between atoms: C_8  and  O_9
REMARK    4  A    between atoms: O_9  and  C_10
REMARK    5  A    between atoms: C_13  and  C_17
REMARK    6  A    between atoms: C_14  and  O_16
REMARK    7  A    between atoms: C_19  and  C_23
REMARK                            x       y       z     vdW  Elec       q    Type
REMARK                         _______ _______ _______ _____ _____    ______ ____
ROOT
ATOM      1  C   UNL     1       0.053  -0.377   4.844  0.00  0.00    +0.124 A 
ATOM      2  C   UNL     1       0.031   0.998   5.034  0.00  0.00    +0.046 A 
ATOM      3  C   UNL     1       0.036   1.520   6.313  0.00  0.00    +0.013 A 
ATOM      4  C   UNL     1       0.064   0.675   7.406  0.00  0.00    +0.022 A 
ATOM      5  C   UNL     1       0.086  -0.700   7.222  0.00  0.00    +0.126 A 
ATOM      6  C   UNL     1       0.075  -1.226   5.939  0.00  0.00    +0.091 A 
ENDROOT
BRANCH   4   7
ATOM      7  C   UNL     1       0.070   1.247   8.800  0.00  0.00    +0.164 C 
ATOM      8  C   UNL     1       1.493   1.419   9.305  0.00  0.00    +0.008 C 
ATOM      9  C   UNL     1       1.600   2.753   9.510  0.00  0.00    +0.139 C 
ATOM     10  N   UNL     1       0.453   3.370   9.199  0.00  0.00    -0.185 NA
ATOM     11  N   UNL     1      -0.451   2.625   8.801  0.00  0.00    -0.297 N 
ATOM     12  H   UNL     1      -1.343   2.897   8.534  0.00  0.00    +0.183 HD
BRANCH   8  13
ATOM     13  C   UNL     1       2.514   0.381   9.520  0.00  0.00    -0.018 A 
ATOM     14  C   UNL     1       3.025  -0.338   8.434  0.00  0.00    +0.009 A 
ATOM     15  C   UNL     1       3.981  -1.309   8.643  0.00  0.00    +0.016 A 
ATOM     16  C   UNL     1       4.435  -1.574   9.925  0.00  0.00    +0.018 A 
ATOM     17  C   UNL     1       3.933  -0.866  11.005  0.00  0.00    +0.016 A 
ATOM     18  C   UNL     1       2.982   0.112  10.810  0.00  0.00    +0.009 A 
ATOM     19 BR   UNL     1       5.747  -2.908  10.201  0.00  0.00    -0.050 Br
ENDBRANCH   8  13
ENDBRANCH   4   7
BRANCH   5  20
ATOM     20  O   UNL     1       0.114  -1.531   8.297  0.00  0.00    -0.506 OA
ATOM     21  H   UNL     1      -0.761  -1.787   8.619  0.00  0.00    +0.292 HD
ENDBRANCH   5  20
BRANCH   1  22
ATOM     22  O   UNL     1       0.048  -0.889   3.585  0.00  0.00    -0.487 OA
BRANCH  22  23
ATOM     23  C   UNL     1       0.025   0.045   2.504  0.00  0.00    +0.264 C 
BRANCH  23  30
ATOM     24  C   UNL     1      -0.018   1.503   0.010  0.00  0.00    +0.044 C 
ATOM     25  C   UNL     1       0.002  -0.004   0.002  0.00  0.00    -0.044 A 
ATOM     26  C   UNL     1       0.006  -0.689  -1.199  0.00  0.00    +0.004 A 
ATOM     27  C   UNL     1       0.025  -2.071  -1.207  0.00  0.00    +0.000 A 
ATOM     28  C   UNL     1       0.040  -2.768  -0.013  0.00  0.00    +0.000 A 
ATOM     29  C   UNL     1       0.037  -2.084   1.188  0.00  0.00    +0.007 A 
ATOM     30  C   UNL     1       0.023  -0.702   1.195  0.00  0.00    -0.007 A 
ENDBRANCH  23  30
ENDBRANCH  22  23
ENDBRANCH   1  22
TORSDOF 6
