REMARK  Name = ZINC40061223
REMARK  11 active torsions:
REMARK  status: ('A' for Active; 'I' for Inactive)
REMARK    1  A    between atoms: C_1  and  C_2
REMARK    2  A    between atoms: C_2  and  C_3
REMARK    3  A    between atoms: C_3  and  C_4
REMARK    4  A    between atoms: C_4  and  O_5
REMARK    5  A    between atoms: O_5  and  C_6
REMARK    6  A    between atoms: C_10  and  C_12
REMARK    7  A    between atoms: C_18  and  C_37
REMARK    8  A    between atoms: C_20  and  C_36
REMARK    9  A    between atoms: C_31  and  C_33
REMARK   10  A    between atoms: C_33  and  C_34
REMARK   11  A    between atoms: C_34  and  C_35
REMARK                            x       y       z     vdW  Elec       q    Type
REMARK                         _______ _______ _______ _____ _____    ______ ____
ROOT
ATOM      1  C   UNL     1      -5.730  -6.426   0.011  0.00  0.00    +0.152 C 
ATOM      2  C   UNL     1      -6.091  -6.883   1.386  0.00  0.00    +0.072 A 
ATOM      3  C   UNL     1      -6.212  -6.147   2.648  0.00  0.00    +0.199 A 
ATOM      4  O   UNL     1      -6.188  -4.931   2.716  0.00  0.00    -0.287 OA
ATOM      5  C   UNL     1      -6.367  -7.025   3.836  0.00  0.00    +0.067 A 
ATOM      6  C   UNL     1      -6.295  -6.491   5.123  0.00  0.00    -0.036 A 
ATOM      7  C   UNL     1      -6.434  -7.314   6.206  0.00  0.00    +0.007 A 
ATOM      8  C   UNL     1      -6.646  -8.674   6.028  0.00  0.00    -0.047 A 
ATOM      9  C   UNL     1      -6.721  -9.216   4.765  0.00  0.00    +0.050 A 
ATOM     10  C   UNL     1      -6.585  -8.399   3.644  0.00  0.00    +0.140 A 
ATOM     11  O   UNL     1      -6.672  -8.951   2.412  0.00  0.00    -0.450 OA
ATOM     12  C   UNL     1      -6.318  -8.229   1.331  0.00  0.00    +0.199 A 
ATOM     13  C   UNL     1      -6.109  -8.677  -0.056  0.00  0.00    +0.289 C 
ATOM     14  O   UNL     1      -6.227  -9.823  -0.443  0.00  0.00    -0.266 OA
ATOM     15  N   UNL     1      -5.767  -7.629  -0.836  0.00  0.00    -0.230 N 
ATOM     16  C   UNL     1      -5.497  -7.677  -2.198  0.00  0.00    +0.191 A 
ATOM     17  N   UNL     1      -5.151  -6.708  -3.034  0.00  0.00    -0.125 NA
ATOM     18  N   UNL     1      -4.940  -6.928  -4.258  0.00  0.00    -0.145 NA
ATOM     19  C   UNL     1      -5.049  -8.133  -4.783  0.00  0.00    +0.104 A 
ATOM     20  S   UNL     1      -5.508  -9.068  -3.326  0.00  0.00    -0.035 S 
ATOM     21  C   UNL     1      -6.795  -9.567   7.232  0.00  0.00    +0.044 C 
ATOM     22  C   UNL     1      -6.064  -5.015   5.318  0.00  0.00    +0.044 C 
ENDROOT
BRANCH   1  27
ATOM     23  C   UNL     1      -2.913  -3.908   0.009  0.00  0.00    +0.121 A 
ATOM     24  C   UNL     1      -1.802  -4.739  -0.000  0.00  0.00    +0.045 A 
ATOM     25  C   UNL     1      -1.967  -6.110  -0.006  0.00  0.00    +0.004 A 
ATOM     26  C   UNL     1      -3.238  -6.655  -0.002  0.00  0.00    +0.006 A 
ATOM     27  C   UNL     1      -4.347  -5.829   0.007  0.00  0.00    -0.019 A 
ATOM     28  C   UNL     1      -4.187  -4.457   0.018  0.00  0.00    +0.051 A 
BRANCH  23  29
ATOM     29  O   UNL     1      -2.753  -2.558   0.015  0.00  0.00    -0.492 OA
BRANCH  29  30
ATOM     30  C   UNL     1      -1.413  -2.063   0.004  0.00  0.00    +0.229 C 
BRANCH  30  31
ATOM     31  C   UNL     1      -1.433  -0.534   0.013  0.00  0.00    +0.041 C 
BRANCH  31  33
ATOM     32  C   UNL     1      -0.019   1.526   0.010  0.00  0.00    +0.004 C 
ATOM     33  C   UNL     1       0.002  -0.004   0.002  0.00  0.00    -0.000 C 
ENDBRANCH  31  33
ENDBRANCH  30  31
ENDBRANCH  29  30
ENDBRANCH  23  29
ENDBRANCH   1  27
BRANCH  19  34
ATOM     34  C   UNL     1      -4.842  -8.593  -6.203  0.00  0.00    +0.064 C 
BRANCH  34  35
ATOM     35  C   UNL     1      -3.380  -8.999  -6.399  0.00  0.00    +0.003 C 
ATOM     36  C   UNL     1      -3.169  -9.466  -7.840  0.00  0.00    +0.004 C 
ENDBRANCH  34  35
ENDBRANCH  19  34
TORSDOF 7
