REMARK  Name = ZINC24834786
REMARK  14 active torsions:
REMARK  status: ('A' for Active; 'I' for Inactive)
REMARK    1  A    between atoms: C_1  and  C_2
REMARK    2  A    between atoms: C_2  and  O_3
REMARK    3  A    between atoms: O_3  and  C_4
REMARK    4  A    between atoms: C_4  and  C_6
REMARK    5  A    between atoms: C_7  and  C_20
REMARK    6  A    between atoms: C_12  and  C_14
REMARK    7  A    between atoms: C_17  and  C_19
REMARK    8  A    between atoms: C_20  and  N_21
REMARK    9  A    between atoms: N_21  and  C_22
REMARK   10  A    between atoms: N_21  and  C_23
REMARK   11  A    between atoms: C_23  and  C_24
REMARK   12  A    between atoms: C_26  and  C_32
REMARK   13  A    between atoms: C_29  and  O_30
REMARK   14  A    between atoms: O_30  and  C_31
REMARK                            x       y       z     vdW  Elec       q    Type
REMARK                         _______ _______ _______ _____ _____    ______ ____
ROOT
ATOM      1  C   UNL     1       1.540  -0.644  -0.008  0.00  0.00    +0.079 C 
ATOM      2  C   UNL     1       2.492   0.285  -0.241  0.00  0.00    +0.008 C 
ATOM      3  N   UNL     1       2.192   1.617  -0.239  0.00  0.00    -0.274 N 
ATOM      4  C   UNL     1       0.965   2.101  -0.012  0.00  0.00    +0.304 C 
ATOM      5  O   UNL     1       0.795   3.305  -0.031  0.00  0.00    -0.252 OA
ATOM      6  N   UNL     1      -0.089   1.298   0.236  0.00  0.00    -0.285 N 
ATOM      7  C   UNL     1       0.130  -0.158   0.256  0.00  0.00    +0.179 C 
ATOM      8  H   UNL     1       2.982   2.358  -0.432  0.00  0.00    +0.156 HD
ATOM      9  H   UNL     1      -1.093   1.706   0.421  0.00  0.00    +0.151 HD
ENDROOT
BRANCH   7  10
ATOM     10  C   UNL     1      -0.294  -0.673   1.607  0.00  0.00    +0.130 A 
ATOM     11  C   UNL     1      -0.960  -1.819   1.839  0.00  0.00    +0.047 A 
ATOM     12  C   UNL     1      -1.149  -1.907   3.237  0.00  0.00    +0.045 A 
ATOM     13  C   UNL     1      -0.588  -0.810   3.776  0.00  0.00    +0.102 A 
ATOM     14  O   UNL     1      -0.067  -0.069   2.784  0.00  0.00    -0.463 OA
ATOM     15  C   UNL     1      -0.546  -0.472   5.244  0.00  0.00    +0.086 C 
ENDBRANCH   7  10
BRANCH   1  16
ATOM     16  C   UNL     1       1.850  -2.025  -0.010  0.00  0.00    +0.339 C 
ATOM     17  O   UNL     1       3.007  -2.389  -0.103  0.00  0.00    -0.245 OA
BRANCH  16  18
ATOM     18  O   UNL     1       0.861  -2.938   0.092  0.00  0.00    -0.462 OA
BRANCH  18  20
ATOM     19  C   UNL     1      -0.000  -5.193   0.208  0.00  0.00    +0.048 C 
ATOM     20  C   UNL     1       1.246  -4.314   0.084  0.00  0.00    +0.229 C 
ENDBRANCH  18  20
ENDBRANCH  16  18
ENDBRANCH   1  16
BRANCH   2  21
ATOM     21  C   UNL     1       3.909  -0.156  -0.508  0.00  0.00    -0.026 C 
BRANCH  21  22
ATOM     22  N   UNL     1       4.612  -0.343   0.768  0.00  0.00    +0.384 N 
ATOM     23  C   UNL     1       4.771   0.936   1.474  0.00  0.00    -0.095 C 
ATOM     24  H   UNL     1       3.998  -1.002   1.399  0.00  0.00    -0.081 HD
BRANCH  22  25
ATOM     25  C   UNL     1       5.912  -0.995   0.562  0.00  0.00    -0.039 C 
BRANCH  25  26
ATOM     26  C   UNL     1       6.492  -1.391   1.895  0.00  0.00    -0.022 A 
ATOM     27  C   UNL     1       7.462  -0.605   2.488  0.00  0.00    +0.008 A 
ATOM     28  C   UNL     1       7.995  -0.968   3.711  0.00  0.00    -0.050 A 
ATOM     29  C   UNL     1       7.558  -2.117   4.345  0.00  0.00    +0.007 A 
ATOM     30  C   UNL     1       6.588  -2.905   3.757  0.00  0.00    +0.046 A 
ATOM     31  C   UNL     1       6.049  -2.541   2.532  0.00  0.00    +0.121 A 
ATOM     32  C   UNL     1       9.053  -0.109   4.355  0.00  0.00    +0.044 C 
BRANCH  31  33
ATOM     33  O   UNL     1       5.090  -3.312   1.954  0.00  0.00    -0.495 OA
ATOM     34  C   UNL     1       4.682  -4.482   2.666  0.00  0.00    +0.277 C 
ENDBRANCH  31  33
ENDBRANCH  25  26
ENDBRANCH  22  25
ENDBRANCH  21  22
ENDBRANCH   2  21
TORSDOF 9
