REMARK  Name = ZINC46840979
REMARK  7 active torsions:
REMARK  status: ('A' for Active; 'I' for Inactive)
REMARK    1  A    between atoms: C_1  and  C_2
REMARK    2  A    between atoms: C_5  and  N_8
REMARK    3  A    between atoms: C_11  and  C_13
REMARK    4  A    between atoms: N_15  and  C_16
REMARK    5  A    between atoms: C_16  and  C_17
REMARK    6  A    between atoms: C_25  and  C_32
REMARK    7  A    between atoms: C_28  and  C_31
REMARK                            x       y       z     vdW  Elec       q    Type
REMARK                         _______ _______ _______ _____ _____    ______ ____
ROOT
ATOM      1  C   UNL     1      -0.813  -7.344  -1.397  0.00  0.00    +0.265 C 
ATOM      2  O   UNL     1      -0.558  -8.475  -1.032  0.00  0.00    -0.268 OA
ATOM      3  N   UNL     1      -1.584  -7.144  -2.485  0.00  0.00    -0.306 N 
ATOM      4  H   UNL     1      -1.787  -6.242  -2.776  0.00  0.00    +0.149 HD
ENDROOT
BRANCH   1   8
ATOM      5  N   UNL     1       0.140  -4.176  -0.075  0.00  0.00    -0.236 N 
ATOM      6  C   UNL     1       0.784  -4.953   0.838  0.00  0.00    +0.049 A 
ATOM      7  C   UNL     1       0.540  -6.239   0.503  0.00  0.00    +0.006 A 
ATOM      8  C   UNL     1      -0.278  -6.189  -0.650  0.00  0.00    +0.151 A 
ATOM      9  N   UNL     1      -0.475  -4.915  -0.927  0.00  0.00    -0.161 NA
ATOM     10  C   UNL     1       1.223  -7.175   1.470  0.00  0.00    +0.040 C 
ATOM     11  C   UNL     1       2.272  -6.303   2.197  0.00  0.00    +0.011 C 
ATOM     12  C   UNL     1       1.658  -4.891   2.070  0.00  0.00    +0.056 C 
BRANCH   5  17
ATOM     13  C   UNL     1       0.149   1.499  -0.099  0.00  0.00    +0.044 C 
ATOM     14  C   UNL     1       0.147  -0.008  -0.093  0.00  0.00    -0.050 A 
ATOM     15  C   UNL     1       0.133  -0.703  -1.288  0.00  0.00    +0.005 A 
ATOM     16  C   UNL     1       0.130  -2.084  -1.286  0.00  0.00    +0.028 A 
ATOM     17  C   UNL     1       0.142  -2.775  -0.081  0.00  0.00    +0.066 A 
ATOM     18  C   UNL     1       0.157  -2.074   1.118  0.00  0.00    +0.028 A 
ATOM     19  C   UNL     1       0.165  -0.693   1.109  0.00  0.00    +0.005 A 
ENDBRANCH   5  17
ENDBRANCH   1   8
BRANCH   3  20
ATOM     20  C   UNL     1      -2.115  -8.290  -3.227  0.00  0.00    +0.141 C 
BRANCH  20  21
ATOM     21  C   UNL     1      -2.938  -7.799  -4.389  0.00  0.00    -0.014 A 
ATOM     22  C   UNL     1      -4.298  -7.561  -4.235  0.00  0.00    +0.010 A 
ATOM     23  C   UNL     1      -5.017  -7.110  -5.327  0.00  0.00    +0.042 A 
ATOM     24  C   UNL     1      -4.358  -6.911  -6.536  0.00  0.00    +0.099 A 
ATOM     25  N   UNL     1      -3.060  -7.150  -6.643  0.00  0.00    -0.349 N 
ATOM     26  C   UNL     1      -2.348  -7.575  -5.616  0.00  0.00    +0.089 A 
ATOM     27  N   UNL     1      -5.068  -6.459  -7.642  0.00  0.00    -0.312 N 
ATOM     28  C   UNL     1      -6.531  -6.306  -7.591  0.00  0.00    +0.137 C 
ATOM     29  C   UNL     1      -7.134  -7.021  -8.806  0.00  0.00    +0.133 C 
ATOM     30  O   UNL     1      -6.487  -6.557  -9.994  0.00  0.00    -0.371 OA
ATOM     31  C   UNL     1      -5.088  -6.842 -10.048  0.00  0.00    +0.133 C 
ATOM     32  C   UNL     1      -4.380  -6.113  -8.895  0.00  0.00    +0.137 C 
ATOM     33  C   UNL     1      -4.519  -6.359 -11.384  0.00  0.00    +0.039 C 
ATOM     34  C   UNL     1      -8.631  -6.718  -8.886  0.00  0.00    +0.039 C 
ATOM     35  H   UNL     1      -2.621  -7.005  -7.496  0.00  0.00    +0.167 HD
ENDBRANCH  20  21
ENDBRANCH   3  20
TORSDOF 4
