REMARK  Name = ZINC20547789
REMARK  5 active torsions:
REMARK  status: ('A' for Active; 'I' for Inactive)
REMARK    1  A    between atoms: C_1  and  N_2
REMARK    2  A    between atoms: C_11  and  N_15
REMARK    3  A    between atoms: N_19  and  C_22
REMARK    4  A    between atoms: C_22  and  C_23
REMARK    5  A    between atoms: C_22  and  C_29
REMARK                            x       y       z     vdW  Elec       q    Type
REMARK                         _______ _______ _______ _____ _____    ______ ____
ROOT
ATOM      1  C   UNL     1       4.936  -3.352  -1.464  0.00  0.00    +0.105 C 
ATOM      2  N   UNL     1       3.640  -3.734  -0.886  0.00  0.00    -0.301 NA
ATOM      3  C   UNL     1       2.581  -3.718  -1.909  0.00  0.00    +0.089 C 
ATOM      4  C   UNL     1       1.359  -4.444  -1.347  0.00  0.00    +0.052 C 
ATOM      5  C   UNL     1       1.026  -3.913   0.021  0.00  0.00    -0.024 A 
ATOM      6  C   UNL     1       1.909  -3.188   0.751  0.00  0.00    +0.011 A 
ATOM      7  C   UNL     1       1.550  -2.722   2.031  0.00  0.00    +0.129 A 
ATOM      8  N   UNL     1       0.374  -2.953   2.568  0.00  0.00    -0.211 NA
ATOM      9  C   UNL     1      -0.562  -3.659   1.910  0.00  0.00    +0.185 A 
ATOM     10  C   UNL     1      -0.247  -4.176   0.570  0.00  0.00    +0.063 A 
ATOM     11  C   UNL     1      -1.381  -4.856   0.134  0.00  0.00    +0.121 A 
ATOM     12  N   UNL     1      -2.305  -4.768   1.106  0.00  0.00    -0.262 N 
ATOM     13  N   UNL     1      -1.795  -4.038   2.184  0.00  0.00    -0.152 NA
ATOM     14  H   UNL     1      -3.193  -5.155   1.066  0.00  0.00    +0.190 HD
ATOM     15  N   UNL     1       2.478  -1.989   2.754  0.00  0.00    -0.312 N 
ATOM     16  C   UNL     1       2.579  -0.531   2.595  0.00  0.00    +0.122 C 
ATOM     17  C   UNL     1       2.527   0.116   3.983  0.00  0.00    +0.104 C 
ATOM     18  N   UNL     1       3.556  -0.488   4.840  0.00  0.00    -0.289 NA
ATOM     19  C   UNL     1       3.304  -1.920   5.047  0.00  0.00    +0.104 C 
ATOM     20  C   UNL     1       3.384  -2.649   3.707  0.00  0.00    +0.122 C 
ATOM     21  C   UNL     1       3.281  -2.851   0.228  0.00  0.00    +0.123 C 
ENDROOT
BRANCH  11  22
ATOM     22  N   UNL     1      -1.530  -5.504  -1.080  0.00  0.00    -0.343 N 
ATOM     23  H   UNL     1      -0.800  -5.511  -1.719  0.00  0.00    +0.144 HD
ATOM     24  H   UNL     1      -2.364  -5.951  -1.292  0.00  0.00    +0.144 HD
ENDBRANCH  11  22
BRANCH  18  25
ATOM     25  C   UNL     1       3.655   0.221   6.123  0.00  0.00    +0.117 C 
BRANCH  25  26
ATOM     26  C   UNL     1       4.718  -0.425   6.973  0.00  0.00    -0.026 A 
ATOM     27  C   UNL     1       5.900  -0.852   6.395  0.00  0.00    +0.005 A 
ATOM     28  C   UNL     1       6.875  -1.445   7.175  0.00  0.00    +0.000 A 
ATOM     29  C   UNL     1       6.670  -1.610   8.532  0.00  0.00    +0.000 A 
ATOM     30  C   UNL     1       5.489  -1.182   9.109  0.00  0.00    +0.000 A 
ATOM     31  C   UNL     1       4.515  -0.586   8.331  0.00  0.00    +0.005 A 
ENDBRANCH  25  26
BRANCH  25  32
ATOM     32  C   UNL     1       4.017   1.662   5.874  0.00  0.00    -0.026 A 
ATOM     33  C   UNL     1       4.939   1.984   4.895  0.00  0.00    +0.005 A 
ATOM     34  C   UNL     1       5.271   3.307   4.667  0.00  0.00    +0.000 A 
ATOM     35  C   UNL     1       4.681   4.307   5.418  0.00  0.00    +0.000 A 
ATOM     36  C   UNL     1       3.759   3.985   6.396  0.00  0.00    +0.000 A 
ATOM     37  C   UNL     1       3.424   2.663   6.621  0.00  0.00    +0.005 A 
ENDBRANCH  25  32
ENDBRANCH  18  25
TORSDOF 4
