REMARK  Name = ZINC06931747
REMARK  5 active torsions:
REMARK  status: ('A' for Active; 'I' for Inactive)
REMARK    1  A    between atoms: N_9  and  N_23
REMARK    2  A    between atoms: C_10  and  C_12
REMARK    3  A    between atoms: C_12  and  O_13
REMARK    4  A    between atoms: O_13  and  C_14
REMARK    5  A    between atoms: C_19  and  C_20
REMARK                            x       y       z     vdW  Elec       q    Type
REMARK                         _______ _______ _______ _____ _____    ______ ____
ROOT
ATOM      1  C   UNL     1       2.388   1.423  -0.013  0.00  0.00    +0.001 A 
ATOM      2  C   UNL     1       1.170   2.090   0.002  0.00  0.00    +0.002 A 
ATOM      3  C   UNL     1      -0.017   1.392   0.010  0.00  0.00    +0.028 A 
ATOM      4  C   UNL     1       0.002  -0.004   0.002  0.00  0.00    +0.078 A 
ATOM      5  C   UNL     1       1.242  -0.679  -0.013  0.00  0.00    +0.066 A 
ATOM      6  C   UNL     1       2.432   0.046  -0.021  0.00  0.00    +0.015 A 
ATOM      7  C   UNL     1       1.228  -2.150  -0.022  0.00  0.00    +0.279 A 
ATOM      8  O   UNL     1       2.262  -2.792  -0.036  0.00  0.00    -0.265 OA
ATOM      9  N   UNL     1       0.020  -2.761  -0.013  0.00  0.00    -0.215 N 
ATOM     10  C   UNL     1      -1.125  -2.030   0.003  0.00  0.00    +0.168 A 
ATOM     11  N   UNL     1      -1.143  -0.731   0.009  0.00  0.00    -0.229 NA
ENDROOT
BRANCH   9  12
ATOM     12  N   UNL     1      -0.048  -4.125  -0.019  0.00  0.00    -0.294 N 
ATOM     13  H   UNL     1       0.875  -4.533  -0.030  0.00  0.00    +0.163 HD
ATOM     14  H   UNL     1      -0.584  -4.464   0.766  0.00  0.00    +0.163 HD
ENDBRANCH   9  12
BRANCH  10  15
ATOM     15  C   UNL     1      -2.441  -2.763   0.012  0.00  0.00    +0.304 C 
BRANCH  15  16
ATOM     16  O   UNL     1      -3.513  -1.818   0.027  0.00  0.00    -0.484 OA
BRANCH  16  17
ATOM     17  C   UNL     1      -4.774  -2.317   0.037  0.00  0.00    +0.133 A 
ATOM     18  C   UNL     1      -4.981  -3.689   0.026  0.00  0.00    +0.046 A 
ATOM     19  C   UNL     1      -6.265  -4.196   0.042  0.00  0.00    +0.004 A 
ATOM     20  C   UNL     1      -7.355  -3.341   0.057  0.00  0.00    +0.001 A 
ATOM     21  C   UNL     1      -7.169  -1.976   0.062  0.00  0.00    +0.017 A 
ATOM     22  C   UNL     1      -5.875  -1.450   0.052  0.00  0.00    +0.078 A 
BRANCH  22  23
ATOM     23  C   UNL     1      -5.668   0.011   0.057  0.00  0.00    +0.245 C 
ATOM     24  O   UNL     1      -4.540   0.465   0.048  0.00  0.00    -0.270 OA
ATOM     25  N   UNL     1      -6.729   0.842   0.071  0.00  0.00    -0.325 N 
ATOM     26  H   UNL     1      -7.628   0.480   0.079  0.00  0.00    +0.145 HD
ATOM     27  H   UNL     1      -6.593   1.802   0.074  0.00  0.00    +0.145 HD
ENDBRANCH  22  23
ENDBRANCH  16  17
ENDBRANCH  15  16
ENDBRANCH  10  15
TORSDOF 5
