REMARK  Name = ZINC39352298
REMARK  11 active torsions:
REMARK  status: ('A' for Active; 'I' for Inactive)
REMARK    1  A    between atoms: C_1  and  C_2
REMARK    2  A    between atoms: C_2  and  O_3
REMARK    3  A    between atoms: O_3  and  C_4
REMARK    4  A    between atoms: C_6  and  C_19
REMARK    5  A    between atoms: C_9  and  O_10
REMARK    6  A    between atoms: O_10  and  C_11
REMARK    7  A    between atoms: C_11  and  C_12
REMARK    8  A    between atoms: C_15  and  C_18
REMARK    9  A    between atoms: C_25  and  C_29
REMARK   10  A    between atoms: C_31  and  N_35
REMARK   11  A    between atoms: C_32  and  C_33
REMARK                            x       y       z     vdW  Elec       q    Type
REMARK                         _______ _______ _______ _____ _____    ______ ____
ROOT
ATOM      1  C   UNL     1      -1.498  -1.849   0.006  0.00  0.00    +0.162 A 
ATOM      2  C   UNL     1      -0.389  -2.680  -0.003  0.00  0.00    +0.053 A 
ATOM      3  C   UNL     1      -0.553  -4.052  -0.008  0.00  0.00    -0.034 A 
ATOM      4  C   UNL     1      -1.823  -4.600  -0.005  0.00  0.00    +0.008 A 
ATOM      5  C   UNL     1      -2.934  -3.777   0.004  0.00  0.00    +0.050 A 
ATOM      6  C   UNL     1      -2.776  -2.400   0.016  0.00  0.00    +0.162 A 
ENDROOT
BRANCH   3   7
ATOM      7  C   UNL     1       0.654  -4.954  -0.018  0.00  0.00    +0.084 C 
ATOM      8  C   UNL     1       0.638  -5.841   1.231  0.00  0.00    +0.155 C 
ATOM      9  C   UNL     1      -0.413  -6.904   0.956  0.00  0.00    +0.122 C 
ATOM     10  C   UNL     1      -1.462  -6.998   1.799  0.00  0.00    +0.063 C 
ATOM     11  C   UNL     1      -1.583  -6.120   2.880  0.00  0.00    +0.034 C 
ATOM     12  N   UNL     1      -0.726  -5.166   3.148  0.00  0.00    -0.185 NA
ATOM     13  C   UNL     1       0.392  -4.934   2.420  0.00  0.00    +0.248 C 
ATOM     14  O   UNL     1       1.165  -4.036   2.691  0.00  0.00    -0.273 OA
ATOM     15  C   UNL     1      -2.772  -6.281   3.792  0.00  0.00    +0.063 C 
ATOM     16  O   UNL     1      -0.259  -7.691  -0.121  0.00  0.00    -0.445 OA
ATOM     17  C   UNL     1       0.181  -7.088  -1.251  0.00  0.00    +0.198 C 
ATOM     18  C   UNL     1       0.626  -5.814  -1.252  0.00  0.00    +0.095 C 
BRANCH  17  19
ATOM     19  N   UNL     1       0.175  -7.793  -2.429  0.00  0.00    -0.328 N 
ATOM     20  H   UNL     1      -0.142  -8.710  -2.443  0.00  0.00    +0.145 HD
ATOM     21  H   UNL     1       0.487  -7.375  -3.246  0.00  0.00    +0.145 HD
ENDBRANCH  17  19
BRANCH  18  22
ATOM     22  C   UNL     1       1.091  -5.255  -2.485  0.00  0.00    +0.100 C 
ATOM     23  N   UNL     1       1.461  -4.812  -3.464  0.00  0.00    -0.191 NA
ENDBRANCH  18  22
ENDBRANCH   3   7
BRANCH   1  24
ATOM     24  O   UNL     1      -1.339  -0.499   0.012  0.00  0.00    -0.489 OA
BRANCH  24  26
ATOM     25  C   UNL     1      -0.019   1.526   0.010  0.00  0.00    +0.048 C 
ATOM     26  C   UNL     1       0.002  -0.004   0.002  0.00  0.00    +0.226 C 
ENDBRANCH  24  26
ENDBRANCH   1  24
BRANCH   6  27
ATOM     27  O   UNL     1      -3.868  -1.589   0.030  0.00  0.00    -0.484 OA
BRANCH  27  28
ATOM     28  C   UNL     1      -5.148  -2.225   0.039  0.00  0.00    +0.264 C 
BRANCH  28  29
ATOM     29  C   UNL     1      -6.229  -1.175   0.055  0.00  0.00    -0.010 A 
ATOM     30  C   UNL     1      -6.710  -0.696   1.259  0.00  0.00    +0.007 A 
ATOM     31  C   UNL     1      -7.702   0.266   1.274  0.00  0.00    +0.004 A 
ATOM     32  C   UNL     1      -8.213   0.750   0.084  0.00  0.00    -0.050 A 
ATOM     33  C   UNL     1      -7.732   0.272  -1.120  0.00  0.00    +0.004 A 
ATOM     34  C   UNL     1      -6.737  -0.688  -1.135  0.00  0.00    +0.007 A 
ATOM     35  C   UNL     1      -9.296   1.799   0.100  0.00  0.00    +0.044 C 
ENDBRANCH  28  29
ENDBRANCH  27  28
ENDBRANCH   6  27
TORSDOF 8
