REMARK  Name = ZINC44038840
REMARK  3 active torsions:
REMARK  status: ('A' for Active; 'I' for Inactive)
REMARK    1  A    between atoms: C_3  and  N_21
REMARK    2  A    between atoms: C_6  and  N_7
REMARK    3  A    between atoms: N_10  and  C_11
REMARK                            x       y       z     vdW  Elec       q    Type
REMARK                         _______ _______ _______ _____ _____    ______ ____
ROOT
ATOM      1  N   UNL     1      -1.201  -0.721   0.010  0.00  0.00    -0.269 N 
ATOM      2  C   UNL     1      -1.186  -2.064  -0.099  0.00  0.00    +0.304 C 
ATOM      3  O   UNL     1      -0.127  -2.661  -0.113  0.00  0.00    -0.252 OA
ATOM      4  N   UNL     1      -2.345  -2.745  -0.193  0.00  0.00    -0.294 N 
ATOM      5  H   UNL     1      -2.045  -0.251   0.099  0.00  0.00    +0.156 HD
ATOM      6  H   UNL     1      -3.190  -2.269  -0.182  0.00  0.00    +0.151 HD
ENDROOT
BRANCH   4   7
ATOM      7  C   UNL     1      -2.328  -4.206  -0.311  0.00  0.00    +0.037 C 
ATOM      8  C   UNL     1      -1.561  -4.606  -1.573  0.00  0.00    +0.029 C 
ATOM      9  C   UNL     1      -1.544  -6.131  -1.697  0.00  0.00    -0.008 C 
ATOM     10  C   UNL     1      -2.980  -6.652  -1.786  0.00  0.00    +0.007 C 
ATOM     11  C   UNL     1      -3.747  -6.251  -0.525  0.00  0.00    -0.008 C 
ATOM     12  C   UNL     1      -3.764  -4.726  -0.401  0.00  0.00    +0.029 C 
ATOM     13  C   UNL     1      -3.062  -6.855   0.703  0.00  0.00    +0.007 C 
ATOM     14  C   UNL     1      -1.626  -6.334   0.792  0.00  0.00    -0.008 C 
ATOM     15  C   UNL     1      -0.858  -6.735  -0.469  0.00  0.00    +0.007 C 
ATOM     16  C   UNL     1      -1.643  -4.809   0.916  0.00  0.00    +0.029 C 
ENDBRANCH   4   7
BRANCH   1  22
ATOM     17  C   UNL     1       1.070  -0.455  -0.769  0.00  0.00    +0.025 A 
ATOM     18  C   UNL     1       2.255   0.253  -0.783  0.00  0.00    +0.029 A 
ATOM     19  C   UNL     1       2.379   1.415  -0.035  0.00  0.00    +0.067 A 
ATOM     20  C   UNL     1       1.312   1.866   0.730  0.00  0.00    +0.029 A 
ATOM     21  C   UNL     1       0.126   1.159   0.745  0.00  0.00    +0.025 A 
ATOM     22  C   UNL     1       0.002  -0.004  -0.005  0.00  0.00    +0.035 A 
BRANCH  19  23
ATOM     23  N   UNL     1       3.584   2.134  -0.050  0.00  0.00    -0.220 N 
ATOM     24  C   UNL     1       3.856   3.268   0.624  0.00  0.00    +0.225 A 
ATOM     25  N   UNL     1       5.085   3.620   0.344  0.00  0.00    -0.222 NA
ATOM     26  C   UNL     1       5.627   2.742  -0.499  0.00  0.00    +0.245 A 
ATOM     27  N   UNL     1       4.748   1.811  -0.765  0.00  0.00    -0.154 NA
ENDBRANCH  19  23
ENDBRANCH   1  22
TORSDOF 3
