REMARK  Name = ZINC10214065
REMARK  4 active torsions:
REMARK  status: ('A' for Active; 'I' for Inactive)
REMARK    1  A    between atoms: C_1  and  C_2
REMARK    2  A    between atoms: C_5  and  O_28
REMARK    3  A    between atoms: C_6  and  C_8
REMARK    4  A    between atoms: C_26  and  N_52
REMARK                            x       y       z     vdW  Elec       q    Type
REMARK                         _______ _______ _______ _____ _____    ______ ____
ROOT
ATOM      1  C   UNL     1       0.002  -0.004   0.002  0.00  0.00    +0.072 C 
ATOM      2  N   UNL     1      -0.015   1.289   0.009  0.00  0.00    -0.184 NA
ATOM      3  N   UNL     1       1.245   1.858   0.000  0.00  0.00    -0.207 N 
ATOM      4  C   UNL     1       2.248   0.797  -0.245  0.00  0.00    +0.136 C 
ATOM      5  C   UNL     1       1.436  -0.490  -0.050  0.00  0.00    +0.086 C 
ATOM      6  C   UNL     1       3.310   0.960   0.811  0.00  0.00    +0.018 A 
ATOM      7  C   UNL     1       4.184  -0.082   1.057  0.00  0.00    +0.029 A 
ATOM      8  C   UNL     1       5.177   0.048   2.009  0.00  0.00    +0.042 A 
ATOM      9  C   UNL     1       5.297   1.232   2.717  0.00  0.00    +0.023 A 
ATOM     10  C   UNL     1       4.423   2.270   2.479  0.00  0.00    +0.047 A 
ATOM     11  C   UNL     1       3.411   2.143   1.528  0.00  0.00    +0.129 A 
ATOM     12  O   UNL     1       2.558   3.190   1.382  0.00  0.00    -0.467 OA
ATOM     13  C   UNL     1       1.661   3.237   0.271  0.00  0.00    +0.189 C 
ATOM     14  C   UNL     1       2.369   3.818  -0.952  0.00  0.00    +0.052 C 
ATOM     15  C   UNL     1       1.380   3.897  -2.118  0.00  0.00    -0.074 C 
ATOM     16  C   UNL     1      -0.487   4.165  -0.596  0.00  0.00    -0.074 C 
ATOM     17  C   UNL     1       0.443   4.092   0.618  0.00  0.00    +0.052 C 
ATOM     18  C   UNL     1      -0.660   4.955  -2.877  0.00  0.00    -0.096 C 
ATOM     19 CL   UNL     1       6.270  -1.265   2.316  0.00  0.00    -0.084 Cl
ATOM     20  N   UNL     1       0.249   4.766  -1.728  0.00  0.00    +0.378 N 
ATOM     21  H   UNL     1       0.616   5.680  -1.439  0.00  0.00    -0.082 HD
ENDROOT
BRANCH   1  27
ATOM     22  C   UNL     1      -2.012  -4.566   0.051  0.00  0.00    +0.044 C 
ATOM     23  C   UNL     1      -2.166  -3.067   0.063  0.00  0.00    -0.050 A 
ATOM     24  C   UNL     1      -3.430  -2.504   0.110  0.00  0.00    +0.007 A 
ATOM     25  C   UNL     1      -3.584  -1.130   0.122  0.00  0.00    +0.046 A 
ATOM     26  C   UNL     1      -2.471  -0.307   0.092  0.00  0.00    +0.126 A 
ATOM     27  C   UNL     1      -1.190  -0.872   0.039  0.00  0.00    +0.039 A 
ATOM     28  C   UNL     1      -1.047  -2.260   0.028  0.00  0.00    +0.016 A 
BRANCH  26  29
ATOM     29  O   UNL     1      -2.621   1.044   0.110  0.00  0.00    -0.506 OA
ATOM     30  H   UNL     1      -2.697   1.442  -0.768  0.00  0.00    +0.292 HD
ENDBRANCH  26  29
ENDBRANCH   1  27
TORSDOF 2
