REMARK  Name = ZINC13018479
REMARK  5 active torsions:
REMARK  status: ('A' for Active; 'I' for Inactive)
REMARK    1  A    between atoms: C_1  and  C_2
REMARK    2  A    between atoms: C_15  and  C_17
REMARK    3  A    between atoms: C_17  and  N_18
REMARK    4  A    between atoms: C_21  and  C_25
REMARK    5  A    between atoms: C_21  and  C_26
REMARK                            x       y       z     vdW  Elec       q    Type
REMARK                         _______ _______ _______ _____ _____    ______ ____
ROOT
ATOM      1  N   UNL     1      -2.430   0.977   0.019  0.00  0.00    -0.215 N 
ATOM      2  C   UNL     1      -2.994   0.472   1.134  0.00  0.00    +0.251 C 
ATOM      3  O   UNL     1      -2.696   0.721   2.282  0.00  0.00    -0.272 OA
ATOM      4  C   UNL     1      -4.076  -0.474   0.653  0.00  0.00    +0.135 C 
ATOM      5  N   UNL     1      -3.989  -0.383  -0.815  0.00  0.00    -0.281 N 
ATOM      6  C   UNL     1      -3.004   0.492  -1.088  0.00  0.00    +0.310 C 
ATOM      7  O   UNL     1      -2.670   0.803  -2.214  0.00  0.00    -0.252 OA
ATOM      8  C   UNL     1      -3.791  -1.902   1.121  0.00  0.00    +0.047 C 
ATOM      9  H   UNL     1      -4.538  -0.857  -1.459  0.00  0.00    +0.152 HD
ENDROOT
BRANCH   4  10
ATOM     10  C   UNL     1      -5.430  -0.018   1.133  0.00  0.00    -0.015 A 
ATOM     11  C   UNL     1      -5.545   0.668   2.328  0.00  0.00    +0.006 A 
ATOM     12  C   UNL     1      -6.786   1.090   2.763  0.00  0.00    +0.004 A 
ATOM     13  C   UNL     1      -7.918   0.819   2.012  0.00  0.00    -0.044 A 
ATOM     14  C   UNL     1      -7.803   0.128   0.820  0.00  0.00    -0.044 A 
ATOM     15  C   UNL     1      -6.557  -0.289   0.383  0.00  0.00    +0.010 A 
ATOM     16  C   UNL     1      -9.170  -0.041   0.193  0.00  0.00    +0.036 C 
ATOM     17  C   UNL     1     -10.174   0.232   1.333  0.00  0.00    +0.009 C 
ATOM     18  C   UNL     1      -9.370   1.161   2.267  0.00  0.00    +0.036 C 
ENDBRANCH   4  10
BRANCH   1  19
ATOM     19  C   UNL     1      -1.330   1.944   0.019  0.00  0.00    +0.214 C 
BRANCH  19  33
ATOM     20  C   UNL     1       3.013   1.227  -1.422  0.00  0.00    +0.029 C 
ATOM     21  C   UNL     1       2.429   1.198  -0.009  0.00  0.00    +0.087 C 
ATOM     22  C   UNL     1       3.402   1.875   0.951  0.00  0.00    +0.118 C 
ATOM     23  C   UNL     1       2.703   2.205   2.244  0.00  0.00    +0.219 C 
ATOM     24  O   UNL     1       2.908   1.529   3.229  0.00  0.00    -0.275 OA
ATOM     25  N   UNL     1       1.849   3.250   2.312  0.00  0.00    -0.284 N 
ATOM     26  C   UNL     1       1.529   3.982   1.163  0.00  0.00    +0.055 A 
ATOM     27  C   UNL     1       1.563   5.366   1.169  0.00  0.00    +0.025 A 
ATOM     28  C   UNL     1       1.190   6.069   0.038  0.00  0.00    +0.002 A 
ATOM     29  C   UNL     1       0.784   5.394  -1.099  0.00  0.00    +0.002 A 
ATOM     30  C   UNL     1       0.759   4.011  -1.117  0.00  0.00    +0.025 A 
ATOM     31  C   UNL     1       1.140   3.300   0.009  0.00  0.00    +0.058 A 
ATOM     32  N   UNL     1       1.143   1.898   0.001  0.00  0.00    -0.265 N 
ATOM     33  C   UNL     1      -0.014   1.209   0.009  0.00  0.00    +0.238 C 
ATOM     34  O   UNL     1       0.002  -0.004   0.002  0.00  0.00    -0.273 OA
ATOM     35  H   UNL     1       1.456   3.496   3.164  0.00  0.00    +0.155 HD
ENDBRANCH  19  33
ENDBRANCH   1  19
TORSDOF 3
