REMARK  Name = ZINC43549234
REMARK  7 active torsions:
REMARK  status: ('A' for Active; 'I' for Inactive)
REMARK    1  A    between atoms: C_1  and  C_2
REMARK    2  A    between atoms: C_7  and  C_9
REMARK    3  A    between atoms: C_16  and  C_37
REMARK    4  A    between atoms: C_19  and  O_36
REMARK    5  A    between atoms: C_21  and  C_25
REMARK    6  A    between atoms: C_25  and  C_27
REMARK    7  A    between atoms: C_25  and  C_28
REMARK                            x       y       z     vdW  Elec       q    Type
REMARK                         _______ _______ _______ _____ _____    ______ ____
ROOT
ATOM      1  C   UNL     1       0.832   1.491  -0.852  0.00  0.00    +0.014 C 
ATOM      2  C   UNL     1       0.443   0.021  -0.683  0.00  0.00    +0.042 C 
ATOM      3  C   UNL     1      -1.072  -0.092  -0.558  0.00  0.00    +0.056 A 
ATOM      4  C   UNL     1      -1.617  -0.962   0.337  0.00  0.00    +0.014 A 
ATOM      5  S   UNL     1      -3.360  -0.728   0.102  0.00  0.00    -0.070 S 
ATOM      6  C   UNL     1      -3.228   0.520  -1.174  0.00  0.00    +0.128 A 
ATOM      7  N   UNL     1      -1.914   0.628  -1.290  0.00  0.00    -0.242 NA
ATOM      8  C   UNL     1      -0.904  -1.875   1.274  0.00  0.00    +0.051 C 
ATOM      9  C   UNL     1       0.570  -1.948   0.870  0.00  0.00    -0.022 C 
ATOM     10  C   UNL     1       1.103  -0.541   0.580  0.00  0.00    +0.033 C 
ATOM     11  C   UNL     1       2.613  -0.660   0.311  0.00  0.00    +0.123 C 
ATOM     12  C   UNL     1       2.822  -1.530  -0.930  0.00  0.00    +0.029 C 
ATOM     13  C   UNL     1       2.241  -2.925  -0.696  0.00  0.00    +0.007 C 
ATOM     14  C   UNL     1       0.748  -2.817  -0.373  0.00  0.00    +0.008 C 
ATOM     15  C   UNL     1       1.379  -2.546   2.023  0.00  0.00    +0.012 C 
ENDROOT
BRANCH   6  16
ATOM     16  C   UNL     1      -4.296   1.235  -1.903  0.00  0.00    +0.113 A 
ATOM     17  C   UNL     1      -5.636   1.073  -1.724  0.00  0.00    +0.114 A 
ATOM     18  N   UNL     1      -6.254   1.924  -2.596  0.00  0.00    -0.350 N 
ATOM     19  H   UNL     1      -7.211   2.038  -2.705  0.00  0.00    +0.166 HD
ATOM     20  C   UNL     1      -5.283   2.579  -3.280  0.00  0.00    +0.197 A 
ATOM     21  N   UNL     1      -4.119   2.170  -2.860  0.00  0.00    -0.234 NA
ENDBRANCH   6  16
BRANCH  12  22
ATOM     22  C   UNL     1       4.320  -1.649  -1.220  0.00  0.00    +0.078 C 
ATOM     23  C   UNL     1       4.904  -0.257  -1.467  0.00  0.00    +0.017 C 
BRANCH  22  24
ATOM     24  C   UNL     1       4.529  -2.506  -2.442  0.00  0.00    +0.219 C 
ATOM     25  O   UNL     1       3.687  -2.532  -3.315  0.00  0.00    -0.275 OA
ATOM     26  N   UNL     1       5.651  -3.243  -2.565  0.00  0.00    -0.300 N 
ATOM     27  C   UNL     1       6.709  -3.121  -1.562  0.00  0.00    +0.118 C 
ATOM     28  C   UNL     1       6.845  -4.443  -0.799  0.00  0.00    +0.088 C 
ATOM     29  S   UNL     1       7.179  -5.772  -1.994  0.00  0.00    -0.158 S 
ATOM     30  C   UNL     1       5.822  -5.602  -3.192  0.00  0.00    +0.088 C 
ATOM     31  C   UNL     1       5.793  -4.160  -3.697  0.00  0.00    +0.118 C 
ENDBRANCH  22  24
ENDBRANCH  12  22
BRANCH  11  32
ATOM     32  O   UNL     1       3.254  -1.263   1.437  0.00  0.00    -0.391 OA
ATOM     33  H   UNL     1       4.210  -1.369   1.335  0.00  0.00    +0.210 HD
ENDBRANCH  11  32
TORSDOF 4
