REMARK  Name = ZINC09425589
REMARK  10 active torsions:
REMARK  status: ('A' for Active; 'I' for Inactive)
REMARK    1  A    between atoms: C_1  and  C_2
REMARK    2  A    between atoms: C_2  and  C_3
REMARK    3  A    between atoms: C_2  and  C_4
REMARK    4  A    between atoms: C_2  and  C_16
REMARK    5  A    between atoms: C_4  and  N_5
REMARK    6  A    between atoms: N_5  and  C_6
REMARK    7  A    between atoms: C_9  and  N_13
REMARK    8  A    between atoms: C_16  and  N_17
REMARK    9  A    between atoms: N_17  and  S_18
REMARK   10  A    between atoms: S_18  and  C_21
REMARK                            x       y       z     vdW  Elec       q    Type
REMARK                         _______ _______ _______ _____ _____    ______ ____
ROOT
ATOM      1  C   UNL     1      -2.188   1.063  -1.221  0.00  0.00    +0.014 C 
ATOM      2  C   UNL     1      -0.753   1.593  -1.232  0.00  0.00    -0.005 C 
ATOM      3  C   UNL     1      -0.773   3.123  -1.223  0.00  0.00    +0.014 C 
ENDROOT
BRANCH   2   4
ATOM      4  C   UNL     1      -0.013   1.086   0.008  0.00  0.00    +0.109 C 
BRANCH   4   5
ATOM      5  N   UNL     1      -0.698   1.558   1.213  0.00  0.00    -0.342 N 
ATOM      6  H   UNL     1      -1.495   2.106   1.135  0.00  0.00    +0.146 HD
BRANCH   5   7
ATOM      7  C   UNL     1      -0.204   1.220   2.476  0.00  0.00    +0.046 A 
ATOM      8  C   UNL     1       0.937   0.437   2.590  0.00  0.00    +0.026 A 
ATOM      9  C   UNL     1       1.422   0.104   3.840  0.00  0.00    +0.034 A 
ATOM     10  C   UNL     1       0.774   0.551   4.977  0.00  0.00    +0.128 A 
ATOM     11  C   UNL     1      -0.362   1.331   4.868  0.00  0.00    +0.054 A 
ATOM     12  C   UNL     1      -0.850   1.673   3.621  0.00  0.00    +0.064 A 
ATOM     13 CL   UNL     1      -2.272   2.659   3.484  0.00  0.00    -0.082 Cl
BRANCH  10  14
ATOM     14  N   UNL     1       1.298   0.193   6.314  0.00  0.00    +0.056 N 
ATOM     15  O   UNL     1       2.300  -0.494   6.412  0.00  0.00    -0.126 OA
ATOM     16  O   UNL     1       0.729   0.586   7.317  0.00  0.00    -0.126 OA
ENDBRANCH  10  14
ENDBRANCH   5   7
ENDBRANCH   4   5
ENDBRANCH   2   4
BRANCH   2  17
ATOM     17  C   UNL     1      -0.037   1.099  -2.490  0.00  0.00    +0.113 C 
BRANCH  17  18
ATOM     18  N   UNL     1      -0.745   1.585  -3.677  0.00  0.00    -0.189 NA
ATOM     19  H   UNL     1      -1.644   1.939  -3.594  0.00  0.00    +0.148 HD
BRANCH  18  20
ATOM     20  S   UNL     1      -0.011   1.529  -5.160  0.00  0.00    +0.058 S 
ATOM     21  O   UNL     1      -0.950   2.038  -6.098  0.00  0.00    -0.153 OA
ATOM     22  O   UNL     1       1.283   2.093  -4.995  0.00  0.00    -0.153 OA
BRANCH  20  23
ATOM     23  C   UNL     1       0.229  -0.171  -5.559  0.00  0.00    +0.105 A 
ATOM     24  C   UNL     1       1.398  -0.809  -5.191  0.00  0.00    +0.030 A 
ATOM     25  C   UNL     1       1.585  -2.143  -5.498  0.00  0.00    +0.022 A 
ATOM     26  C   UNL     1       0.605  -2.838  -6.186  0.00  0.00    +0.041 A 
ATOM     27  C   UNL     1      -0.563  -2.197  -6.559  0.00  0.00    +0.022 A 
ATOM     28  C   UNL     1      -0.750  -0.864  -6.246  0.00  0.00    +0.030 A 
ATOM     29 CL   UNL     1       0.841  -4.512  -6.578  0.00  0.00    -0.084 Cl
ENDBRANCH  20  23
ENDBRANCH  18  20
ENDBRANCH  17  18
ENDBRANCH   2  17
TORSDOF 8
