REMARK  Name = ZINC15451712
REMARK  15 active torsions:
REMARK  status: ('A' for Active; 'I' for Inactive)
REMARK    1  A    between atoms: C_1  and  N_69
REMARK    2  A    between atoms: C_2  and  C_3
REMARK    3  A    between atoms: C_2  and  N_69
REMARK    4  A    between atoms: C_7  and  O_11
REMARK    5  A    between atoms: C_8  and  O_9
REMARK    6  A    between atoms: O_9  and  C_10
REMARK    7  A    between atoms: O_11  and  C_12
REMARK    8  A    between atoms: C_13  and  C_14
REMARK    9  A    between atoms: C_13  and  N_69
REMARK   10  A    between atoms: N_16  and  C_17
REMARK   11  A    between atoms: C_17  and  C_18
REMARK   12  A    between atoms: C_18  and  C_20
REMARK   13  A    between atoms: C_18  and  C_28
REMARK   14  A    between atoms: C_23  and  O_26
REMARK   15  A    between atoms: O_26  and  C_27
REMARK                            x       y       z     vdW  Elec       q    Type
REMARK                         _______ _______ _______ _____ _____    ______ ____
ROOT
ATOM      1  C   UNL     1       2.759   7.715  -4.281  0.00  0.00    +0.117 C 
ENDROOT
BRANCH   1   4
ATOM      2  C   UNL     1       2.046   5.988  -2.718  0.00  0.00    +0.196 C 
ATOM      3  O   UNL     1       2.179   5.171  -3.605  0.00  0.00    -0.278 OA
ATOM      4  N   UNL     1       2.311   7.288  -2.954  0.00  0.00    -0.316 N 
ATOM      5  H   UNL     1       2.204   7.941  -2.244  0.00  0.00    +0.149 HD
BRANCH   2   6
ATOM      6  C   UNL     1       1.584   5.548  -1.352  0.00  0.00    +0.019 C 
BRANCH   6   8
ATOM      7  C   UNL     1       0.247   3.733  -2.234  0.00  0.00    -0.095 C 
ATOM      8  N   UNL     1       1.389   4.083  -1.364  0.00  0.00    +0.386 N 
ATOM      9  H   UNL     1       2.237   3.637  -1.731  0.00  0.00    -0.081 HD
BRANCH   8  10
ATOM     10  C   UNL     1       1.145   3.595   0.010  0.00  0.00    -0.039 C 
BRANCH  10  11
ATOM     11  C   UNL     1       1.170   2.089   0.002  0.00  0.00    -0.019 A 
ATOM     12  C   UNL     1      -0.017   1.378   0.010  0.00  0.00    +0.005 A 
ATOM     13  C   UNL     1       0.002  -0.004   0.002  0.00  0.00    +0.004 A 
ATOM     14  C   UNL     1       1.207  -0.682  -0.013  0.00  0.00    +0.049 A 
ATOM     15  C   UNL     1       2.399   0.024  -0.021  0.00  0.00    +0.162 A 
ATOM     16  C   UNL     1       2.380   1.415  -0.013  0.00  0.00    +0.163 A 
BRANCH  16  17
ATOM     17  O   UNL     1       3.548   2.113  -0.020  0.00  0.00    -0.491 OA
ATOM     18  C   UNL     1       4.093   2.452  -1.297  0.00  0.00    +0.277 C 
ENDBRANCH  16  17
BRANCH  15  19
ATOM     19  O   UNL     1       3.585  -0.642  -0.035  0.00  0.00    -0.491 OA
ATOM     20  C   UNL     1       3.528  -2.070  -0.042  0.00  0.00    +0.277 C 
ENDBRANCH  15  19
ENDBRANCH  10  11
ENDBRANCH   8  10
ENDBRANCH   6   8
ENDBRANCH   2   6
ENDBRANCH   1   4
BRANCH   1  21
ATOM     21  C   UNL     1       2.987   9.228  -4.280  0.00  0.00    +0.068 C 
BRANCH  21  22
ATOM     22  C   UNL     1       4.123   9.564  -3.348  0.00  0.00    -0.013 A 
ATOM     23  C   UNL     1       5.389   9.129  -3.442  0.00  0.00    +0.088 A 
ATOM     24  N   UNL     1       6.137   9.643  -2.419  0.00  0.00    -0.360 N 
ATOM     25  H   UNL     1       7.081   9.471  -2.277  0.00  0.00    +0.165 HD
ATOM     26  C   UNL     1       5.351  10.443  -1.620  0.00  0.00    +0.047 A 
ATOM     27  C   UNL     1       4.056  10.434  -2.170  0.00  0.00    +0.003 A 
ATOM     28  C   UNL     1       3.037  11.171  -1.566  0.00  0.00    +0.010 A 
ATOM     29  C   UNL     1       3.304  11.902  -0.442  0.00  0.00    +0.001 A 
ATOM     30  C   UNL     1       4.580  11.918   0.102  0.00  0.00    +0.002 A 
ATOM     31  C   UNL     1       5.599  11.191  -0.474  0.00  0.00    +0.026 A 
ENDBRANCH  21  22
BRANCH  21  32
ATOM     32  C   UNL     1       3.330   9.686  -5.674  0.00  0.00    -0.038 A 
ATOM     33  C   UNL     1       4.451   9.184  -6.310  0.00  0.00    +0.008 A 
ATOM     34  C   UNL     1       4.764   9.597  -7.590  0.00  0.00    +0.046 A 
ATOM     35  C   UNL     1       3.959  10.526  -8.234  0.00  0.00    +0.120 A 
ATOM     36  C   UNL     1       2.838  11.033  -7.592  0.00  0.00    +0.046 A 
ATOM     37  C   UNL     1       2.526  10.611  -6.314  0.00  0.00    +0.008 A 
BRANCH  35  38
ATOM     38  O   UNL     1       4.268  10.940  -9.491  0.00  0.00    -0.495 OA
ATOM     39  C   UNL     1       5.437  10.375 -10.090  0.00  0.00    +0.277 C 
ENDBRANCH  35  38
ENDBRANCH  21  32
ENDBRANCH   1  21
TORSDOF 11
