REMARK  Name = ZINC35827664
REMARK  11 active torsions:
REMARK  status: ('A' for Active; 'I' for Inactive)
REMARK    1  A    between atoms: C_1  and  C_2
REMARK    2  A    between atoms: C_2  and  N_3
REMARK    3  A    between atoms: N_3  and  C_4
REMARK    4  A    between atoms: N_3  and  C_6
REMARK    5  A    between atoms: C_4  and  C_5
REMARK    6  A    between atoms: C_9  and  C_12
REMARK    7  A    between atoms: C_20  and  O_34
REMARK    8  A    between atoms: N_23  and  C_24
REMARK    9  A    between atoms: C_24  and  C_25
REMARK   10  A    between atoms: N_27  and  C_28
REMARK   11  A    between atoms: C_28  and  C_29
REMARK                            x       y       z     vdW  Elec       q    Type
REMARK                         _______ _______ _______ _____ _____    ______ ____
ROOT
ATOM      1  C   UNL     1      -3.986  -1.519   4.943  0.00  0.00    -0.031 C 
ATOM      2  C   UNL     1      -3.929  -3.015   5.254  0.00  0.00    +0.011 C 
ATOM      3  C   UNL     1      -2.475  -3.478   5.350  0.00  0.00    +0.005 C 
ATOM      4  C   UNL     1      -2.444  -4.979   5.650  0.00  0.00    +0.000 C 
ATOM      5  C   UNL     1      -3.163  -5.257   6.971  0.00  0.00    +0.003 C 
ATOM      6  C   UNL     1      -4.614  -4.779   6.880  0.00  0.00    +0.035 C 
ATOM      7  C   UNL     1      -4.629  -3.277   6.590  0.00  0.00    +0.066 C 
ATOM      8  C   UNL     1      -6.072  -2.774   6.503  0.00  0.00    +0.016 C 
ATOM      9  C   UNL     1      -6.060  -1.286   6.141  0.00  0.00    -0.075 C 
ATOM     10  N   UNL     1      -5.388  -1.093   4.851  0.00  0.00    +0.390 N 
ATOM     11  H   UNL     1      -5.858  -1.639   4.144  0.00  0.00    -0.080 HD
ENDROOT
BRANCH   1  15
ATOM     12  C   UNL     1      -2.016  -0.759   1.227  0.00  0.00    +0.030 A 
ATOM     13  C   UNL     1      -1.356  -0.520   2.426  0.00  0.00    +0.023 A 
ATOM     14  C   UNL     1      -1.996  -0.767   3.625  0.00  0.00    +0.004 A 
ATOM     15  C   UNL     1      -3.291  -1.251   3.633  0.00  0.00    -0.060 A 
ATOM     16  C   UNL     1      -3.951  -1.490   2.441  0.00  0.00    +0.004 A 
ATOM     17  C   UNL     1      -3.319  -1.240   1.239  0.00  0.00    +0.023 A 
BRANCH  12  18
ATOM     18  N   UNL     1      -1.372  -0.511   0.012  0.00  0.00    -0.330 N 
BRANCH  18  20
ATOM     19  C   UNL     1      -0.019   1.526   0.010  0.00  0.00    +0.024 C 
ATOM     20  C   UNL     1       0.002  -0.004   0.002  0.00  0.00    +0.102 C 
ENDBRANCH  18  20
BRANCH  18  21
ATOM     21  C   UNL     1      -2.072  -0.758  -1.251  0.00  0.00    +0.102 C 
ATOM     22  C   UNL     1      -1.816  -2.197  -1.703  0.00  0.00    +0.024 C 
ENDBRANCH  18  21
ENDBRANCH  12  18
ENDBRANCH   1  15
BRANCH   7  23
ATOM     23  O   UNL     1      -3.943  -2.582   7.633  0.00  0.00    -0.388 OA
ATOM     24  H   UNL     1      -4.333  -2.704   8.509  0.00  0.00    +0.210 HD
ENDBRANCH   7  23
BRANCH  10  25
ATOM     25  C   UNL     1      -5.442   0.328   4.481  0.00  0.00    +0.019 C 
BRANCH  25  26
ATOM     26  C   UNL     1      -6.877   0.737   4.266  0.00  0.00    +0.197 C 
ATOM     27  O   UNL     1      -7.766  -0.076   4.406  0.00  0.00    -0.278 OA
ATOM     28  N   UNL     1      -7.171   2.005   3.917  0.00  0.00    -0.310 N 
ATOM     29  H   UNL     1      -6.460   2.655   3.805  0.00  0.00    +0.149 HD
BRANCH  28  30
ATOM     30  C   UNL     1      -8.565   2.402   3.708  0.00  0.00    +0.178 C 
BRANCH  30  31
ATOM     31  C   UNL     1      -8.621   3.860   3.329  0.00  0.00    +0.122 A 
ATOM     32  C   UNL     1      -8.574   4.349   2.077  0.00  0.00    +0.046 A 
ATOM     33  C   UNL     1      -8.655   5.757   2.184  0.00  0.00    +0.041 A 
ATOM     34  C   UNL     1      -8.747   6.043   3.495  0.00  0.00    +0.195 A 
ATOM     35  O   UNL     1      -8.731   4.890   4.184  0.00  0.00    -0.466 OA
ENDBRANCH  30  31
ENDBRANCH  28  30
ENDBRANCH  25  26
ENDBRANCH  10  25
TORSDOF 9
