REMARK  Name = ZINC22397181
REMARK  9 active torsions:
REMARK  status: ('A' for Active; 'I' for Inactive)
REMARK    1  A    between atoms: C_1  and  C_2
REMARK    2  A    between atoms: N_6  and  C_7
REMARK    3  A    between atoms: C_10  and  C_13
REMARK    4  A    between atoms: C_13  and  N_14
REMARK    5  A    between atoms: C_15  and  C_17
REMARK    6  A    between atoms: C_17  and  N_18
REMARK    7  A    between atoms: N_18  and  C_19
REMARK    8  A    between atoms: N_18  and  S_26
REMARK    9  A    between atoms: S_26  and  C_29
REMARK                            x       y       z     vdW  Elec       q    Type
REMARK                         _______ _______ _______ _____ _____    ______ ____
ROOT
ATOM      1  C   UNL     1      -0.028  -2.192  -2.210  0.00  0.00    +0.227 C 
ENDROOT
BRANCH   1   3
ATOM      2  N   UNL     1      -0.661   0.165  -2.614  0.00  0.00    -0.310 N 
ATOM      3  C   UNL     1       0.234  -0.711  -2.114  0.00  0.00    +0.232 C 
ATOM      4  O   UNL     1       1.249  -0.307  -1.588  0.00  0.00    -0.274 OA
ATOM      5  H   UNL     1      -1.581  -0.201  -3.091  0.00  0.00    +0.149 HD
BRANCH   2   6
ATOM      6  C   UNL     1      -0.407   1.605  -2.520  0.00  0.00    +0.139 C 
BRANCH   6  10
ATOM      7  C   UNL     1      -3.650   3.743  -4.301  0.00  0.00    +0.048 A 
ATOM      8  C   UNL     1      -3.685   3.426  -2.950  0.00  0.00    +0.026 A 
ATOM      9  C   UNL     1      -2.635   2.734  -2.378  0.00  0.00    +0.007 A 
ATOM     10  C   UNL     1      -1.551   2.359  -3.148  0.00  0.00    -0.030 A 
ATOM     11  C   UNL     1      -1.511   2.678  -4.493  0.00  0.00    +0.007 A 
ATOM     12  C   UNL     1      -2.560   3.365  -5.073  0.00  0.00    +0.026 A 
BRANCH   7  18
ATOM     13  C   UNL     1      -3.343   6.260  -6.039  0.00  0.00    +0.084 C 
ATOM     14  C   UNL     1      -4.621   5.558  -5.658  0.00  0.00    +0.088 A 
ATOM     15  N   UNL     1      -5.823   5.917  -6.018  0.00  0.00    -0.350 N 
ATOM     16  C   UNL     1      -6.717   5.066  -5.491  0.00  0.00    +0.102 A 
ATOM     17  C   UNL     1      -6.047   4.139  -4.781  0.00  0.00    +0.110 A 
ATOM     18  N   UNL     1      -4.715   4.444  -4.886  0.00  0.00    -0.305 N 
ATOM     19  H   UNL     1      -5.965   6.801  -6.657  0.00  0.00    +0.166 HD
ENDBRANCH   7  18
ENDBRANCH   6  10
ENDBRANCH   2   6
ENDBRANCH   1   3
BRANCH   1  20
ATOM     20  N   UNL     1       1.084  -2.924  -1.600  0.00  0.00    -0.194 N 
BRANCH  20  21
ATOM     21  C   UNL     1       2.228  -3.213  -2.351  0.00  0.00    +0.052 A 
ATOM     22  C   UNL     1       3.463  -2.714  -1.958  0.00  0.00    +0.027 A 
ATOM     23  C   UNL     1       4.591  -3.005  -2.699  0.00  0.00    +0.040 A 
ATOM     24  C   UNL     1       4.490  -3.784  -3.839  0.00  0.00    +0.124 A 
ATOM     25  C   UNL     1       3.259  -4.278  -4.236  0.00  0.00    +0.040 A 
ATOM     26  C   UNL     1       2.129  -3.995  -3.495  0.00  0.00    +0.027 A 
ATOM     27  F   UNL     1       5.595  -4.064  -4.565  0.00  0.00    -0.205 F 
ENDBRANCH  20  21
BRANCH  20  28
ATOM     28  S   UNL     1       0.988  -3.410  -0.019  0.00  0.00    +0.075 S 
ATOM     29  O   UNL     1       1.836  -4.542   0.110  0.00  0.00    -0.150 OA
ATOM     30  O   UNL     1      -0.395  -3.453   0.308  0.00  0.00    -0.150 OA
BRANCH  28  31
ATOM     31  C   UNL     1       1.699  -2.132   0.963  0.00  0.00    +0.109 A 
ATOM     32  C   UNL     1       0.930  -1.052   1.354  0.00  0.00    +0.031 A 
ATOM     33  C   UNL     1       1.487  -0.049   2.125  0.00  0.00    +0.040 A 
ATOM     34  C   UNL     1       2.816  -0.126   2.505  0.00  0.00    +0.124 A 
ATOM     35  C   UNL     1       3.586  -1.208   2.112  0.00  0.00    +0.040 A 
ATOM     36  C   UNL     1       3.026  -2.210   1.342  0.00  0.00    +0.031 A 
ATOM     37  F   UNL     1       3.361   0.854   3.258  0.00  0.00    -0.205 F 
ENDBRANCH  28  31
ENDBRANCH  20  28
ENDBRANCH   1  20
TORSDOF 8
