REMARK  Name = ZINC04908657
REMARK  8 active torsions:
REMARK  status: ('A' for Active; 'I' for Inactive)
REMARK    1  A    between atoms: C_1  and  C_2
REMARK    2  A    between atoms: C_2  and  O_27
REMARK    3  A    between atoms: C_6  and  O_10
REMARK    4  A    between atoms: C_11  and  C_21
REMARK    5  A    between atoms: C_13  and  C_15
REMARK    6  A    between atoms: C_15  and  O_17
REMARK    7  A    between atoms: O_17  and  C_18
REMARK    8  A    between atoms: C_18  and  C_19
REMARK                            x       y       z     vdW  Elec       q    Type
REMARK                         _______ _______ _______ _____ _____    ______ ____
ROOT
ATOM      1  C   UNL     1      -0.019   1.526   0.010  0.00  0.00    +0.042 C 
ATOM      2  C   UNL     1       0.002  -0.004   0.002  0.00  0.00    +0.082 C 
ATOM      3  C   UNL     1      -1.437  -0.535   0.012  0.00  0.00    +0.090 C 
ATOM      4  C   UNL     1      -2.040  -0.248   1.365  0.00  0.00    +0.046 A 
ATOM      5  C   UNL     1      -1.317   0.074   2.467  0.00  0.00    +0.044 A 
ATOM      6  C   UNL     1      -2.209   0.270   3.525  0.00  0.00    +0.235 A 
ATOM      7  N   UNL     1      -3.426   0.070   3.071  0.00  0.00    -0.136 NA
ATOM      8  H   UNL     1      -4.084  -0.459   1.122  0.00  0.00    +0.189 HD
ATOM      9  N   UNL     1      -3.338  -0.259   1.710  0.00  0.00    -0.278 N 
ATOM     10  C   UNL     1       0.186   0.185   2.491  0.00  0.00    +0.072 C 
ATOM     11  C   UNL     1       0.743  -0.511   1.242  0.00  0.00    +0.141 C 
ENDROOT
BRANCH  10  12
ATOM     12  C   UNL     1       0.726  -0.485   3.728  0.00  0.00    -0.039 A 
ATOM     13  C   UNL     1       0.495  -1.831   3.942  0.00  0.00    +0.004 A 
ATOM     14  C   UNL     1       0.989  -2.445   5.077  0.00  0.00    +0.000 A 
ATOM     15  C   UNL     1       1.715  -1.714   5.999  0.00  0.00    +0.000 A 
ATOM     16  C   UNL     1       1.947  -0.368   5.785  0.00  0.00    +0.000 A 
ATOM     17  C   UNL     1       1.456   0.246   4.647  0.00  0.00    +0.004 A 
ENDBRANCH  10  12
BRANCH   6  18
ATOM     18  O   UNL     1      -1.877   0.607   4.799  0.00  0.00    -0.491 OA
ATOM     19  H   UNL     1      -1.842   1.561   4.957  0.00  0.00    +0.294 HD
ENDBRANCH   6  18
BRANCH  11  20
ATOM     20  C   UNL     1       2.212  -0.205   1.110  0.00  0.00    +0.314 C 
ATOM     21  O   UNL     1       2.625   0.359   0.125  0.00  0.00    -0.250 OA
BRANCH  20  22
ATOM     22  O   UNL     1       3.062  -0.561   2.086  0.00  0.00    -0.460 OA
BRANCH  22  23
ATOM     23  C   UNL     1       4.442  -0.240   1.894  0.00  0.00    +0.259 C 
BRANCH  23  24
ATOM     24  C   UNL     1       5.238  -0.712   3.083  0.00  0.00    +0.006 C 
ATOM     25  C   UNL     1       6.370  -1.346   2.903  0.00  0.00    +0.007 C 
ENDBRANCH  23  24
ENDBRANCH  22  23
ENDBRANCH  20  22
ENDBRANCH  11  20
BRANCH   2  26
ATOM     26  O   UNL     1       0.671  -0.465  -1.174  0.00  0.00    -0.388 OA
ATOM     27  H   UNL     1       0.256  -0.180  -1.999  0.00  0.00    +0.210 HD
ENDBRANCH   2  26
TORSDOF 7
