REMARK  Name = ZINC63818698
REMARK  8 active torsions:
REMARK  status: ('A' for Active; 'I' for Inactive)
REMARK    1  A    between atoms: C_1  and  O_2
REMARK    2  A    between atoms: O_2  and  C_3
REMARK    3  A    between atoms: C_9  and  C_12
REMARK    4  A    between atoms: C_12  and  C_13
REMARK    5  A    between atoms: C_13  and  N_14
REMARK    6  A    between atoms: C_15  and  C_17
REMARK    7  A    between atoms: N_19  and  C_20
REMARK    8  A    between atoms: C_29  and  O_30
REMARK                            x       y       z     vdW  Elec       q    Type
REMARK                         _______ _______ _______ _____ _____    ______ ____
ROOT
ATOM      1  N   UNL     1       1.786  -6.744  -0.045  0.00  0.00    -0.307 N 
ATOM      2  C   UNL     1       2.631  -7.319  -0.923  0.00  0.00    +0.299 C 
ATOM      3  O   UNL     1       3.750  -6.874  -1.069  0.00  0.00    -0.265 OA
ATOM      4  H   UNL     1       0.891  -7.099   0.072  0.00  0.00    +0.149 HD
ENDROOT
BRANCH   2   5
ATOM      5  C   UNL     1       2.189  -8.505  -1.716  0.00  0.00    +0.303 C 
ATOM      6  O   UNL     1       1.069  -8.950  -1.570  0.00  0.00    -0.265 OA
ATOM      7  N   UNL     1       3.034  -9.081  -2.594  0.00  0.00    -0.277 N 
ATOM      8  H   UNL     1       3.904  -8.686  -2.760  0.00  0.00    +0.155 HD
BRANCH   7   9
ATOM      9  C   UNL     1       2.656 -10.243  -3.265  0.00  0.00    +0.042 A 
ATOM     10  C   UNL     1       1.342 -10.436  -3.637  0.00  0.00    +0.024 A 
ATOM     11  C   UNL     1       0.956 -11.593  -4.307  0.00  0.00    +0.003 A 
ATOM     12  C   UNL     1       1.861 -12.563  -4.614  0.00  0.00    +0.012 A 
ATOM     13  C   UNL     1       3.209 -12.404  -4.254  0.00  0.00    +0.025 A 
ATOM     14  C   UNL     1       3.616 -11.230  -3.576  0.00  0.00    +0.007 A 
ATOM     15  C   UNL     1       4.965 -11.070  -3.220  0.00  0.00    +0.010 A 
ATOM     16  C   UNL     1       5.867 -12.042  -3.534  0.00  0.00    +0.004 A 
ATOM     17  C   UNL     1       5.473 -13.196  -4.205  0.00  0.00    +0.046 A 
ATOM     18  C   UNL     1       4.168 -13.393  -4.558  0.00  0.00    +0.125 A 
BRANCH  18  19
ATOM     19  O   UNL     1       3.799 -14.525  -5.212  0.00  0.00    -0.506 OA
ATOM     20  H   UNL     1       3.852 -14.458  -6.175  0.00  0.00    +0.292 HD
ENDBRANCH  18  19
ENDBRANCH   7   9
ENDBRANCH   2   5
BRANCH   1  21
ATOM     21  C   UNL     1       2.219  -5.580   0.734  0.00  0.00    +0.109 C 
BRANCH  21  22
ATOM     22  C   UNL     1       1.080  -5.125   1.647  0.00  0.00    +0.052 C 
BRANCH  22  29
ATOM     23  C   UNL     1       0.597  -0.605   0.991  0.00  0.00    +0.121 A 
ATOM     24  C   UNL     1       1.171   0.194   1.995  0.00  0.00    +0.047 A 
ATOM     25  C   UNL     1       1.810  -0.328   3.064  0.00  0.00    +0.029 A 
ATOM     26  C   UNL     1       1.923  -1.783   3.204  0.00  0.00    +0.043 A 
ATOM     27  N   UNL     1       2.480  -2.534   4.122  0.00  0.00    -0.380 N 
ATOM     28  C   UNL     1       2.293  -3.941   3.751  0.00  0.00    +0.144 C 
ATOM     29  C   UNL     1       1.525  -3.929   2.448  0.00  0.00    -0.040 C 
ATOM     30  C   UNL     1       1.319  -2.627   2.147  0.00  0.00    +0.002 A 
ATOM     31  C   UNL     1       0.643  -1.958   1.030  0.00  0.00    +0.055 A 
ATOM     32  H   UNL     1       2.940  -2.213   4.913  0.00  0.00    +0.160 HD
BRANCH  23  34
ATOM     33  C   UNL     1      -0.053   1.430  -0.053  0.00  0.00    +0.277 C 
ATOM     34  O   UNL     1      -0.029   0.001  -0.052  0.00  0.00    -0.495 OA
ENDBRANCH  23  34
ENDBRANCH  22  29
ENDBRANCH  21  22
ENDBRANCH   1  21
TORSDOF 7
