REMARK  Name = ZINC40322709
REMARK  8 active torsions:
REMARK  status: ('A' for Active; 'I' for Inactive)
REMARK    1  A    between atoms: C_1  and  C_2
REMARK    2  A    between atoms: C_5  and  S_8
REMARK    3  A    between atoms: S_8  and  C_11
REMARK    4  A    between atoms: C_14  and  C_16
REMARK    5  A    between atoms: N_18  and  C_19
REMARK    6  A    between atoms: C_19  and  C_20
REMARK    7  A    between atoms: C_20  and  C_22
REMARK    8  A    between atoms: C_20  and  N_27
REMARK                            x       y       z     vdW  Elec       q    Type
REMARK                         _______ _______ _______ _____ _____    ______ ____
ROOT
ATOM      1  C   UNL     1       4.761  -6.203  -1.672  0.00  0.00    +0.279 C 
ATOM      2  O   UNL     1       5.764  -6.731  -1.231  0.00  0.00    -0.267 OA
ATOM      3  N   UNL     1       4.639  -5.988  -2.997  0.00  0.00    -0.310 N 
ATOM      4  H   UNL     1       3.839  -5.567  -3.348  0.00  0.00    +0.149 HD
ENDROOT
BRANCH   1   8
ATOM      5  C   UNL     1       1.786  -4.985  -0.023  0.00  0.00    +0.246 A 
ATOM      6  C   UNL     1       2.462  -5.434   1.058  0.00  0.00    +0.070 A 
ATOM      7  C   UNL     1       3.679  -5.958   0.595  0.00  0.00    +0.056 A 
ATOM      8  C   UNL     1       3.684  -5.800  -0.761  0.00  0.00    +0.192 A 
ATOM      9  O   UNL     1       2.523  -5.212  -1.117  0.00  0.00    -0.433 OA
BRANCH   5  10
ATOM     10  S   UNL     1       0.193  -4.232   0.003  0.00  0.00    +0.058 S 
ATOM     11  O   UNL     1      -0.447  -4.676   1.192  0.00  0.00    -0.161 OA
ATOM     12  O   UNL     1      -0.372  -4.431  -1.286  0.00  0.00    -0.161 OA
BRANCH  10  17
ATOM     13  C   UNL     1       1.035   1.711   0.617  0.00  0.00    +0.044 C 
ATOM     14  C   UNL     1       0.825   0.227   0.464  0.00  0.00    -0.050 A 
ATOM     15  C   UNL     1       0.765  -0.337  -0.797  0.00  0.00    +0.005 A 
ATOM     16  C   UNL     1       0.573  -1.698  -0.938  0.00  0.00    +0.028 A 
ATOM     17  C   UNL     1       0.440  -2.497   0.182  0.00  0.00    +0.097 A 
ATOM     18  C   UNL     1       0.500  -1.934   1.444  0.00  0.00    +0.028 A 
ATOM     19  C   UNL     1       0.697  -0.573   1.584  0.00  0.00    +0.005 A 
ENDBRANCH  10  17
ENDBRANCH   5  10
ENDBRANCH   1   8
BRANCH   3  20
ATOM     20  C   UNL     1       5.714  -6.391  -3.906  0.00  0.00    +0.094 C 
BRANCH  20  21
ATOM     21  C   UNL     1       5.274  -6.156  -5.353  0.00  0.00    -0.013 C 
BRANCH  21  22
ATOM     22  N   UNL     1       6.383  -6.476  -6.260  0.00  0.00    +0.386 N 
ATOM     23  C   UNL     1       7.504  -5.564  -6.002  0.00  0.00    -0.078 C 
ATOM     24  C   UNL     1       8.691  -5.944  -6.888  0.00  0.00    -0.019 C 
ATOM     25  C   UNL     1       8.277  -5.842  -8.359  0.00  0.00    -0.004 C 
ATOM     26  C   UNL     1       7.061  -6.742  -8.600  0.00  0.00    -0.019 C 
ATOM     27  C   UNL     1       5.934  -6.332  -7.650  0.00  0.00    -0.078 C 
ATOM     28  H   UNL     1       6.683  -7.427  -6.102  0.00  0.00    -0.081 HD
ENDBRANCH  21  22
BRANCH  21  29
ATOM     29  C   UNL     1       4.095  -7.041  -5.668  0.00  0.00    -0.022 A 
ATOM     30  C   UNL     1       2.777  -6.726  -5.705  0.00  0.00    +0.009 A 
ATOM     31  C   UNL     1       1.862  -7.711  -6.023  0.00  0.00    +0.008 A 
ATOM     32  C   UNL     1       2.309  -8.963  -6.290  0.00  0.00    +0.045 A 
ATOM     33  S   UNL     1       4.074  -8.773  -6.099  0.00  0.00    -0.103 S 
ENDBRANCH  21  29
ENDBRANCH  20  21
ENDBRANCH   3  20
TORSDOF 7
