REMARK  Name = ZINC35954277
REMARK  14 active torsions:
REMARK  status: ('A' for Active; 'I' for Inactive)
REMARK    1  A    between atoms: C_1  and  C_2
REMARK    2  A    between atoms: C_2  and  C_3
REMARK    3  A    between atoms: C_3  and  C_5
REMARK    4  A    between atoms: C_3  and  N_6
REMARK    5  A    between atoms: N_6  and  C_7
REMARK    6  A    between atoms: N_6  and  S_28
REMARK    7  A    between atoms: C_7  and  C_8
REMARK    8  A    between atoms: C_9  and  C_27
REMARK    9  A    between atoms: N_11  and  C_21
REMARK   10  A    between atoms: C_12  and  N_13
REMARK   11  A    between atoms: N_16  and  C_19
REMARK   12  A    between atoms: C_19  and  C_20
REMARK   13  A    between atoms: S_28  and  C_31
REMARK   14  A    between atoms: C_32  and  C_33
REMARK                            x       y       z     vdW  Elec       q    Type
REMARK                         _______ _______ _______ _____ _____    ______ ____
ROOT
ATOM      1  C   UNL     1      -0.871  -2.208   4.545  0.00  0.00    +0.031 A 
ATOM      2  C   UNL     1      -0.160  -2.958   3.604  0.00  0.00    +0.067 A 
ATOM      3  N   UNL     1       1.046  -3.168   4.067  0.00  0.00    -0.170 NA
ATOM      4  N   UNL     1       1.150  -2.559   5.324  0.00  0.00    -0.218 N 
ATOM      5  C   UNL     1      -0.043  -1.966   5.599  0.00  0.00    +0.129 A 
ATOM      6  C   UNL     1      -0.692  -3.443   2.280  0.00  0.00    +0.068 C 
ENDROOT
BRANCH   5   7
ATOM      7  N   UNL     1      -0.361  -1.247   6.747  0.00  0.00    -0.318 N 
ATOM      8  C   UNL     1      -1.302  -1.786   7.741  0.00  0.00    +0.088 C 
ATOM      9  C   UNL     1      -0.653  -1.692   9.126  0.00  0.00    -0.060 C 
ATOM     10  N   UNL     1      -0.235  -0.307   9.376  0.00  0.00    +0.382 N 
ATOM     11  C   UNL     1       0.812   0.080   8.422  0.00  0.00    -0.060 C 
ATOM     12  C   UNL     1       0.240   0.071   7.005  0.00  0.00    +0.088 C 
ATOM     13  H   UNL     1      -1.029   0.307   9.270  0.00  0.00    -0.082 HD
BRANCH  10  14
ATOM     14  C   UNL     1       0.287  -0.194  10.745  0.00  0.00    -0.082 C 
ATOM     15  C   UNL     1       0.606   1.270  11.050  0.00  0.00    -0.017 C 
ENDBRANCH  10  14
ENDBRANCH   5   7
BRANCH   4  16
ATOM     16  C   UNL     1       2.283  -2.556   6.149  0.00  0.00    +0.067 A 
ATOM     17  C   UNL     1       2.815  -1.354   6.596  0.00  0.00    +0.028 A 
ATOM     18  C   UNL     1       3.932  -1.354   7.409  0.00  0.00    +0.002 A 
ATOM     19  C   UNL     1       4.520  -2.550   7.778  0.00  0.00    +0.000 A 
ATOM     20  C   UNL     1       3.993  -3.749   7.334  0.00  0.00    +0.002 A 
ATOM     21  C   UNL     1       2.873  -3.756   6.526  0.00  0.00    +0.028 A 
ENDBRANCH   4  16
BRANCH   1  22
ATOM     22  C   UNL     1      -2.299  -1.743   4.413  0.00  0.00    +0.150 C 
BRANCH  22  23
ATOM     23  N   UNL     1      -2.349  -0.283   4.522  0.00  0.00    -0.170 NA
BRANCH  23  24
ATOM     24  S   UNL     1      -3.186   0.426   5.763  0.00  0.00    +0.055 S 
ATOM     25  O   UNL     1      -3.724  -0.630   6.546  0.00  0.00    -0.153 OA
ATOM     26  O   UNL     1      -2.333   1.422   6.310  0.00  0.00    -0.153 OA
BRANCH  24  27
ATOM     27  C   UNL     1      -4.556   1.274   5.050  0.00  0.00    +0.153 C 
ATOM     28  C   UNL     1      -5.793   0.880   5.321  0.00  0.00    +0.028 C 
BRANCH  28  29
ATOM     29  C   UNL     1      -6.943   1.591   4.723  0.00  0.00    -0.024 A 
ATOM     30  C   UNL     1      -6.730   2.673   3.868  0.00  0.00    +0.008 A 
ATOM     31  C   UNL     1      -7.807   3.332   3.313  0.00  0.00    +0.001 A 
ATOM     32  C   UNL     1      -9.097   2.923   3.603  0.00  0.00    +0.000 A 
ATOM     33  C   UNL     1      -9.314   1.852   4.451  0.00  0.00    +0.001 A 
ATOM     34  C   UNL     1      -8.245   1.180   5.007  0.00  0.00    +0.008 A 
ENDBRANCH  28  29
ENDBRANCH  24  27
ENDBRANCH  23  24
BRANCH  23  35
ATOM     35  C   UNL     1      -1.660   0.549   3.533  0.00  0.00    +0.077 C 
ATOM     36  C   UNL     1      -0.150   0.329   3.644  0.00  0.00    +0.026 C 
BRANCH  35  38
ATOM     37  C   UNL     1      -3.614   0.502   1.976  0.00  0.00    +0.005 C 
ATOM     38  C   UNL     1      -2.129   0.165   2.128  0.00  0.00    +0.017 C 
ENDBRANCH  35  38
ENDBRANCH  23  35
ENDBRANCH  22  23
ENDBRANCH   1  22
TORSDOF 10
