REMARK  Name = ZINC18058130
REMARK  6 active torsions:
REMARK  status: ('A' for Active; 'I' for Inactive)
REMARK    1  A    between atoms: C_1  and  C_2
REMARK    2  A    between atoms: C_5  and  N_8
REMARK    3  A    between atoms: C_12  and  N_16
REMARK    4  A    between atoms: C_20  and  C_21
REMARK    5  A    between atoms: C_22  and  O_33
REMARK    6  A    between atoms: C_24  and  C_25
REMARK                            x       y       z     vdW  Elec       q    Type
REMARK                         _______ _______ _______ _____ _____    ______ ____
ROOT
ATOM      1  N   UNL     1       1.364  -6.922   1.202  0.00  0.00    -0.303 N 
ATOM      2  C   UNL     1       2.721  -6.444   0.890  0.00  0.00    +0.128 C 
ATOM      3  C   UNL     1       3.630  -7.564   1.433  0.00  0.00    +0.133 C 
ATOM      4  N   UNL     1       2.694  -8.549   1.991  0.00  0.00    -0.371 N 
ATOM      5  C   UNL     1       1.469  -8.137   1.839  0.00  0.00    +0.102 C 
ATOM      6  H   UNL     1       2.951  -9.383   2.416  0.00  0.00    +0.161 HD
ENDROOT
BRANCH   1  11
ATOM      7  N   UNL     1       0.053  -3.981   0.267  0.00  0.00    -0.209 N 
ATOM      8  C   UNL     1      -0.109  -4.632  -0.892  0.00  0.00    +0.228 C 
ATOM      9  O   UNL     1      -0.249  -4.110  -1.977  0.00  0.00    -0.275 OA
ATOM     10  C   UNL     1      -0.088  -6.122  -0.632  0.00  0.00    +0.128 C 
ATOM     11  C   UNL     1       0.115  -6.221   0.893  0.00  0.00    +0.170 C 
ATOM     12  C   UNL     1       0.194  -4.776   1.335  0.00  0.00    +0.247 C 
ATOM     13  O   UNL     1       0.357  -4.398   2.475  0.00  0.00    -0.273 OA
BRANCH   7  18
ATOM     14  C   UNL     1       0.155   1.683   0.618  0.00  0.00    +0.044 C 
ATOM     15  C   UNL     1       0.128   0.179   0.525  0.00  0.00    -0.050 A 
ATOM     16  C   UNL     1       1.220  -0.558   0.945  0.00  0.00    +0.005 A 
ATOM     17  C   UNL     1       1.198  -1.937   0.861  0.00  0.00    +0.024 A 
ATOM     18  C   UNL     1       0.078  -2.582   0.354  0.00  0.00    +0.044 A 
ATOM     19  C   UNL     1      -1.017  -1.839  -0.066  0.00  0.00    +0.024 A 
ATOM     20  C   UNL     1      -0.991  -0.461   0.025  0.00  0.00    +0.005 A 
ENDBRANCH   7  18
ENDBRANCH   1  11
BRANCH   5  21
ATOM     21  C   UNL     1       0.345  -8.876   2.285  0.00  0.00    +0.032 C 
ATOM     22  C   UNL     1       0.043  -9.121   3.581  0.00  0.00    +0.126 C 
ATOM     23  C   UNL     1      -1.178  -9.908   3.713  0.00  0.00    -0.005 C 
ATOM     24  C   UNL     1      -1.741 -10.314   4.870  0.00  0.00    +0.015 C 
ATOM     25  C   UNL     1      -1.700 -10.186   2.321  0.00  0.00    +0.044 C 
ATOM     26  C   UNL     1      -0.694  -9.497   1.385  0.00  0.00    +0.047 C 
BRANCH  24  27
ATOM     27  C   UNL     1      -2.898 -11.224   4.845  0.00  0.00    -0.025 A 
ATOM     28  C   UNL     1      -2.970 -12.244   3.891  0.00  0.00    +0.008 A 
ATOM     29  C   UNL     1      -4.057 -13.093   3.875  0.00  0.00    +0.001 A 
ATOM     30  C   UNL     1      -5.074 -12.938   4.800  0.00  0.00    +0.000 A 
ATOM     31  C   UNL     1      -5.010 -11.931   5.747  0.00  0.00    +0.001 A 
ATOM     32  C   UNL     1      -3.928 -11.078   5.780  0.00  0.00    +0.008 A 
ENDBRANCH  24  27
BRANCH  22  33
ATOM     33  O   UNL     1       0.785  -8.689   4.629  0.00  0.00    -0.506 OA
ATOM     34  H   UNL     1       0.396  -8.881   5.493  0.00  0.00    +0.292 HD
ENDBRANCH  22  33
ENDBRANCH   5  21
TORSDOF 5
