REMARK  Name = ZINC04172162
REMARK  2 active torsions:
REMARK  status: ('A' for Active; 'I' for Inactive)
REMARK    1  A    between atoms: C_5  and  C_7
REMARK    2  A    between atoms: C_18  and  C_23
REMARK                            x       y       z     vdW  Elec       q    Type
REMARK                         _______ _______ _______ _____ _____    ______ ____
ROOT
ATOM      1  C   UNL     1       2.451   3.939  -0.000  0.00  0.00    +0.106 C 
ATOM      2  C   UNL     1       3.004   3.998  -1.427  0.00  0.00    +0.029 C 
ATOM      3  C   UNL     1       2.910   2.565  -2.023  0.00  0.00    +0.033 C 
ATOM      4  C   UNL     1       1.470   2.470  -2.490  0.00  0.00    -0.030 C 
ATOM      5  C   UNL     1       0.968   3.667  -2.672  0.00  0.00    -0.023 C 
ATOM      6  C   UNL     1       1.998   4.722  -2.347  0.00  0.00    +0.049 C 
ATOM      7  C   UNL     1       1.371   5.917  -1.700  0.00  0.00    -0.019 A 
ATOM      8  C   UNL     1       0.648   6.794  -2.488  0.00  0.00    +0.021 A 
ATOM      9  C   UNL     1       0.052   7.922  -1.921  0.00  0.00    +0.064 A 
ATOM     10  C   UNL     1       0.184   8.167  -0.551  0.00  0.00    +0.017 A 
ATOM     11  C   UNL     1       0.896   7.300   0.226  0.00  0.00    +0.024 A 
ATOM     12  C   UNL     1       1.491   6.174  -0.339  0.00  0.00    +0.031 A 
ATOM     13  N   UNL     1       2.211   5.304   0.476  0.00  0.00    -0.336 N 
ATOM     14  H   UNL     1       2.546   5.595   1.339  0.00  0.00    +0.147 HD
ENDROOT
BRANCH   1  19
ATOM     15  C   UNL     1      -1.218   3.097  -0.292  0.00  0.00    +0.000 A 
ATOM     16  C   UNL     1      -1.218   1.750   0.017  0.00  0.00    +0.001 A 
ATOM     17  C   UNL     1      -0.032   1.112   0.329  0.00  0.00    +0.015 A 
ATOM     18  C   UNL     1       1.156   1.820   0.322  0.00  0.00    +0.023 A 
ATOM     19  C   UNL     1       1.157   3.167   0.007  0.00  0.00    -0.013 A 
ATOM     20  C   UNL     1      -0.031   3.805  -0.299  0.00  0.00    +0.006 A 
ATOM     21 BR   UNL     1       2.780   0.946   0.741  0.00  0.00    -0.050 Br
ENDBRANCH   1  19
BRANCH   9  22
ATOM     22  C   UNL     1      -0.717   8.852  -2.767  0.00  0.00    +0.387 C 
ATOM     23  O   UNL     1      -0.832   8.638  -3.957  0.00  0.00    -0.241 OA
ATOM     24  O   UNL     1      -1.293   9.941  -2.219  0.00  0.00    -0.241 OA
ENDBRANCH   9  22
TORSDOF 2
