REMARK  Name = ZINC09173578
REMARK  6 active torsions:
REMARK  status: ('A' for Active; 'I' for Inactive)
REMARK    1  A    between atoms: C_1  and  C_2
REMARK    2  A    between atoms: C_7  and  S_8
REMARK    3  A    between atoms: S_8  and  N_11
REMARK    4  A    between atoms: N_11  and  C_12
REMARK    5  A    between atoms: C_21  and  C_24
REMARK    6  A    between atoms: C_21  and  C_25
REMARK                            x       y       z     vdW  Elec       q    Type
REMARK                         _______ _______ _______ _____ _____    ______ ____
ROOT
ATOM      1  C   UNL     1      -3.488   2.316   1.657  0.00  0.00    +0.050 A 
ATOM      2  C   UNL     1      -2.854   3.536   1.462  0.00  0.00    +0.028 A 
ATOM      3  C   UNL     1      -3.496   4.714   1.795  0.00  0.00    +0.049 A 
ATOM      4  C   UNL     1      -4.771   4.680   2.334  0.00  0.00    +0.142 A 
ATOM      5  C   UNL     1      -5.406   3.457   2.539  0.00  0.00    +0.077 A 
ATOM      6  C   UNL     1      -4.766   2.276   2.199  0.00  0.00    +0.051 A 
ATOM      7  N   UNL     1      -6.692   3.435   3.096  0.00  0.00    -0.282 N 
ATOM      8  C   UNL     1      -7.647   4.247   2.590  0.00  0.00    +0.226 C 
ATOM      9  O   UNL     1      -8.746   4.288   3.101  0.00  0.00    -0.275 OA
ATOM     10  C   UNL     1      -7.339   5.102   1.388  0.00  0.00    +0.076 C 
ATOM     11  C   UNL     1      -6.449   6.275   1.793  0.00  0.00    +0.244 C 
ATOM     12  O   UNL     1      -5.410   5.835   2.664  0.00  0.00    -0.489 OA
ATOM     13  C   UNL     1      -8.645   5.636   0.797  0.00  0.00    +0.024 C 
ATOM     14  C   UNL     1      -6.616   4.256   0.338  0.00  0.00    +0.024 C 
ATOM     15  H   UNL     1      -6.895   2.843   3.837  0.00  0.00    +0.155 HD
ENDROOT
BRANCH   1  16
ATOM     16  N   UNL     1      -2.837   1.126   1.312  0.00  0.00    -0.216 N 
ATOM     17  H   UNL     1      -2.837   0.378   1.928  0.00  0.00    +0.174 HD
BRANCH  16  18
ATOM     18  S   UNL     1      -2.068   0.997  -0.149  0.00  0.00    +0.073 S 
ATOM     19  O   UNL     1      -1.615  -0.346  -0.251  0.00  0.00    -0.150 OA
ATOM     20  O   UNL     1      -1.187   2.108  -0.243  0.00  0.00    -0.150 OA
BRANCH  18  27
ATOM     21  C   UNL     1      -4.394  -0.882  -0.597  0.00  0.00    +0.046 C 
ATOM     22  C   UNL     1      -4.317   0.299  -1.529  0.00  0.00    -0.021 A 
ATOM     23  C   UNL     1      -5.271   0.465  -2.515  0.00  0.00    +0.043 A 
ATOM     24  C   UNL     1      -5.199   1.550  -3.371  0.00  0.00    +0.124 A 
ATOM     25  C   UNL     1      -4.172   2.469  -3.239  0.00  0.00    +0.040 A 
ATOM     26  C   UNL     1      -3.219   2.301  -2.252  0.00  0.00    +0.032 A 
ATOM     27  C   UNL     1      -3.288   1.214  -1.401  0.00  0.00    +0.112 A 
ATOM     28  F   UNL     1      -6.132   1.713  -4.335  0.00  0.00    -0.205 F 
ENDBRANCH  18  27
ENDBRANCH  16  18
ENDBRANCH   1  16
TORSDOF 3
