REMARK  Name = ZINC18323581
REMARK  7 active torsions:
REMARK  status: ('A' for Active; 'I' for Inactive)
REMARK    1  A    between atoms: C_1  and  C_2
REMARK    2  A    between atoms: C_2  and  O_3
REMARK    3  A    between atoms: O_3  and  C_4
REMARK    4  A    between atoms: C_4  and  C_6
REMARK    5  A    between atoms: C_7  and  N_17
REMARK    6  A    between atoms: C_10  and  C_16
REMARK    7  A    between atoms: C_18  and  C_20
REMARK                            x       y       z     vdW  Elec       q    Type
REMARK                         _______ _______ _______ _____ _____    ______ ____
ROOT
ATOM      1  C   UNL     1      -0.260   1.155  -6.136  0.00  0.00    +0.147 A 
ATOM      2  C   UNL     1       0.284   1.305  -4.877  0.00  0.00    +0.073 A 
ATOM      3  C   UNL     1       1.599   0.662  -4.910  0.00  0.00    +0.022 A 
ATOM      4  C   UNL     1       2.607   0.483  -3.957  0.00  0.00    +0.015 A 
ATOM      5  C   UNL     1       3.753  -0.178  -4.297  0.00  0.00    -0.050 A 
ATOM      6  C   UNL     1       3.926  -0.674  -5.583  0.00  0.00    +0.005 A 
ATOM      7  C   UNL     1       2.947  -0.509  -6.537  0.00  0.00    +0.026 A 
ATOM      8  C   UNL     1       1.769   0.161  -6.214  0.00  0.00    +0.049 A 
ATOM      9  N   UNL     1       0.642   0.470  -6.937  0.00  0.00    -0.348 N 
ATOM     10  H   UNL     1       0.393   0.257  -7.987  0.00  0.00    +0.166 HD
ATOM     11  C   UNL     1       4.838  -0.369  -3.269  0.00  0.00    +0.044 C 
ENDROOT
BRANCH   2  12
ATOM     12  N   UNL     1      -0.305   1.938  -3.787  0.00  0.00    -0.283 N 
ATOM     13  C   UNL     1      -0.584   1.237  -2.670  0.00  0.00    +0.224 C 
ATOM     14  O   UNL     1      -0.433   0.034  -2.656  0.00  0.00    -0.275 OA
ATOM     15  H   UNL     1      -0.543   3.010  -3.837  0.00  0.00    +0.155 HD
BRANCH  13  16
ATOM     16  C   UNL     1      -1.083   1.948  -1.439  0.00  0.00    +0.049 C 
ATOM     17  C   UNL     1      -2.394   2.667  -1.761  0.00  0.00    +0.019 C 
ATOM     18  C   UNL     1      -2.901   3.389  -0.511  0.00  0.00    -0.008 C 
ATOM     19  C   UNL     1      -3.138   2.370   0.606  0.00  0.00    +0.007 C 
ATOM     20  C   UNL     1      -1.826   1.652   0.928  0.00  0.00    -0.008 C 
ATOM     21  C   UNL     1      -1.320   0.930  -0.322  0.00  0.00    +0.019 C 
ATOM     22  C   UNL     1      -0.784   2.675   1.384  0.00  0.00    +0.026 C 
ATOM     23  C   UNL     1      -0.546   3.693   0.267  0.00  0.00    +0.047 C 
ATOM     24  C   UNL     1      -1.858   4.412  -0.055  0.00  0.00    +0.026 C 
ATOM     25  C   UNL     1      -0.040   2.971  -0.983  0.00  0.00    +0.039 C 
ATOM     26 CL   UNL     1       0.682   4.899   0.804  0.00  0.00    -0.118 Cl
ENDBRANCH  13  16
ENDBRANCH   2  12
BRANCH   1  27
ATOM     27  C   UNL     1      -1.534   1.627  -6.545  0.00  0.00    +0.358 C 
ATOM     28  O   UNL     1      -2.304   2.087  -5.724  0.00  0.00    -0.243 OA
BRANCH  27  29
ATOM     29  O   UNL     1      -1.890   1.565  -7.845  0.00  0.00    -0.460 OA
BRANCH  29  31
ATOM     30  C   UNL     1      -3.411   1.906  -9.692  0.00  0.00    +0.048 C 
ATOM     31  C   UNL     1      -3.187   2.058  -8.186  0.00  0.00    +0.229 C 
ENDBRANCH  29  31
ENDBRANCH  27  29
ENDBRANCH   1  27
TORSDOF 5
