REMARK  Name = ZINC14276425
REMARK  9 active torsions:
REMARK  status: ('A' for Active; 'I' for Inactive)
REMARK    1  A    between atoms: C_1  and  C_2
REMARK    2  A    between atoms: C_3  and  C_30
REMARK    3  A    between atoms: C_5  and  N_9
REMARK    4  A    between atoms: C_6  and  C_7
REMARK    5  A    between atoms: N_9  and  C_10
REMARK    6  A    between atoms: C_10  and  N_12
REMARK    7  A    between atoms: C_13  and  C_15
REMARK    8  A    between atoms: C_16  and  C_17
REMARK    9  A    between atoms: C_20  and  C_22
REMARK                            x       y       z     vdW  Elec       q    Type
REMARK                         _______ _______ _______ _____ _____    ______ ____
ROOT
ATOM      1  N   UNL     1       3.004   5.209   0.001  0.00  0.00    -0.264 N 
ATOM      2  C   UNL     1       4.277   5.650  -0.008  0.00  0.00    +0.242 C 
ATOM      3  O   UNL     1       5.198   4.853  -0.021  0.00  0.00    -0.270 OA
ATOM      4  H   UNL     1       2.270   5.843   0.012  0.00  0.00    +0.157 HD
ENDROOT
BRANCH   1   5
ATOM      5  C   UNL     1       2.749   3.885  -0.003  0.00  0.00    +0.141 C 
ATOM      6  S   UNL     1       4.044   2.765  -0.022  0.00  0.00    -0.018 S 
BRANCH   5   7
ATOM      7  N   UNL     1       1.476   3.443   0.006  0.00  0.00    -0.290 N 
ATOM      8  H   UNL     1       0.743   4.078   0.017  0.00  0.00    +0.154 HD
BRANCH   7  13
ATOM      9  C   UNL     1      -1.273  -0.807   0.010  0.00  0.00    +0.046 C 
ATOM     10  C   UNL     1       0.002  -0.004   0.002  0.00  0.00    -0.021 A 
ATOM     11  C   UNL     1       1.208  -0.602  -0.013  0.00  0.00    -0.007 A 
ATOM     12  S   UNL     1       2.344   0.769  -0.016  0.00  0.00    -0.077 S 
ATOM     13  C   UNL     1       1.214   2.081   0.002  0.00  0.00    +0.089 A 
ATOM     14  C   UNL     1      -0.018   1.439   0.010  0.00  0.00    +0.083 A 
ATOM     15  C   UNL     1       1.520  -2.076  -0.024  0.00  0.00    +0.052 C 
BRANCH  14  16
ATOM     16  C   UNL     1      -1.247   2.173   0.020  0.00  0.00    +0.102 C 
ATOM     17  N   UNL     1      -2.222   2.756   0.028  0.00  0.00    -0.191 NA
ENDBRANCH  14  16
ENDBRANCH   7  13
ENDBRANCH   5   7
ENDBRANCH   1   5
BRANCH   2  18
ATOM     18  C   UNL     1       4.543   7.038  -0.004  0.00  0.00    +0.071 C 
ATOM     19  C   UNL     1       5.827   7.483  -0.013  0.00  0.00    +0.051 C 
BRANCH  19  20
ATOM     20  C   UNL     1       6.094   8.871  -0.009  0.00  0.00    +0.129 A 
ATOM     21  C   UNL     1       7.347   9.456  -0.012  0.00  0.00    +0.050 A 
ATOM     22  C   UNL     1       7.147  10.838  -0.007  0.00  0.00    +0.050 A 
ATOM     23  C   UNL     1       5.787  11.049   0.007  0.00  0.00    +0.136 A 
ATOM     24  O   UNL     1       5.169   9.854   0.006  0.00  0.00    -0.455 OA
BRANCH  23  25
ATOM     25  C   UNL     1       5.118  12.364   0.021  0.00  0.00    +0.020 A 
ATOM     26  C   UNL     1       5.877  13.537   0.025  0.00  0.00    +0.031 A 
ATOM     27  C   UNL     1       5.246  14.764   0.033  0.00  0.00    +0.043 A 
ATOM     28  C   UNL     1       3.863  14.835   0.046  0.00  0.00    +0.040 A 
ATOM     29  C   UNL     1       3.104  13.676   0.047  0.00  0.00    +0.043 A 
ATOM     30  C   UNL     1       3.724  12.442   0.035  0.00  0.00    +0.031 A 
ATOM     31 CL   UNL     1       1.371  13.775   0.065  0.00  0.00    -0.083 Cl
ATOM     32 CL   UNL     1       6.187  16.223   0.032  0.00  0.00    -0.083 Cl
ENDBRANCH  23  25
ENDBRANCH  19  20
ENDBRANCH   2  18
TORSDOF 7
