REMARK  Name = ZINC41637771
REMARK  4 active torsions:
REMARK  status: ('A' for Active; 'I' for Inactive)
REMARK    1  A    between atoms: C_1  and  C_2
REMARK    2  A    between atoms: N_8  and  C_9
REMARK    3  A    between atoms: C_9  and  C_11
REMARK    4  A    between atoms: C_9  and  C_17
REMARK                            x       y       z     vdW  Elec       q    Type
REMARK                         _______ _______ _______ _____ _____    ______ ____
ROOT
ATOM      1  C   UNL     1       0.276   0.053   2.383  0.00  0.00    +0.006 C 
ENDROOT
BRANCH   1   2
ATOM      2  C   UNL     1       0.207   1.555   2.294  0.00  0.00    +0.050 A 
ATOM      3  C   UNL     1      -0.815   2.372   2.575  0.00  0.00    +0.282 A 
ATOM      4  N   UNL     1      -0.685   3.732   2.430  0.00  0.00    -0.170 N 
ATOM      5  C   UNL     1       0.516   4.201   1.993  0.00  0.00    +0.199 A 
ATOM      6  S   UNL     1       1.470   2.715   1.792  0.00  0.00    -0.050 S 
ATOM      7  N   UNL     1       0.475   5.502   1.909  0.00  0.00    -0.208 NA
ATOM      8  C   UNL     1      -0.730   5.929   2.281  0.00  0.00    +0.246 A 
ATOM      9  N   UNL     1      -1.469   4.902   2.605  0.00  0.00    -0.150 NA
ATOM     10  O   UNL     1      -1.994   1.851   3.009  0.00  0.00    -0.265 OA
ENDBRANCH   1   2
BRANCH   1  17
ATOM     11  C   UNL     1      -0.430   1.201  -0.081  0.00  0.00    -0.013 C 
ATOM     12  C   UNL     1      -0.090  -0.286   0.038  0.00  0.00    -0.070 C 
ATOM     13  C   UNL     1       0.541  -0.771  -1.269  0.00  0.00    -0.016 C 
ATOM     14  C   UNL     1       0.878  -2.259  -1.145  0.00  0.00    -0.003 C 
ATOM     15  C   UNL     1       1.804  -2.465   0.057  0.00  0.00    -0.019 C 
ATOM     16  C   UNL     1       1.127  -1.917   1.315  0.00  0.00    -0.077 C 
ATOM     17  N   UNL     1       0.854  -0.485   1.144  0.00  0.00    +0.389 N 
ATOM     18  H   UNL     1       1.716  -0.001   0.940  0.00  0.00    -0.080 HD
ENDBRANCH   1  17
BRANCH   1  19
ATOM     19  C   UNL     1       1.139  -0.342   3.553  0.00  0.00    -0.056 A 
ATOM     20  C   UNL     1       2.517  -0.315   3.436  0.00  0.00    +0.002 A 
ATOM     21  C   UNL     1       3.309  -0.677   4.510  0.00  0.00    +0.000 A 
ATOM     22  C   UNL     1       2.724  -1.066   5.700  0.00  0.00    +0.000 A 
ATOM     23  C   UNL     1       1.346  -1.093   5.817  0.00  0.00    +0.000 A 
ATOM     24  C   UNL     1       0.554  -0.726   4.745  0.00  0.00    +0.002 A 
ENDBRANCH   1  19
TORSDOF 3
