REMARK  Name = ZINC38100179
REMARK  3 active torsions:
REMARK  status: ('A' for Active; 'I' for Inactive)
REMARK    1  A    between atoms: C_1  and  C_2
REMARK    2  A    between atoms: C_12  and  C_14
REMARK    3  A    between atoms: C_20  and  C_22
REMARK                            x       y       z     vdW  Elec       q    Type
REMARK                         _______ _______ _______ _____ _____    ______ ____
ROOT
ATOM      1  C   UNL     1      -0.076   1.493   0.041  0.00  0.00    +0.033 C 
ATOM      2  C   UNL     1       0.274   0.024  -0.208  0.00  0.00    +0.104 C 
ATOM      3  C   UNL     1      -1.007  -0.802  -0.311  0.00  0.00    -0.017 A 
ATOM      4  C   UNL     1      -2.097  -0.426  -1.095  0.00  0.00    +0.013 A 
ATOM      5  C   UNL     1      -3.198  -1.210  -1.142  0.00  0.00    +0.046 A 
ATOM      6  S   UNL     1      -2.741  -2.553  -0.056  0.00  0.00    -0.101 S 
ATOM      7  C   UNL     1      -1.124  -1.968   0.380  0.00  0.00    -0.004 A 
ATOM      8  C   UNL     1      -0.124  -2.599   1.293  0.00  0.00    +0.061 C 
ATOM      9  C   UNL     1       1.247  -1.952   1.045  0.00  0.00    +0.113 C 
ATOM     10  N   UNL     1       1.057  -0.499   0.920  0.00  0.00    -0.294 N 
ATOM     11  C   UNL     1       1.593   0.341   1.828  0.00  0.00    +0.220 C 
ATOM     12  O   UNL     1       1.355   1.529   1.770  0.00  0.00    -0.275 OA
ENDROOT
BRANCH  11  13
ATOM     13  C   UNL     1       2.488  -0.196   2.915  0.00  0.00    +0.089 C 
ATOM     14  C   UNL     1       1.648  -0.977   3.928  0.00  0.00    +0.013 C 
ATOM     15  C   UNL     1       0.599  -0.049   4.543  0.00  0.00    +0.001 C 
ATOM     16  C   UNL     1       1.298   1.114   5.249  0.00  0.00    +0.001 C 
ATOM     17  C   UNL     1       2.137   1.895   4.236  0.00  0.00    +0.015 C 
ATOM     18  C   UNL     1       3.187   0.968   3.621  0.00  0.00    +0.114 C 
BRANCH  18  19
ATOM     19  C   UNL     1       4.014   1.737   2.623  0.00  0.00    +0.360 C 
ATOM     20  O   UNL     1       4.200   2.932   2.778  0.00  0.00    -0.246 OA
ATOM     21  O   UNL     1       4.497   1.165   1.661  0.00  0.00    -0.246 OA
ENDBRANCH  18  19
ENDBRANCH  11  13
TORSDOF 2
