REMARK  Name = ZINC12794649
REMARK  7 active torsions:
REMARK  status: ('A' for Active; 'I' for Inactive)
REMARK    1  A    between atoms: C_1  and  C_2
REMARK    2  A    between atoms: C_5  and  C_7
REMARK    3  A    between atoms: N_8  and  N_9
REMARK    4  A    between atoms: C_10  and  C_16
REMARK    5  A    between atoms: N_14  and  C_15
REMARK    6  A    between atoms: C_19  and  O_23
REMARK    7  A    between atoms: C_21  and  O_22
REMARK                            x       y       z     vdW  Elec       q    Type
REMARK                         _______ _______ _______ _____ _____    ______ ____
ROOT
ATOM      1  N   UNL     1      -4.793   1.804  -0.063  0.00  0.00    -0.208 N 
ATOM      2  C   UNL     1      -5.852   2.667  -0.151  0.00  0.00    +0.085 A 
ATOM      3  C   UNL     1      -7.106   2.178  -0.235  0.00  0.00    +0.077 A 
ATOM      4  S   UNL     1      -6.828   0.415  -0.192  0.00  0.00    -0.056 S 
ATOM      5  C   UNL     1      -5.047   0.447  -0.069  0.00  0.00    +0.189 A 
ATOM      6  N   UNL     1      -4.204  -0.553  -0.001  0.00  0.00    -0.263 NA
ATOM      7  C   UNL     1      -4.699  -1.931  -0.023  0.00  0.00    +0.173 C 
ENDROOT
BRANCH   2   8
ATOM      8  C   UNL     1      -5.622   4.128  -0.154  0.00  0.00    +0.043 A 
ATOM      9  C   UNL     1      -4.489   4.657  -0.772  0.00  0.00    +0.017 A 
ATOM     10  C   UNL     1      -4.277   6.020  -0.773  0.00  0.00    +0.046 A 
ATOM     11  C   UNL     1      -5.190   6.868  -0.161  0.00  0.00    +0.120 A 
ATOM     12  C   UNL     1      -6.320   6.351   0.456  0.00  0.00    +0.091 A 
ATOM     13  C   UNL     1      -6.544   4.985   0.458  0.00  0.00    +0.129 A 
BRANCH  13  14
ATOM     14  O   UNL     1      -7.653   4.478   1.056  0.00  0.00    -0.506 OA
ATOM     15  H   UNL     1      -7.532   4.263   1.991  0.00  0.00    +0.292 HD
ENDBRANCH  13  14
BRANCH  11  16
ATOM     16  O   UNL     1      -4.976   8.210  -0.166  0.00  0.00    -0.507 OA
ATOM     17  H   UNL     1      -5.359   8.667  -0.927  0.00  0.00    +0.292 HD
ENDBRANCH  11  16
ENDBRANCH   2   8
BRANCH   1  19
ATOM     18  C   UNL     1      -2.553   1.556   0.572  0.00  0.00    +0.179 C 
ATOM     19  N   UNL     1      -3.481   2.287   0.025  0.00  0.00    -0.169 NA
BRANCH  18  24
ATOM     20  C   UNL     1       1.511   4.345  -0.317  0.00  0.00    +0.086 C 
ATOM     21  C   UNL     1       0.629   3.221   0.163  0.00  0.00    +0.103 A 
ATOM     22  C   UNL     1       1.046   2.124   0.827  0.00  0.00    +0.045 A 
ATOM     23  C   UNL     1      -0.093   1.338   1.083  0.00  0.00    +0.051 A 
ATOM     24  C   UNL     1      -1.158   2.004   0.549  0.00  0.00    +0.148 A 
ATOM     25  O   UNL     1      -0.702   3.148   0.000  0.00  0.00    -0.459 OA
ENDBRANCH  18  24
ENDBRANCH   1  19
TORSDOF 5
