REMARK  Name = ZINC04725162
REMARK  4 active torsions:
REMARK  status: ('A' for Active; 'I' for Inactive)
REMARK    1  A    between atoms: C_3  and  N_24
REMARK    2  A    between atoms: C_6  and  C_7
REMARK    3  A    between atoms: C_10  and  C_19
REMARK    4  A    between atoms: C_10  and  O_23
REMARK                            x       y       z     vdW  Elec       q    Type
REMARK                         _______ _______ _______ _____ _____    ______ ____
ROOT
ATOM      1  C   UNL     1      -0.046   1.667   0.230  0.00  0.00    +0.269 C 
ATOM      2  O   UNL     1       0.256   0.490   0.248  0.00  0.00    -0.268 OA
ATOM      3  N   UNL     1      -1.342   2.029   0.141  0.00  0.00    -0.148 N 
ATOM      4  C   UNL     1      -2.495   1.110   0.159  0.00  0.00    +0.259 C 
ATOM      5  C   UNL     1      -3.684   2.037  -0.117  0.00  0.00    +0.096 C 
ATOM      6  C   UNL     1      -4.726   1.988   1.002  0.00  0.00    +0.014 C 
ATOM      7  C   UNL     1      -5.708   3.147   0.801  0.00  0.00    +0.001 C 
ATOM      8  C   UNL     1      -5.010   4.496   0.961  0.00  0.00    +0.006 C 
ATOM      9  C   UNL     1      -3.935   4.671  -0.125  0.00  0.00    +0.053 C 
ATOM     10  C   UNL     1      -3.069   3.430  -0.078  0.00  0.00    +0.045 C 
ATOM     11  N   UNL     1      -1.815   3.336   0.012  0.00  0.00    -0.183 NA
ENDROOT
BRANCH   1  17
ATOM     12  C   UNL     1       0.677   4.049   0.143  0.00  0.00    +0.015 A 
ATOM     13  C   UNL     1       1.665   5.010   0.213  0.00  0.00    +0.033 A 
ATOM     14  C   UNL     1       2.981   4.640   0.427  0.00  0.00    +0.126 A 
ATOM     15  C   UNL     1       3.315   3.306   0.577  0.00  0.00    +0.033 A 
ATOM     16  C   UNL     1       2.336   2.335   0.514  0.00  0.00    +0.015 A 
ATOM     17  C   UNL     1       1.007   2.702   0.299  0.00  0.00    +0.039 A 
BRANCH  14  18
ATOM     18  N   UNL     1       4.036   5.676   0.494  0.00  0.00    +0.056 N 
ATOM     19  O   UNL     1       5.195   5.353   0.682  0.00  0.00    -0.126 OA
ATOM     20  O   UNL     1       3.745   6.851   0.362  0.00  0.00    -0.126 OA
ENDBRANCH  14  18
ENDBRANCH   1  17
BRANCH   4  21
ATOM     21  C   UNL     1      -2.637   0.447   1.530  0.00  0.00    +0.438 C 
ATOM     22  F   UNL     1      -2.675   1.432   2.523  0.00  0.00    -0.166 F 
ATOM     23  F   UNL     1      -3.821  -0.298   1.567  0.00  0.00    -0.166 F 
ATOM     24  F   UNL     1      -1.546  -0.400   1.754  0.00  0.00    -0.166 F 
ENDBRANCH   4  21
BRANCH   4  25
ATOM     25  O   UNL     1      -2.371   0.125  -0.870  0.00  0.00    -0.363 OA
ATOM     26  H   UNL     1      -1.592  -0.440  -0.781  0.00  0.00    +0.212 HD
ENDBRANCH   4  25
TORSDOF 4
