REMARK  Name = ZINC12832842
REMARK  14 active torsions:
REMARK  status: ('A' for Active; 'I' for Inactive)
REMARK    1  A    between atoms: C_1  and  C_2
REMARK    2  A    between atoms: C_7  and  C_14
REMARK    3  A    between atoms: C_14  and  N_71
REMARK    4  A    between atoms: C_15  and  C_16
REMARK    5  A    between atoms: C_15  and  N_71
REMARK    6  A    between atoms: C_16  and  C_17
REMARK    7  A    between atoms: C_20  and  O_25
REMARK    8  A    between atoms: C_21  and  O_23
REMARK    9  A    between atoms: O_23  and  C_24
REMARK   10  A    between atoms: O_25  and  C_26
REMARK   11  A    between atoms: C_27  and  C_28
REMARK   12  A    between atoms: C_27  and  N_71
REMARK   13  A    between atoms: N_32  and  C_33
REMARK   14  A    between atoms: C_33  and  C_34
REMARK                            x       y       z     vdW  Elec       q    Type
REMARK                         _______ _______ _______ _____ _____    ______ ____
ROOT
ATOM      1  N   UNL     1      -0.038   1.155  -2.326  0.00  0.00    +0.387 N 
ATOM      2  H   UNL     1       0.964   1.380  -2.332  0.00  0.00    -0.081 HD
ENDROOT
BRANCH   1   3
ATOM      3  C   UNL     1      -0.709   1.921  -3.398  0.00  0.00    -0.037 C 
BRANCH   3  10
ATOM      4  C   UNL     1       2.848   9.025  -4.108  0.00  0.00    +0.044 C 
ATOM      5  C   UNL     1       2.331   7.610  -4.133  0.00  0.00    -0.048 A 
ATOM      6  C   UNL     1       2.926   6.676  -4.970  0.00  0.00    +0.004 A 
ATOM      7  C   UNL     1       2.472   5.388  -5.008  0.00  0.00    +0.010 A 
ATOM      8  C   UNL     1       1.398   5.007  -4.197  0.00  0.00    -0.001 A 
ATOM      9  C   UNL     1       0.886   3.635  -4.213  0.00  0.00    +0.017 A 
ATOM     10  C   UNL     1      -0.158   3.324  -3.406  0.00  0.00    +0.001 A 
ATOM     11  C   UNL     1      -0.734   4.310  -2.576  0.00  0.00    +0.251 A 
ATOM     12  O   UNL     1      -1.675   4.010  -1.862  0.00  0.00    -0.268 OA
ATOM     13  N   UNL     1      -0.267   5.571  -2.551  0.00  0.00    -0.322 N 
ATOM     14  H   UNL     1      -0.684   6.223  -1.966  0.00  0.00    +0.169 HD
ATOM     15  C   UNL     1       0.792   5.951  -3.348  0.00  0.00    +0.049 A 
ATOM     16  C   UNL     1       1.271   7.257  -3.326  0.00  0.00    +0.029 A 
ENDBRANCH   3  10
ENDBRANCH   1   3
BRANCH   1  17
ATOM     17  C   UNL     1      -0.606   1.521  -1.012  0.00  0.00    -0.073 C 
BRANCH  17  18
ATOM     18  C   UNL     1       0.248   0.889   0.088  0.00  0.00    +0.017 C 
BRANCH  18  19
ATOM     19  C   UNL     1      -0.306   1.272   1.437  0.00  0.00    -0.045 A 
ATOM     20  C   UNL     1       0.147   2.415   2.069  0.00  0.00    +0.007 A 
ATOM     21  C   UNL     1      -0.362   2.773   3.304  0.00  0.00    +0.049 A 
ATOM     22  C   UNL     1      -1.320   1.980   3.915  0.00  0.00    +0.161 A 
ATOM     23  C   UNL     1      -1.772   0.827   3.280  0.00  0.00    +0.162 A 
ATOM     24  C   UNL     1      -1.261   0.476   2.041  0.00  0.00    +0.053 A 
BRANCH  23  25
ATOM     25  O   UNL     1      -2.712   0.045   3.876  0.00  0.00    -0.491 OA
ATOM     26  C   UNL     1      -3.128  -1.123   3.167  0.00  0.00    +0.277 C 
ENDBRANCH  23  25
BRANCH  22  27
ATOM     27  O   UNL     1      -1.818   2.328   5.131  0.00  0.00    -0.491 OA
ATOM     28  C   UNL     1      -1.309   3.525   5.722  0.00  0.00    +0.277 C 
ENDBRANCH  22  27
ENDBRANCH  18  19
ENDBRANCH  17  18
ENDBRANCH   1  17
BRANCH   1  29
ATOM     29  C   UNL     1      -0.205  -0.295  -2.562  0.00  0.00    +0.001 C 
BRANCH  29  30
ATOM     30  C   UNL     1       0.680  -0.704  -3.711  0.00  0.00    +0.135 A 
ATOM     31  N   UNL     1       0.359  -0.711  -4.982  0.00  0.00    -0.115 NA
ATOM     32  N   UNL     1       1.383  -1.120  -5.649  0.00  0.00    -0.023 NA
ATOM     33  N   UNL     1       2.346  -1.381  -4.836  0.00  0.00    -0.044 NA
ATOM     34  N   UNL     1       1.952  -1.137  -3.632  0.00  0.00    -0.227 N 
BRANCH  34  35
ATOM     35  C   UNL     1       2.740  -1.300  -2.408  0.00  0.00    +0.182 C 
BRANCH  35  36
ATOM     36  C   UNL     1       2.547  -2.694  -1.868  0.00  0.00    -0.026 A 
ATOM     37  C   UNL     1       1.532  -2.951  -0.966  0.00  0.00    +0.005 A 
ATOM     38  C   UNL     1       1.352  -4.231  -0.475  0.00  0.00    +0.000 A 
ATOM     39  C   UNL     1       2.194  -5.251  -0.877  0.00  0.00    +0.000 A 
ATOM     40  C   UNL     1       3.212  -4.992  -1.776  0.00  0.00    +0.000 A 
ATOM     41  C   UNL     1       3.389  -3.714  -2.271  0.00  0.00    +0.005 A 
ENDBRANCH  35  36
ENDBRANCH  34  35
ENDBRANCH  29  30
ENDBRANCH   1  29
TORSDOF 11
