REMARK  Name = ZINC03290704
REMARK  4 active torsions:
REMARK  status: ('A' for Active; 'I' for Inactive)
REMARK    1  A    between atoms: C_1  and  C_2
REMARK    2  A    between atoms: C_6  and  N_8
REMARK    3  A    between atoms: C_16  and  C_18
REMARK    4  A    between atoms: C_20  and  C_24
REMARK                            x       y       z     vdW  Elec       q    Type
REMARK                         _______ _______ _______ _____ _____    ______ ____
ROOT
ATOM      1  N   UNL     1       2.354   3.888   0.001  0.00  0.00    -0.299 N 
ATOM      2  C   UNL     1       3.562   3.218   0.091  0.00  0.00    +0.135 A 
ATOM      3  C   UNL     1       4.783   3.942   0.191  0.00  0.00    +0.051 A 
ATOM      4  C   UNL     1       4.989   5.391   0.216  0.00  0.00    -0.025 A 
ATOM      5  C   UNL     1       6.261   5.827   0.319  0.00  0.00    -0.004 A 
ATOM      6  S   UNL     1       7.249   4.356   0.388  0.00  0.00    -0.073 S 
ATOM      7  C   UNL     1       5.948   3.155   0.278  0.00  0.00    +0.114 A 
ATOM      8  N   UNL     1       5.893   1.837   0.264  0.00  0.00    -0.225 NA
ATOM      9  C   UNL     1       4.730   1.221   0.169  0.00  0.00    +0.129 A 
ATOM     10  N   UNL     1       3.597   1.895   0.090  0.00  0.00    -0.217 NA
ATOM     11  C   UNL     1       4.694  -0.285   0.155  0.00  0.00    +0.088 C 
ATOM     12  C   UNL     1       6.733   7.248   0.366  0.00  0.00    +0.046 C 
ATOM     13  C   UNL     1       5.525   8.151   0.650  0.00  0.00    -0.009 C 
ATOM     14  C   UNL     1       4.379   7.748  -0.283  0.00  0.00    +0.008 C 
ATOM     15  C   UNL     1       3.831   6.382   0.129  0.00  0.00    +0.037 C 
ATOM     16  C   UNL     1       5.904   9.611   0.396  0.00  0.00    +0.008 C 
ATOM     17  H   UNL     1       2.326   4.853   0.097  0.00  0.00    +0.154 HD
ENDROOT
BRANCH   1  23
ATOM     18  C   UNL     1      -2.457   3.293   0.815  0.00  0.00    +0.044 C 
ATOM     19  C   UNL     1      -1.172   2.863   0.154  0.00  0.00    -0.049 A 
ATOM     20  C   UNL     1      -1.162   1.764  -0.686  0.00  0.00    +0.003 A 
ATOM     21  C   UNL     1       0.015   1.364  -1.291  0.00  0.00    +0.002 A 
ATOM     22  C   UNL     1       1.183   2.067  -1.067  0.00  0.00    +0.023 A 
ATOM     23  C   UNL     1       1.175   3.175  -0.228  0.00  0.00    +0.033 A 
ATOM     24  C   UNL     1      -0.009   3.571   0.382  0.00  0.00    +0.026 A 
ENDBRANCH   1  23
TORSDOF 1
