REMARK  Name = ZINC40399583
REMARK  4 active torsions:
REMARK  status: ('A' for Active; 'I' for Inactive)
REMARK    1  A    between atoms: C_1  and  C_2
REMARK    2  A    between atoms: C_5  and  N_9
REMARK    3  A    between atoms: C_10  and  C_12
REMARK    4  A    between atoms: N_26  and  C_27
REMARK                            x       y       z     vdW  Elec       q    Type
REMARK                         _______ _______ _______ _____ _____    ______ ____
ROOT
ATOM      1  C   UNL     1      -0.131  -6.327  -1.200  0.00  0.00    +0.122 C 
ATOM      2  C   UNL     1       1.100  -6.940  -0.530  0.00  0.00    +0.114 C 
ATOM      3  C   UNL     1       2.292  -6.805  -1.441  0.00  0.00    +0.219 C 
ATOM      4  O   UNL     1       3.384  -6.572  -0.970  0.00  0.00    -0.275 OA
ATOM      5  N   UNL     1       2.157  -6.941  -2.772  0.00  0.00    -0.270 N 
ATOM      6  C   UNL     1       0.908  -7.101  -3.347  0.00  0.00    +0.138 A 
ATOM      7  C   UNL     1      -0.234  -6.826  -2.616  0.00  0.00    +0.069 A 
ATOM      8  C   UNL     1      -1.485  -7.016  -3.211  0.00  0.00    +0.258 A 
ATOM      9  O   UNL     1      -2.511  -6.793  -2.589  0.00  0.00    -0.267 OA
ATOM     10  N   UNL     1      -1.534  -7.452  -4.488  0.00  0.00    -0.295 N 
ATOM     11  H   UNL     1      -2.392  -7.605  -4.915  0.00  0.00    +0.172 HD
ATOM     12  C   UNL     1      -0.382  -7.676  -5.177  0.00  0.00    +0.202 A 
ATOM     13  N   UNL     1       0.797  -7.499  -4.619  0.00  0.00    -0.200 NA
ATOM     14  N   UNL     1      -0.450  -8.093  -6.481  0.00  0.00    -0.284 N 
ATOM     15  H   UNL     1       2.945  -6.925  -3.336  0.00  0.00    +0.156 HD
ATOM     16  H   UNL     1      -1.312  -8.176  -6.919  0.00  0.00    +0.155 HD
ENDROOT
BRANCH  14  17
ATOM     17  C   UNL     1       0.723  -8.401  -7.180  0.00  0.00    +0.052 A 
ATOM     18  C   UNL     1       1.885  -7.681  -6.939  0.00  0.00    +0.026 A 
ATOM     19  C   UNL     1       3.041  -7.986  -7.630  0.00  0.00    +0.022 A 
ATOM     20  C   UNL     1       3.043  -9.009  -8.562  0.00  0.00    +0.042 A 
ATOM     21  C   UNL     1       1.886  -9.728  -8.805  0.00  0.00    +0.041 A 
ATOM     22  C   UNL     1       0.727  -9.431  -8.113  0.00  0.00    +0.064 A 
ATOM     23 CL   UNL     1      -0.722 -10.338  -8.413  0.00  0.00    -0.082 Cl
ATOM     24 CL   UNL     1       4.498  -9.390  -9.428  0.00  0.00    -0.083 Cl
ENDBRANCH  14  17
BRANCH   1  26
ATOM     25  N   UNL     1       0.100  -4.155  -0.039  0.00  0.00    -0.283 N 
ATOM     26  C   UNL     1      -0.005  -4.826  -1.204  0.00  0.00    +0.225 C 
ATOM     27  O   UNL     1       0.001  -4.220  -2.255  0.00  0.00    -0.275 OA
ATOM     28  H   UNL     1       0.151  -4.642   0.798  0.00  0.00    +0.155 HD
BRANCH  25  33
ATOM     29  C   UNL     1       0.245   1.519  -0.037  0.00  0.00    +0.044 C 
ATOM     30  C   UNL     1       0.206   0.012  -0.037  0.00  0.00    -0.048 A 
ATOM     31  C   UNL     1       0.786  -0.693  -1.075  0.00  0.00    +0.005 A 
ATOM     32  C   UNL     1       0.752  -2.074  -1.079  0.00  0.00    +0.026 A 
ATOM     33  C   UNL     1       0.136  -2.755  -0.038  0.00  0.00    +0.069 A 
ATOM     34  C   UNL     1      -0.446  -2.044   1.006  0.00  0.00    +0.145 A 
ATOM     35  C   UNL     1      -0.405  -0.662   1.005  0.00  0.00    +0.043 A 
ATOM     36  F   UNL     1      -1.048  -2.703   2.020  0.00  0.00    -0.204 F 
ENDBRANCH  25  33
ENDBRANCH   1  26
TORSDOF 3
