REMARK  Name = ZINC40322239
REMARK  7 active torsions:
REMARK  status: ('A' for Active; 'I' for Inactive)
REMARK    1  A    between atoms: C_3  and  C_6
REMARK    2  A    between atoms: C_6  and  C_8
REMARK    3  A    between atoms: C_6  and  N_27
REMARK    4  A    between atoms: C_8  and  N_9
REMARK    5  A    between atoms: C_10  and  C_12
REMARK    6  A    between atoms: C_15  and  S_17
REMARK    7  A    between atoms: S_17  and  C_20
REMARK                            x       y       z     vdW  Elec       q    Type
REMARK                         _______ _______ _______ _____ _____    ______ ____
ROOT
ATOM      1  N   UNL     1       3.935   0.201   1.787  0.00  0.00    -0.310 N 
ATOM      2  C   UNL     1       4.118  -0.218   3.055  0.00  0.00    +0.279 C 
ATOM      3  O   UNL     1       4.468   0.571   3.912  0.00  0.00    -0.267 OA
ATOM      4  H   UNL     1       3.657  -0.428   1.103  0.00  0.00    +0.149 HD
ENDROOT
BRANCH   2   5
ATOM      5  C   UNL     1       3.897  -1.626   3.401  0.00  0.00    +0.192 A 
ATOM      6  C   UNL     1       4.040  -2.180   4.641  0.00  0.00    +0.056 A 
ATOM      7  C   UNL     1       3.728  -3.542   4.513  0.00  0.00    +0.070 A 
ATOM      8  C   UNL     1       3.412  -3.758   3.217  0.00  0.00    +0.246 A 
ATOM      9  O   UNL     1       3.510  -2.600   2.551  0.00  0.00    -0.433 OA
BRANCH   8  10
ATOM     10  S   UNL     1       2.942  -5.306   2.519  0.00  0.00    +0.058 S 
ATOM     11  O   UNL     1       3.242  -5.234   1.132  0.00  0.00    -0.161 OA
ATOM     12  O   UNL     1       3.483  -6.313   3.363  0.00  0.00    -0.161 OA
BRANCH  10  13
ATOM     13  C   UNL     1       1.190  -5.427   2.650  0.00  0.00    +0.097 A 
ATOM     14  C   UNL     1       0.618  -5.988   3.777  0.00  0.00    +0.029 A 
ATOM     15  C   UNL     1      -0.757  -6.083   3.880  0.00  0.00    +0.022 A 
ATOM     16  C   UNL     1      -1.561  -5.617   2.856  0.00  0.00    +0.041 A 
ATOM     17  C   UNL     1      -0.989  -5.055   1.728  0.00  0.00    +0.022 A 
ATOM     18  C   UNL     1       0.386  -4.956   1.628  0.00  0.00    +0.029 A 
ATOM     19 CL   UNL     1      -3.288  -5.736   2.985  0.00  0.00    -0.084 Cl
ENDBRANCH  10  13
ENDBRANCH   8  10
ENDBRANCH   2   5
BRANCH   1  20
ATOM     20  C   UNL     1       4.157   1.607   1.441  0.00  0.00    +0.094 C 
BRANCH  20  21
ATOM     21  C   UNL     1       4.009   1.790  -0.070  0.00  0.00    -0.013 C 
BRANCH  21  22
ATOM     22  N   UNL     1       4.906   0.859  -0.767  0.00  0.00    +0.386 N 
ATOM     23  C   UNL     1       6.298   1.174  -0.393  0.00  0.00    -0.078 C 
ATOM     24  C   UNL     1       7.132  -0.069  -0.580  0.00  0.00    -0.019 C 
ATOM     25  C   UNL     1       7.837  -0.074  -1.949  0.00  0.00    -0.002 C 
ATOM     26  C   UNL     1       6.915   0.447  -3.070  0.00  0.00    -0.002 C 
ATOM     27  C   UNL     1       5.505  -0.070  -2.940  0.00  0.00    -0.019 C 
ATOM     28  C   UNL     1       4.667   0.949  -2.139  0.00  0.00    -0.078 C 
ATOM     29  H   UNL     1       4.696  -0.080  -0.463  0.00  0.00    -0.081 HD
ENDBRANCH  21  22
BRANCH  21  32
ATOM     30  C   UNL     1       0.340   1.898  -1.088  0.00  0.00    +0.008 A 
ATOM     31  C   UNL     1       1.582   2.387  -0.731  0.00  0.00    +0.009 A 
ATOM     32  C   UNL     1       2.584   1.511  -0.473  0.00  0.00    -0.022 A 
ATOM     33  S   UNL     1       1.776  -0.060  -0.734  0.00  0.00    -0.103 S 
ATOM     34  C   UNL     1       0.159   0.557  -1.170  0.00  0.00    +0.045 A 
ENDBRANCH  21  32
ENDBRANCH  20  21
ENDBRANCH   1  20
TORSDOF 7
