REMARK  Name = ZINC06508287
REMARK  2 active torsions:
REMARK  status: ('A' for Active; 'I' for Inactive)
REMARK    1  A    between atoms: N_12  and  N_13
REMARK    2  A    between atoms: N_13  and  C_14
REMARK                            x       y       z     vdW  Elec       q    Type
REMARK                         _______ _______ _______ _____ _____    ______ ____
ROOT
ATOM      1  C   UNL     1      -0.015   1.383  -0.031  0.00  0.00    +0.021 A 
ATOM      2  C   UNL     1       1.152   2.094  -0.029  0.00  0.00    +0.013 A 
ATOM      3  C   UNL     1       2.373   1.419  -0.034  0.00  0.00    +0.023 A 
ATOM      4  C   UNL     1       3.653   2.146  -0.031  0.00  0.00    +0.064 A 
ATOM      5  C   UNL     1       4.843   1.383  -0.037  0.00  0.00    +0.045 A 
ATOM      6  C   UNL     1       4.782   0.030  -0.045  0.00  0.00    +0.085 A 
ATOM      7  N   UNL     1       3.610  -0.644  -0.048  0.00  0.00    -0.361 N 
ATOM      8  C   UNL     1       2.400   0.010  -0.043  0.00  0.00    +0.050 A 
ATOM      9  C   UNL     1       1.200  -0.694  -0.045  0.00  0.00    +0.046 A 
ATOM     10  C   UNL     1       0.004  -0.007  -0.039  0.00  0.00    +0.043 A 
ATOM     11 CL   UNL     1      -1.492  -0.887  -0.043  0.00  0.00    -0.083 Cl
ATOM     12  N   UNL     1       3.689   3.480  -0.024  0.00  0.00    -0.306 N 
ATOM     13  H   UNL     1       3.622  -1.614  -0.054  0.00  0.00    +0.165 HD
ATOM     14  H   UNL     1       2.862   3.987  -0.020  0.00  0.00    +0.184 HD
ENDROOT
BRANCH  12  15
ATOM     15  N   UNL     1       4.823   4.095  -0.021  0.00  0.00    -0.255 N 
ATOM     16  H   UNL     1       5.648   3.590   0.049  0.00  0.00    +0.172 HD
BRANCH  15  17
ATOM     17  C   UNL     1       4.860   5.430  -0.116  0.00  0.00    +0.117 C 
ATOM     18  C   UNL     1       3.728   6.364  -0.119  0.00  0.00    +0.025 A 
ATOM     19  C   UNL     1       2.346   6.204  -0.032  0.00  0.00    +0.027 A 
ATOM     20  C   UNL     1       1.526   7.315  -0.064  0.00  0.00    +0.019 A 
ATOM     21  C   UNL     1       2.072   8.585  -0.182  0.00  0.00    +0.017 A 
ATOM     22  C   UNL     1       3.438   8.763  -0.269  0.00  0.00    +0.025 A 
ATOM     23  C   UNL     1       4.292   7.657  -0.238  0.00  0.00    +0.043 A 
ATOM     24  N   UNL     1       5.644   7.554  -0.305  0.00  0.00    -0.280 N 
ATOM     25  C   UNL     1       6.056   6.299  -0.235  0.00  0.00    +0.264 C 
ATOM     26  O   UNL     1       7.218   5.921  -0.267  0.00  0.00    -0.268 OA
ATOM     27 BR   UNL     1      -0.350   7.104   0.052  0.00  0.00    -0.050 Br
ATOM     28  H   UNL     1       6.240   8.314  -0.390  0.00  0.00    +0.155 HD
ENDBRANCH  15  17
ENDBRANCH  12  15
TORSDOF 2
