REMARK  Name = ZINC36371182
REMARK  12 active torsions:
REMARK  status: ('A' for Active; 'I' for Inactive)
REMARK    1  A    between atoms: C_1  and  C_2
REMARK    2  A    between atoms: C_2  and  C_4
REMARK    3  A    between atoms: C_2  and  C_12
REMARK    4  A    between atoms: C_5  and  C_6
REMARK    5  A    between atoms: C_6  and  C_8
REMARK    6  A    between atoms: C_6  and  C_9
REMARK    7  A    between atoms: C_9  and  C_10
REMARK    8  A    between atoms: C_9  and  C_11
REMARK    9  A    between atoms: C_18  and  C_37
REMARK   10  A    between atoms: C_27  and  O_36
REMARK   11  A    between atoms: C_28  and  C_35
REMARK   12  A    between atoms: C_31  and  O_34
REMARK                            x       y       z     vdW  Elec       q    Type
REMARK                         _______ _______ _______ _____ _____    ______ ____
ROOT
ATOM      1  C   UNL     1       0.742  -0.511   1.242  0.00  0.00    +0.002 C 
ATOM      2  C   UNL     1       0.836  -2.059   1.217  0.00  0.00    +0.005 C 
ATOM      3  C   UNL     1       2.349  -2.406   1.299  0.00  0.00    +0.009 C 
ATOM      4  C   UNL     1       2.944  -1.165   1.964  0.00  0.00    +0.022 C 
ATOM      5  C   UNL     1       2.184  -0.022   1.232  0.00  0.00    -0.022 C 
ATOM      6  C   UNL     1       2.499   1.251   1.991  0.00  0.00    +0.008 C 
ATOM      7  C   UNL     1       3.947   1.628   1.654  0.00  0.00    +0.009 C 
ATOM      8  C   UNL     1       4.926   0.494   1.737  0.00  0.00    +0.024 C 
ATOM      9  C   UNL     1       4.393  -0.906   1.798  0.00  0.00    -0.059 C 
ATOM     10  C   UNL     1       5.285  -1.915   1.688  0.00  0.00    +0.049 C 
ATOM     11  C   UNL     1       6.691  -1.437   1.618  0.00  0.00    +0.188 C 
ATOM     12  O   UNL     1       7.483  -1.852   0.796  0.00  0.00    -0.290 OA
ATOM     13  C   UNL     1       7.056  -0.400   2.643  0.00  0.00    +0.136 C 
ATOM     14  C   UNL     1       6.075   0.739   2.710  0.00  0.00    +0.011 C 
ATOM     15  C   UNL     1       6.650   2.114   2.449  0.00  0.00    +0.013 C 
ATOM     16  C   UNL     1       8.070   2.308   2.916  0.00  0.00    +0.032 C 
ATOM     17  C   UNL     1       8.997   1.216   2.424  0.00  0.00    +0.118 C 
ATOM     18  C   UNL     1       8.510  -0.165   2.817  0.00  0.00    +0.074 C 
ATOM     19  C   UNL     1       5.484   0.767   4.121  0.00  0.00    +0.015 C 
ATOM     20  C   UNL     1       2.684   0.092  -0.209  0.00  0.00    +0.012 C 
ENDROOT
BRANCH   1  22
ATOM     21  C   UNL     1      -0.019   1.526   0.010  0.00  0.00    +0.012 C 
ATOM     22  C   UNL     1       0.002  -0.004   0.002  0.00  0.00    +0.012 C 
BRANCH  22  23
ATOM     23  C   UNL     1      -1.412  -0.526   0.013  0.00  0.00    -0.027 C 
ATOM     24  C   UNL     1      -1.839  -1.279  -0.970  0.00  0.00    -0.027 C 
BRANCH  24  25
ATOM     25  C   UNL     1      -3.253  -1.801  -0.959  0.00  0.00    +0.011 C 
ATOM     26  C   UNL     1      -3.232  -3.331  -0.968  0.00  0.00    +0.012 C 
BRANCH  25  27
ATOM     27  C   UNL     1      -3.993  -1.294  -2.199  0.00  0.00    -0.011 C 
ATOM     28  C   UNL     1      -5.428  -1.824  -2.188  0.00  0.00    +0.008 C 
ATOM     29  C   UNL     1      -4.014   0.236  -2.190  0.00  0.00    +0.008 C 
ENDBRANCH  25  27
ENDBRANCH  24  25
ENDBRANCH  22  23
ENDBRANCH   1  22
BRANCH  17  30
ATOM     30  O   UNL     1       9.078   1.280   0.999  0.00  0.00    -0.392 OA
ATOM     31  H   UNL     1       9.417   2.120   0.661  0.00  0.00    +0.210 HD
ENDBRANCH  17  30
BRANCH  13  32
ATOM     32  O   UNL     1       6.732  -1.093   3.850  0.00  0.00    -0.380 OA
ATOM     33  H   UNL     1       7.226  -1.915   3.976  0.00  0.00    +0.211 HD
ENDBRANCH  13  32
TORSDOF 6
