REMARK  Name = ZINC67446241
REMARK  14 active torsions:
REMARK  status: ('A' for Active; 'I' for Inactive)
REMARK    1  A    between atoms: C_1  and  C_2
REMARK    2  A    between atoms: C_2  and  N_3
REMARK    3  A    between atoms: N_3  and  C_4
REMARK    4  A    between atoms: N_3  and  C_27
REMARK    5  A    between atoms: C_7  and  N_10
REMARK    6  A    between atoms: C_11  and  C_13
REMARK    7  A    between atoms: C_13  and  N_14
REMARK    8  A    between atoms: N_14  and  C_15
REMARK    9  A    between atoms: N_14  and  C_16
REMARK   10  A    between atoms: C_16  and  C_17
REMARK   11  A    between atoms: C_20  and  C_23
REMARK   12  A    between atoms: N_25  and  C_26
REMARK   13  A    between atoms: C_27  and  C_28
REMARK   14  A    between atoms: C_27  and  C_29
REMARK                            x       y       z     vdW  Elec       q    Type
REMARK                         _______ _______ _______ _____ _____    ______ ____
ROOT
ATOM      1  N   UNL     1      -0.760  -5.850  -0.413  0.00  0.00    -0.287 N 
ATOM      2  C   UNL     1      -1.304  -6.673  -1.330  0.00  0.00    +0.201 C 
ATOM      3  O   UNL     1      -1.932  -6.214  -2.261  0.00  0.00    -0.278 OA
ATOM      4  H   UNL     1      -0.201  -6.211   0.292  0.00  0.00    +0.155 HD
ENDROOT
BRANCH   1   8
ATOM      5  C   UNL     1      -1.484  -1.752  -0.604  0.00  0.00    +0.014 A 
ATOM      6  C   UNL     1      -1.361  -2.486  -1.769  0.00  0.00    +0.023 A 
ATOM      7  C   UNL     1      -1.121  -3.844  -1.709  0.00  0.00    +0.025 A 
ATOM      8  C   UNL     1      -1.003  -4.473  -0.477  0.00  0.00    +0.033 A 
ATOM      9  C   UNL     1      -1.127  -3.733   0.692  0.00  0.00    +0.025 A 
ATOM     10  C   UNL     1      -1.362  -2.374   0.625  0.00  0.00    +0.023 A 
BRANCH   5  11
ATOM     11  N   UNL     1      -1.727  -0.376  -0.668  0.00  0.00    -0.392 NA
ATOM     12  H   UNL     1      -1.784  -0.001   0.267  0.00  0.00    +0.127 HD
BRANCH  11  13
ATOM     13  C   UNL     1      -0.632   0.281  -1.394  0.00  0.00    +0.049 C 
ATOM     14  C   UNL     1      -0.828   1.798  -1.349  0.00  0.00    +0.026 C 
ATOM     15  C   UNL     1       0.703  -0.080  -0.740  0.00  0.00    +0.026 C 
ENDBRANCH  11  13
BRANCH  11  17
ATOM     16  C   UNL     1      -4.150  -0.707  -0.547  0.00  0.00    +0.022 C 
ATOM     17  C   UNL     1      -2.995  -0.135  -1.370  0.00  0.00    +0.082 C 
ENDBRANCH  11  17
ENDBRANCH   5  11
ENDBRANCH   1   8
BRANCH   2  18
ATOM     18  C   UNL     1      -1.133  -8.165  -1.200  0.00  0.00    +0.019 C 
BRANCH  18  19
ATOM     19  N   UNL     1      -1.814  -8.836  -2.315  0.00  0.00    +0.386 N 
ATOM     20  C   UNL     1      -3.261  -8.601  -2.219  0.00  0.00    -0.095 C 
ATOM     21  H   UNL     1      -1.471  -8.466  -3.189  0.00  0.00    -0.081 HD
BRANCH  19  22
ATOM     22  C   UNL     1      -1.547 -10.279  -2.255  0.00  0.00    -0.043 C 
BRANCH  22  23
ATOM     23  C   UNL     1      -2.142 -10.951  -3.466  0.00  0.00    -0.064 A 
ATOM     24  C   UNL     1      -3.444 -11.418  -3.425  0.00  0.00    +0.002 A 
ATOM     25  C   UNL     1      -3.995 -12.033  -4.530  0.00  0.00    +0.013 A 
ATOM     26  C   UNL     1      -3.236 -12.185  -5.691  0.00  0.00    +0.037 A 
ATOM     27  C   UNL     1      -1.923 -11.711  -5.726  0.00  0.00    +0.013 A 
ATOM     28  C   UNL     1      -1.386 -11.092  -4.616  0.00  0.00    +0.002 A 
BRANCH  26  29
ATOM     29  C   UNL     1      -3.819 -12.844  -6.879  0.00  0.00    +0.244 C 
ATOM     30  O   UNL     1      -4.962 -13.256  -6.845  0.00  0.00    -0.270 OA
ATOM     31  N   UNL     1      -3.083 -12.989  -7.999  0.00  0.00    -0.314 N 
ATOM     32  C   UNL     1      -3.661 -13.642  -9.176  0.00  0.00    +0.128 C 
ATOM     33  H   UNL     1      -2.171 -12.660  -8.025  0.00  0.00    +0.149 HD
ENDBRANCH  26  29
ENDBRANCH  22  23
ENDBRANCH  19  22
ENDBRANCH  18  19
ENDBRANCH   2  18
TORSDOF 9
