REMARK  Name = ZINC21247739
REMARK  7 active torsions:
REMARK  status: ('A' for Active; 'I' for Inactive)
REMARK    1  A    between atoms: C_1  and  C_2
REMARK    2  A    between atoms: C_2  and  C_3
REMARK    3  A    between atoms: C_6  and  C_9
REMARK    4  A    between atoms: C_14  and  C_19
REMARK    5  A    between atoms: C_22  and  N_25
REMARK    6  A    between atoms: N_25  and  C_26
REMARK    7  A    between atoms: N_25  and  C_27
REMARK                            x       y       z     vdW  Elec       q    Type
REMARK                         _______ _______ _______ _____ _____    ______ ____
ROOT
ATOM      1  C   UNL     1      -5.406  -1.983  -0.012  0.00  0.00    +0.136 C 
ATOM      2  C   UNL     1      -6.333  -0.857   0.381  0.00  0.00    +0.036 C 
ATOM      3  C   UNL     1      -7.012  -0.762   1.537  0.00  0.00    +0.017 C 
ATOM      4  C   UNL     1      -7.920   0.427   1.803  0.00  0.00    +0.059 C 
ATOM      5  C   UNL     1      -7.369   1.671   1.109  0.00  0.00    +0.032 C 
ATOM      6  C   UNL     1      -7.299   1.375  -0.394  0.00  0.00    +0.088 C 
ATOM      7  C   UNL     1      -6.449   0.157  -0.599  0.00  0.00    +0.163 C 
ATOM      8  O   UNL     1      -5.840   0.036  -1.644  0.00  0.00    -0.292 OA
ATOM      9  N   UNL     1      -6.971  -1.681   2.534  0.00  0.00    -0.316 N 
ATOM     10  C   UNL     1      -5.811  -2.256   3.040  0.00  0.00    +0.052 A 
ATOM     11  C   UNL     1      -5.388  -2.049   4.341  0.00  0.00    +0.025 A 
ATOM     12  C   UNL     1      -4.249  -2.692   4.795  0.00  0.00    +0.002 A 
ATOM     13  C   UNL     1      -3.543  -3.535   3.956  0.00  0.00    +0.002 A 
ATOM     14  C   UNL     1      -3.955  -3.729   2.649  0.00  0.00    +0.025 A 
ATOM     15  C   UNL     1      -5.082  -3.070   2.186  0.00  0.00    +0.049 A 
ATOM     16  N   UNL     1      -5.472  -3.144   0.849  0.00  0.00    -0.331 N 
ATOM     17  H   UNL     1      -7.905  -2.024   3.005  0.00  0.00    +0.152 HD
ATOM     18  H   UNL     1      -5.833  -4.104   0.451  0.00  0.00    +0.147 HD
ENDROOT
BRANCH   1  22
ATOM     19  C   UNL     1      -1.398  -0.507   0.010  0.00  0.00    -0.048 A 
ATOM     20  C   UNL     1      -1.965  -0.948  -1.171  0.00  0.00    +0.004 A 
ATOM     21  C   UNL     1      -3.261  -1.430  -1.177  0.00  0.00    +0.006 A 
ATOM     22  C   UNL     1      -3.992  -1.462  -0.004  0.00  0.00    -0.023 A 
ATOM     23  C   UNL     1      -3.426  -1.016   1.175  0.00  0.00    +0.006 A 
ATOM     24  C   UNL     1      -2.129  -0.539   1.182  0.00  0.00    +0.004 A 
BRANCH  19  26
ATOM     25  C   UNL     1       0.984  -1.141   0.289  0.00  0.00    +0.009 C 
ATOM     26  C   UNL     1       0.017   0.013   0.018  0.00  0.00    +0.032 C 
ENDBRANCH  19  26
ENDBRANCH   1  22
BRANCH   5  27
ATOM     27  C   UNL     1      -8.285   2.842   1.359  0.00  0.00    -0.043 A 
ATOM     28  C   UNL     1      -9.601   2.791   0.937  0.00  0.00    +0.006 A 
ATOM     29  C   UNL     1     -10.444   3.859   1.169  0.00  0.00    +0.023 A 
ATOM     30  C   UNL     1      -9.966   4.992   1.816  0.00  0.00    +0.029 A 
ATOM     31  C   UNL     1      -8.642   5.043   2.233  0.00  0.00    +0.023 A 
ATOM     32  C   UNL     1      -7.805   3.968   2.003  0.00  0.00    +0.006 A 
BRANCH  30  33
ATOM     33  N   UNL     1     -10.815   6.077   2.047  0.00  0.00    -0.336 N 
ATOM     34  C   UNL     1     -10.280   7.316   2.617  0.00  0.00    +0.129 C 
ATOM     35  C   UNL     1     -12.239   5.975   1.720  0.00  0.00    +0.129 C 
ENDBRANCH  30  33
ENDBRANCH   5  27
TORSDOF 4
