REMARK  Name = ZINC38576846
REMARK  11 active torsions:
REMARK  status: ('A' for Active; 'I' for Inactive)
REMARK    1  A    between atoms: C_1  and  C_2
REMARK    2  A    between atoms: C_5  and  C_9
REMARK    3  A    between atoms: C_6  and  O_8
REMARK    4  A    between atoms: C_11  and  C_15
REMARK    5  A    between atoms: N_17  and  C_18
REMARK    6  A    between atoms: C_20  and  C_31
REMARK    7  A    between atoms: N_33  and  C_34
REMARK    8  A    between atoms: C_34  and  C_35
REMARK    9  A    between atoms: C_35  and  C_36
REMARK   10  A    between atoms: C_36  and  O_37
REMARK   11  A    between atoms: O_37  and  C_38
REMARK                            x       y       z     vdW  Elec       q    Type
REMARK                         _______ _______ _______ _____ _____    ______ ____
ROOT
ATOM      1  C   UNL     1      -1.552  -7.081   0.973  0.00  0.00    +0.244 C 
ATOM      2  O   UNL     1      -2.548  -7.247   0.301  0.00  0.00    -0.273 OA
ATOM      3  N   UNL     1      -1.454  -7.659   2.186  0.00  0.00    -0.301 N 
ATOM      4  H   UNL     1      -0.658  -7.526   2.724  0.00  0.00    +0.150 HD
ENDROOT
BRANCH   3   5
ATOM      5  C   UNL     1      -2.551  -8.487   2.694  0.00  0.00    +0.143 C 
ATOM      6  C   UNL     1      -2.003  -9.764   3.365  0.00  0.00    +0.109 C 
ATOM      7  C   UNL     1      -2.509  -9.949   4.809  0.00  0.00    +0.016 C 
ATOM      8  C   UNL     1      -3.865 -10.654   4.705  0.00  0.00    +0.005 C 
ATOM      9  C   UNL     1      -4.583 -10.679   6.049  0.00  0.00    +0.000 C 
ATOM     10  C   UNL     1      -4.869  -9.231   6.466  0.00  0.00    +0.001 C 
ATOM     11  C   UNL     1      -3.528  -8.536   6.692  0.00  0.00    +0.014 C 
ATOM     12  C   UNL     1      -2.640  -8.561   5.470  0.00  0.00    +0.052 C 
ATOM     13  S   UNL     1      -3.433  -7.630   4.067  0.00  0.00    -0.134 S 
BRANCH   6  14
ATOM     14  C   UNL     1      -2.424 -10.960   2.550  0.00  0.00    +0.219 C 
ATOM     15  O   UNL     1      -3.442 -10.917   1.891  0.00  0.00    -0.275 OA
ATOM     16  N   UNL     1      -1.670 -12.077   2.553  0.00  0.00    -0.315 N 
ATOM     17  H   UNL     1      -0.856 -12.111   3.079  0.00  0.00    +0.149 HD
BRANCH  16  18
ATOM     18  C   UNL     1      -2.079 -13.239   1.760  0.00  0.00    +0.106 C 
BRANCH  18  19
ATOM     19  C   UNL     1      -1.057 -14.363   1.938  0.00  0.00    +0.047 C 
BRANCH  19  20
ATOM     20  C   UNL     1      -1.484 -15.577   1.111  0.00  0.00    +0.161 C 
BRANCH  20  21
ATOM     21  O   UNL     1      -0.529 -16.627   1.277  0.00  0.00    -0.383 OA
ATOM     22  C   UNL     1      -0.836 -17.814   0.542  0.00  0.00    +0.193 C 
ENDBRANCH  20  21
ENDBRANCH  19  20
ENDBRANCH  18  19
ENDBRANCH  16  18
ENDBRANCH   6  14
ENDBRANCH   3   5
BRANCH   1  25
ATOM     23  C   UNL     1      -0.648  -4.028  -0.007  0.00  0.00    +0.095 C 
ATOM     24  C   UNL     1      -0.479  -4.838   1.057  0.00  0.00    +0.041 C 
ATOM     25  C   UNL     1      -0.425  -6.229   0.451  0.00  0.00    +0.238 C 
ATOM     26  N   UNL     1      -0.585  -5.973  -0.990  0.00  0.00    -0.170 NA
ATOM     27  N   UNL     1      -0.705  -4.757  -1.152  0.00  0.00    -0.153 NA
BRANCH  23  32
ATOM     28  C   UNL     1      -1.093   1.711   0.260  0.00  0.00    +0.044 C 
ATOM     29  C   UNL     1      -0.976   0.210   0.194  0.00  0.00    -0.047 A 
ATOM     30  C   UNL     1      -1.047  -0.433  -1.030  0.00  0.00    +0.004 A 
ATOM     31  C   UNL     1      -0.941  -1.807  -1.101  0.00  0.00    +0.014 A 
ATOM     32  C   UNL     1      -0.762  -2.551   0.064  0.00  0.00    +0.043 A 
ATOM     33  C   UNL     1      -0.690  -1.899   1.298  0.00  0.00    +0.126 A 
ATOM     34  C   UNL     1      -0.792  -0.518   1.354  0.00  0.00    +0.049 A 
BRANCH  33  35
ATOM     35  O   UNL     1      -0.515  -2.616   2.439  0.00  0.00    -0.506 OA
ATOM     36  H   UNL     1       0.411  -2.752   2.680  0.00  0.00    +0.292 HD
ENDBRANCH  33  35
ENDBRANCH  23  32
ENDBRANCH   1  25
TORSDOF 9
