REMARK  Name = ZINC08881377
REMARK  13 active torsions:
REMARK  status: ('A' for Active; 'I' for Inactive)
REMARK    1  A    between atoms: C_1  and  C_2
REMARK    2  A    between atoms: C_2  and  O_3
REMARK    3  A    between atoms: O_3  and  C_4
REMARK    4  A    between atoms: C_4  and  C_6
REMARK    5  A    between atoms: C_7  and  C_14
REMARK    6  A    between atoms: C_8  and  C_12
REMARK    7  A    between atoms: C_9  and  N_11
REMARK    8  A    between atoms: C_14  and  O_15
REMARK    9  A    between atoms: O_15  and  C_16
REMARK   10  A    between atoms: C_16  and  C_18
REMARK   11  A    between atoms: C_19  and  O_33
REMARK   12  A    between atoms: N_21  and  C_23
REMARK   13  A    between atoms: C_28  and  C_29
REMARK                            x       y       z     vdW  Elec       q    Type
REMARK                         _______ _______ _______ _____ _____    ______ ____
ROOT
ATOM      1  C   UNL     1       4.113   0.665  -1.578  0.00  0.00    +0.363 C 
ATOM      2  O   UNL     1       4.782   0.325  -0.623  0.00  0.00    -0.243 OA
ENDROOT
BRANCH   1   3
ATOM      3  C   UNL     1       4.603   0.418  -2.946  0.00  0.00    +0.211 A 
ATOM      4  C   UNL     1       5.828  -0.202  -3.303  0.00  0.00    +0.169 A 
ATOM      5  C   UNL     1       5.847  -0.211  -4.660  0.00  0.00    +0.160 A 
ATOM      6  N   UNL     1       4.691   0.373  -5.080  0.00  0.00    -0.235 N 
ATOM      7  N   UNL     1       3.982   0.727  -4.069  0.00  0.00    -0.156 NA
BRANCH   6   8
ATOM      8  C   UNL     1       4.327   0.558  -6.420  0.00  0.00    +0.077 A 
ATOM      9  C   UNL     1       5.171   0.131  -7.436  0.00  0.00    +0.028 A 
ATOM     10  C   UNL     1       4.809   0.314  -8.756  0.00  0.00    +0.002 A 
ATOM     11  C   UNL     1       3.606   0.922  -9.066  0.00  0.00    +0.001 A 
ATOM     12  C   UNL     1       2.763   1.349  -8.057  0.00  0.00    +0.014 A 
ATOM     13  C   UNL     1       3.118   1.163  -6.735  0.00  0.00    +0.080 A 
BRANCH  13  14
ATOM     14  C   UNL     1       2.195   1.623  -5.635  0.00  0.00    +0.419 C 
ATOM     15  F   UNL     1       1.050   2.197  -6.197  0.00  0.00    -0.166 F 
ATOM     16  F   UNL     1       1.829   0.527  -4.846  0.00  0.00    -0.166 F 
ATOM     17  F   UNL     1       2.851   2.570  -4.842  0.00  0.00    -0.166 F 
ENDBRANCH  13  14
ENDBRANCH   6   8
BRANCH   4  18
ATOM     18  O   UNL     1       6.783  -0.685  -2.463  0.00  0.00    -0.503 OA
ATOM     19  H   UNL     1       6.660  -1.613  -2.220  0.00  0.00    +0.292 HD
ENDBRANCH   4  18
ENDBRANCH   1   3
BRANCH   1  20
ATOM     20  O   UNL     1       2.923   1.267  -1.387  0.00  0.00    -0.455 OA
BRANCH  20  21
ATOM     21  C   UNL     1       2.503   1.478  -0.013  0.00  0.00    +0.270 C 
BRANCH  21  23
ATOM     22  C   UNL     1       1.052   3.535   0.011  0.00  0.00    +0.106 A 
ATOM     23  C   UNL     1       1.159   2.159   0.003  0.00  0.00    +0.030 A 
ATOM     24  C   UNL     1      -0.017   1.428   0.010  0.00  0.00    +0.087 A 
ATOM     25  C   UNL     1      -1.226   2.134   0.019  0.00  0.00    +0.082 A 
ATOM     26  S   UNL     1      -0.713   3.789   0.029  0.00  0.00    -0.066 S 
BRANCH  25  27
ATOM     27  N   UNL     1      -2.509   1.635   0.022  0.00  0.00    -0.352 N 
ATOM     28  H   UNL     1      -2.656   0.676   0.017  0.00  0.00    +0.143 HD
ATOM     29  H   UNL     1      -3.265   2.242   0.029  0.00  0.00    +0.143 HD
ENDBRANCH  25  27
BRANCH  22  30
ATOM     30  C   UNL     1       2.087   4.504   0.006  0.00  0.00    +0.346 C 
ATOM     31  O   UNL     1       3.251   4.151  -0.007  0.00  0.00    -0.244 OA
BRANCH  30  32
ATOM     32  O   UNL     1       1.780   5.819   0.016  0.00  0.00    -0.461 OA
BRANCH  32  34
ATOM     33  C   UNL     1       2.333   8.171   0.023  0.00  0.00    +0.048 C 
ATOM     34  C   UNL     1       2.873   6.739   0.010  0.00  0.00    +0.229 C 
ENDBRANCH  32  34
ENDBRANCH  30  32
ENDBRANCH  22  30
BRANCH  24  35
ATOM     35  C   UNL     1       0.002  -0.004   0.002  0.00  0.00    +0.102 C 
ATOM     36  N   UNL     1       0.018  -1.140  -0.004  0.00  0.00    -0.191 NA
ENDBRANCH  24  35
ENDBRANCH  21  23
ENDBRANCH  20  21
ENDBRANCH   1  20
TORSDOF 12
