REMARK  Name = ZINC34967385
REMARK  9 active torsions:
REMARK  status: ('A' for Active; 'I' for Inactive)
REMARK    1  A    between atoms: C_1  and  C_2
REMARK    2  A    between atoms: C_2  and  O_3
REMARK    3  A    between atoms: O_3  and  C_4
REMARK    4  A    between atoms: C_4  and  C_6
REMARK    5  A    between atoms: C_7  and  C_29
REMARK    6  A    between atoms: C_9  and  N_28
REMARK    7  A    between atoms: C_10  and  C_26
REMARK    8  A    between atoms: C_11  and  C_13
REMARK    9  A    between atoms: C_16  and  C_18
REMARK                            x       y       z     vdW  Elec       q    Type
REMARK                         _______ _______ _______ _____ _____    ______ ____
ROOT
ATOM      1  C   UNL     1      -2.800  -2.430   0.222  0.00  0.00    +0.090 C 
ATOM      2  C   UNL     1      -2.945  -3.725  -0.086  0.00  0.00    +0.115 C 
ATOM      3  O   UNL     1      -4.152  -4.277  -0.288  0.00  0.00    -0.445 OA
ATOM      4  C   UNL     1      -5.256  -3.659   0.169  0.00  0.00    +0.198 C 
ATOM      5  C   UNL     1      -5.247  -2.343   0.495  0.00  0.00    +0.101 C 
ATOM      6  C   UNL     1      -3.994  -1.525   0.362  0.00  0.00    +0.140 C 
ATOM      7  C   UNL     1      -1.716  -4.589  -0.209  0.00  0.00    +0.087 C 
ENDROOT
BRANCH   6   8
ATOM      8  C   UNL     1      -4.102  -0.647  -0.859  0.00  0.00    +0.119 A 
ATOM      9  C   UNL     1      -4.056   0.699  -0.864  0.00  0.00    +0.046 A 
ATOM     10  C   UNL     1      -4.195   1.111  -2.205  0.00  0.00    +0.050 A 
ATOM     11  C   UNL     1      -4.319  -0.019  -2.951  0.00  0.00    +0.137 A 
ATOM     12  O   UNL     1      -4.256  -1.078  -2.122  0.00  0.00    -0.459 OA
BRANCH  11  13
ATOM     13  C   UNL     1      -4.489  -0.075  -4.418  0.00  0.00    +0.037 A 
ATOM     14  C   UNL     1      -5.461   0.709  -5.041  0.00  0.00    +0.033 A 
ATOM     15  C   UNL     1      -5.615   0.652  -6.412  0.00  0.00    +0.042 A 
ATOM     16  C   UNL     1      -4.807  -0.181  -7.168  0.00  0.00    +0.021 A 
ATOM     17  C   UNL     1      -3.842  -0.960  -6.557  0.00  0.00    +0.022 A 
ATOM     18  C   UNL     1      -3.675  -0.909  -5.187  0.00  0.00    +0.052 A 
ATOM     19 CL   UNL     1      -2.458  -1.883  -4.422  0.00  0.00    -0.083 Cl
ATOM     20 CL   UNL     1      -6.823   1.627  -7.190  0.00  0.00    -0.084 Cl
ENDBRANCH  11  13
ENDBRANCH   6   8
BRANCH   4  21
ATOM     21  N   UNL     1      -6.418  -4.376   0.308  0.00  0.00    -0.328 N 
ATOM     22  H   UNL     1      -6.437  -5.318   0.078  0.00  0.00    +0.145 HD
ATOM     23  H   UNL     1      -7.221  -3.942   0.637  0.00  0.00    +0.145 HD
ENDBRANCH   4  21
BRANCH   1  24
ATOM     24  C   UNL     1      -1.501  -1.903   0.424  0.00  0.00    +0.339 C 
ATOM     25  O   UNL     1      -1.073  -1.757   1.554  0.00  0.00    -0.245 OA
BRANCH  24  26
ATOM     26  O   UNL     1      -0.738  -1.565  -0.635  0.00  0.00    -0.462 OA
BRANCH  26  28
ATOM     27  C   UNL     1       1.274  -0.717  -1.673  0.00  0.00    +0.048 C 
ATOM     28  C   UNL     1       0.562  -1.040  -0.357  0.00  0.00    +0.229 C 
ENDBRANCH  26  28
ENDBRANCH  24  26
ENDBRANCH   1  24
BRANCH   5  29
ATOM     29  C   UNL     1      -6.446  -1.726   0.978  0.00  0.00    +0.101 C 
ATOM     30  N   UNL     1      -7.397  -1.236   1.360  0.00  0.00    -0.191 NA
ENDBRANCH   5  29
TORSDOF 7
