REMARK  Name = ZINC58790771
REMARK  12 active torsions:
REMARK  status: ('A' for Active; 'I' for Inactive)
REMARK    1  A    between atoms: C_1  and  C_2
REMARK    2  A    between atoms: C_2  and  C_3
REMARK    3  A    between atoms: C_6  and  C_9
REMARK    4  A    between atoms: C_9  and  N_10
REMARK    5  A    between atoms: N_10  and  C_11
REMARK    6  A    between atoms: N_10  and  C_31
REMARK    7  A    between atoms: C_11  and  C_12
REMARK    8  A    between atoms: N_14  and  N_15
REMARK    9  A    between atoms: C_18  and  C_22
REMARK   10  A    between atoms: C_18  and  C_23
REMARK   11  A    between atoms: C_23  and  C_24
REMARK   12  A    between atoms: C_24  and  C_25
REMARK                            x       y       z     vdW  Elec       q    Type
REMARK                         _______ _______ _______ _____ _____    ______ ____
ROOT
ATOM      1  C   UNL     1      -8.650  -0.327   0.062  0.00  0.00    +0.213 C 
ATOM      2  O   UNL     1      -8.315   0.837  -0.013  0.00  0.00    -0.276 OA
ATOM      3  N   UNL     1      -9.957  -0.649   0.122  0.00  0.00    -0.225 N 
ATOM      4  H   UNL     1     -10.225  -1.579   0.182  0.00  0.00    +0.173 HD
ENDROOT
BRANCH   3   5
ATOM      5  N   UNL     1     -10.929   0.360   0.098  0.00  0.00    -0.137 N 
ATOM      6  C   UNL     1     -11.623   0.768   1.178  0.00  0.00    +0.263 C 
ATOM      7  O   UNL     1     -11.529   0.349   2.311  0.00  0.00    -0.271 OA
ATOM      8  C   UNL     1     -12.547   1.863   0.681  0.00  0.00    +0.112 C 
ATOM      9  N   UNL     1     -12.237   1.952  -0.756  0.00  0.00    -0.284 N 
ATOM     10  C   UNL     1     -11.278   1.040  -1.000  0.00  0.00    +0.326 C 
ATOM     11  O   UNL     1     -10.787   0.853  -2.096  0.00  0.00    -0.251 OA
ATOM     12  C   UNL     1     -12.238   3.188   1.382  0.00  0.00    +0.041 C 
ATOM     13  H   UNL     1     -12.642   2.554  -1.400  0.00  0.00    +0.151 HD
BRANCH   8  14
ATOM     14  C   UNL     1     -14.010   1.470   0.893  0.00  0.00    +0.040 C 
BRANCH  14  15
ATOM     15  C   UNL     1     -14.919   2.532   0.272  0.00  0.00    +0.038 C 
BRANCH  15  16
ATOM     16  C   UNL     1     -16.360   2.145   0.480  0.00  0.00    -0.047 A 
ATOM     17  C   UNL     1     -17.009   1.365  -0.460  0.00  0.00    +0.003 A 
ATOM     18  C   UNL     1     -18.331   1.010  -0.269  0.00  0.00    +0.000 A 
ATOM     19  C   UNL     1     -19.005   1.433   0.862  0.00  0.00    +0.000 A 
ATOM     20  C   UNL     1     -18.356   2.212   1.802  0.00  0.00    +0.000 A 
ATOM     21  C   UNL     1     -17.032   2.564   1.613  0.00  0.00    +0.003 A 
ENDBRANCH  15  16
ENDBRANCH  14  15
ENDBRANCH   8  14
ENDBRANCH   3   5
BRANCH   1  22
ATOM     22  C   UNL     1      -7.604  -1.412   0.089  0.00  0.00    +0.021 C 
BRANCH  22  23
ATOM     23  N   UNL     1      -6.268  -0.806   0.012  0.00  0.00    +0.390 N 
ATOM     24  H   UNL     1      -6.213  -0.215  -0.803  0.00  0.00    -0.080 HD
BRANCH  23  25
ATOM     25  C   UNL     1      -6.025  -0.003   1.218  0.00  0.00    -0.068 C 
ATOM     26  C   UNL     1      -5.827   1.503   1.035  0.00  0.00    -0.017 C 
ATOM     27  C   UNL     1      -4.634   0.612   1.388  0.00  0.00    -0.017 C 
ENDBRANCH  23  25
BRANCH  23  28
ATOM     28  C   UNL     1      -5.255  -1.866  -0.083  0.00  0.00    -0.042 C 
BRANCH  28  32
ATOM     29  C   UNL     1      -5.708  -3.944  -3.787  0.00  0.00    -0.048 A 
ATOM     30  C   UNL     1      -4.972  -2.774  -3.736  0.00  0.00    +0.004 A 
ATOM     31  C   UNL     1      -4.826  -2.102  -2.537  0.00  0.00    +0.002 A 
ATOM     32  C   UNL     1      -5.415  -2.599  -1.390  0.00  0.00    -0.064 A 
ATOM     33  C   UNL     1      -6.151  -3.768  -1.441  0.00  0.00    +0.002 A 
ATOM     34  C   UNL     1      -6.301  -4.438  -2.641  0.00  0.00    +0.004 A 
BRANCH  29  36
ATOM     35  C   UNL     1      -7.109  -4.159  -5.822  0.00  0.00    +0.009 C 
ATOM     36  C   UNL     1      -5.867  -4.677  -5.094  0.00  0.00    +0.032 C 
ENDBRANCH  29  36
ENDBRANCH  28  32
ENDBRANCH  23  28
ENDBRANCH  22  23
ENDBRANCH   1  22
TORSDOF 10
