REMARK  Name = ZINC14456498
REMARK  8 active torsions:
REMARK  status: ('A' for Active; 'I' for Inactive)
REMARK    1  A    between atoms: C_1  and  C_2
REMARK    2  A    between atoms: C_2  and  O_3
REMARK    3  A    between atoms: O_3  and  C_4
REMARK    4  A    between atoms: C_7  and  N_10
REMARK    5  A    between atoms: N_10  and  S_11
REMARK    6  A    between atoms: S_11  and  C_14
REMARK    7  A    between atoms: C_27  and  C_30
REMARK    8  A    between atoms: C_33  and  C_35
REMARK                            x       y       z     vdW  Elec       q    Type
REMARK                         _______ _______ _______ _____ _____    ______ ____
ROOT
ATOM      1  C   UNL     1      -4.265   2.975   0.686  0.00  0.00    +0.109 A 
ATOM      2  C   UNL     1      -3.646   4.129   1.131  0.00  0.00    +0.030 A 
ATOM      3  C   UNL     1      -4.161   5.360   0.779  0.00  0.00    +0.025 A 
ATOM      4  C   UNL     1      -5.303   5.437  -0.008  0.00  0.00    +0.031 A 
ATOM      5  C   UNL     1      -5.932   4.283  -0.449  0.00  0.00    -0.018 A 
ATOM      6  C   UNL     1      -5.400   3.050  -0.094  0.00  0.00    +0.034 A 
ATOM      7  C   UNL     1      -7.168   4.316  -1.290  0.00  0.00    +0.049 C 
ATOM      8  C   UNL     1      -6.867   3.975  -2.729  0.00  0.00    -0.023 C 
ATOM      9  C   UNL     1      -7.620   4.688  -3.532  0.00  0.00    -0.030 C 
ATOM     10  C   UNL     1      -8.532   5.599  -2.733  0.00  0.00    +0.033 C 
ATOM     11  C   UNL     1      -7.812   5.715  -1.358  0.00  0.00    +0.029 C 
ATOM     12  C   UNL     1      -6.723   6.783  -1.502  0.00  0.00    +0.111 C 
ATOM     13  N   UNL     1      -5.815   6.693  -0.354  0.00  0.00    -0.336 N 
ATOM     14  H   UNL     1      -5.575   7.484   0.153  0.00  0.00    +0.147 HD
ENDROOT
BRANCH  12  15
ATOM     15  C   UNL     1      -5.951   6.552  -2.775  0.00  0.00    +0.010 A 
ATOM     16  C   UNL     1      -6.068   7.181  -3.970  0.00  0.00    +0.013 A 
ATOM     17  C   UNL     1      -5.243   6.800  -5.012  0.00  0.00    +0.011 A 
ATOM     18  C   UNL     1      -4.343   5.807  -4.808  0.00  0.00    -0.013 A 
ATOM     19  S   UNL     1      -4.641   5.383  -3.100  0.00  0.00    -0.097 S 
ATOM     20  C   UNL     1      -3.346   5.217  -5.772  0.00  0.00    +0.051 C 
ENDBRANCH  12  15
BRANCH   1  21
ATOM     21  S   UNL     1      -3.605   1.401   1.125  0.00  0.00    +0.072 S 
ATOM     22  O   UNL     1      -4.666   0.465   0.995  0.00  0.00    -0.150 OA
ATOM     23  O   UNL     1      -2.895   1.583   2.342  0.00  0.00    -0.150 OA
BRANCH  21  24
ATOM     24  N   UNL     1      -2.480   1.004  -0.024  0.00  0.00    -0.216 N 
ATOM     25  H   UNL     1      -2.619   0.229  -0.591  0.00  0.00    +0.174 HD
BRANCH  24  29
ATOM     26  C   UNL     1       0.942   3.340  -0.476  0.00  0.00    +0.121 A 
ATOM     27  C   UNL     1      -0.082   3.423  -1.408  0.00  0.00    +0.047 A 
ATOM     28  C   UNL     1      -1.214   2.647  -1.261  0.00  0.00    +0.028 A 
ATOM     29  C   UNL     1      -1.330   1.787  -0.177  0.00  0.00    +0.048 A 
ATOM     30  C   UNL     1      -0.302   1.700   0.752  0.00  0.00    +0.028 A 
ATOM     31  C   UNL     1       0.830   2.477   0.604  0.00  0.00    +0.047 A 
BRANCH  26  32
ATOM     32  O   UNL     1       2.057   4.105  -0.621  0.00  0.00    -0.492 OA
BRANCH  32  34
ATOM     33  C   UNL     1       4.239   4.902   0.046  0.00  0.00    +0.048 C 
ATOM     34  C   UNL     1       3.072   3.969   0.376  0.00  0.00    +0.225 C 
ENDBRANCH  32  34
ENDBRANCH  26  32
ENDBRANCH  24  29
ENDBRANCH  21  24
ENDBRANCH   1  21
TORSDOF 6
