REMARK  Name = ZINC22288779
REMARK  3 active torsions:
REMARK  status: ('A' for Active; 'I' for Inactive)
REMARK    1  A    between atoms: C_1  and  C_2
REMARK    2  A    between atoms: C_12  and  C_14
REMARK    3  A    between atoms: C_20  and  C_22
REMARK                            x       y       z     vdW  Elec       q    Type
REMARK                         _______ _______ _______ _____ _____    ______ ____
ROOT
ATOM      1  C   UNL     1      -0.821   0.553   4.866  0.00  0.00    +0.044 C 
ATOM      2  C   UNL     1      -1.099   1.274   3.572  0.00  0.00    -0.050 A 
ATOM      3  C   UNL     1      -1.855   2.431   3.575  0.00  0.00    +0.005 A 
ATOM      4  C   UNL     1      -2.110   3.091   2.390  0.00  0.00    +0.024 A 
ATOM      5  C   UNL     1      -1.607   2.591   1.194  0.00  0.00    +0.039 A 
ATOM      6  C   UNL     1      -0.847   1.433   1.191  0.00  0.00    -0.026 A 
ATOM      7  C   UNL     1      -0.596   0.777   2.385  0.00  0.00    +0.008 A 
ATOM      8  C   UNL     1      -0.280   0.866  -0.084  0.00  0.00    +0.038 C 
ATOM      9  C   UNL     1      -1.050   1.395  -1.294  0.00  0.00    +0.024 C 
ATOM     10  C   UNL     1      -1.118   2.925  -1.207  0.00  0.00    +0.114 C 
ATOM     11  N   UNL     1      -1.880   3.273   0.000  0.00  0.00    -0.271 N 
ATOM     12  C   UNL     1      -2.826   4.233  -0.040  0.00  0.00    +0.224 C 
ATOM     13  O   UNL     1      -3.526   4.435   0.930  0.00  0.00    -0.275 OA
ENDROOT
BRANCH  12  14
ATOM     14  C   UNL     1      -3.014   5.054  -1.289  0.00  0.00    +0.093 C 
ATOM     15  C   UNL     1      -2.798   6.535  -0.968  0.00  0.00    +0.040 C 
ATOM     16  C   UNL     1      -3.928   7.052  -0.127  0.00  0.00    -0.030 C 
ATOM     17  C   UNL     1      -5.070   6.455   0.001  0.00  0.00    -0.030 C 
ATOM     18  C   UNL     1      -5.419   5.157  -0.668  0.00  0.00    +0.042 C 
ATOM     19  C   UNL     1      -4.445   4.875  -1.813  0.00  0.00    +0.118 C 
BRANCH  19  20
ATOM     20  C   UNL     1      -4.632   3.462  -2.301  0.00  0.00    +0.360 C 
ATOM     21  O   UNL     1      -3.718   2.674  -2.238  0.00  0.00    -0.246 OA
ATOM     22  O   UNL     1      -5.815   3.077  -2.806  0.00  0.00    -0.246 OA
ENDBRANCH  19  20
ENDBRANCH  12  14
TORSDOF 2
