REMARK  Name = ZINC57997343
REMARK  8 active torsions:
REMARK  status: ('A' for Active; 'I' for Inactive)
REMARK    1  A    between atoms: C_3  and  S_20
REMARK    2  A    between atoms: C_5  and  C_6
REMARK    3  A    between atoms: C_6  and  C_7
REMARK    4  A    between atoms: C_7  and  N_8
REMARK    5  A    between atoms: C_9  and  C_11
REMARK    6  A    between atoms: C_13  and  S_16
REMARK    7  A    between atoms: S_16  and  N_19
REMARK    8  A    between atoms: S_20  and  N_23
REMARK                            x       y       z     vdW  Elec       q    Type
REMARK                         _______ _______ _______ _____ _____    ______ ____
ROOT
ATOM      1  N   UNL     1      -2.687  -2.226  -1.426  0.00  0.00    -0.311 N 
ATOM      2  C   UNL     1      -3.216  -2.651  -2.590  0.00  0.00    +0.245 C 
ATOM      3  O   UNL     1      -2.759  -2.256  -3.646  0.00  0.00    -0.270 OA
ATOM      4  H   UNL     1      -3.051  -2.541  -0.584  0.00  0.00    +0.149 HD
ENDROOT
BRANCH   2   5
ATOM      5  C   UNL     1      -4.347  -3.593  -2.584  0.00  0.00    +0.046 A 
ATOM      6  C   UNL     1      -4.936  -4.074  -3.810  0.00  0.00    +0.049 A 
ATOM      7  C   UNL     1      -5.965  -4.934  -3.668  0.00  0.00    +0.143 A 
ATOM      8  S   UNL     1      -6.125  -5.082  -1.902  0.00  0.00    -0.076 S 
ATOM      9  C   UNL     1      -4.888  -4.061  -1.408  0.00  0.00    +0.060 A 
BRANCH   7  10
ATOM     10  S   UNL     1      -6.918  -5.719  -4.925  0.00  0.00    +0.062 S 
ATOM     11  O   UNL     1      -8.169  -6.050  -4.338  0.00  0.00    -0.153 OA
ATOM     12  O   UNL     1      -6.812  -4.904  -6.084  0.00  0.00    -0.153 OA
BRANCH  10  13
ATOM     13  N   UNL     1      -6.170  -7.152  -5.283  0.00  0.00    -0.203 NA
ATOM     14  H   UNL     1      -5.357  -7.405  -4.818  0.00  0.00    +0.144 HD
ATOM     15  H   UNL     1      -6.544  -7.739  -5.959  0.00  0.00    +0.144 HD
ENDBRANCH  10  13
ENDBRANCH   7  10
ENDBRANCH   2   5
BRANCH   1  16
ATOM     16  C   UNL     1      -1.562  -1.288  -1.432  0.00  0.00    +0.109 C 
BRANCH  16  17
ATOM     17  C   UNL     1      -1.155  -0.969   0.008  0.00  0.00    +0.061 C 
BRANCH  17  22
ATOM     18  C   UNL     1      -0.016   1.351   0.009  0.00  0.00    +0.013 A 
ATOM     19  C   UNL     1       1.183   2.038   0.002  0.00  0.00    +0.036 A 
ATOM     20  C   UNL     1       2.343   1.336  -0.013  0.00  0.00    +0.142 A 
ATOM     21  S   UNL     1       1.754  -0.349  -0.017  0.00  0.00    -0.073 S 
ATOM     22  C   UNL     1       0.002  -0.004   0.002  0.00  0.00    -0.007 A 
BRANCH  20  23
ATOM     23  S   UNL     1       4.001   1.932  -0.026  0.00  0.00    +0.062 S 
ATOM     24  O   UNL     1       4.799   0.900  -0.590  0.00  0.00    -0.153 OA
ATOM     25  O   UNL     1       3.957   3.244  -0.570  0.00  0.00    -0.153 OA
BRANCH  23  26
ATOM     26  N   UNL     1       4.477   2.089   1.552  0.00  0.00    -0.203 NA
ATOM     27  H   UNL     1       3.864   1.863   2.268  0.00  0.00    +0.144 HD
ATOM     28  H   UNL     1       5.369   2.408   1.760  0.00  0.00    +0.144 HD
ENDBRANCH  23  26
ENDBRANCH  20  23
ENDBRANCH  17  22
ENDBRANCH  16  17
ENDBRANCH   1  16
TORSDOF 8
