REMARK  Name = ZINC37908113
REMARK  4 active torsions:
REMARK  status: ('A' for Active; 'I' for Inactive)
REMARK    1  A    between atoms: C_1  and  C_2
REMARK    2  A    between atoms: C_2  and  C_4
REMARK    3  A    between atoms: C_2  and  N_10
REMARK    4  A    between atoms: N_10  and  C_11
REMARK                            x       y       z     vdW  Elec       q    Type
REMARK                         _______ _______ _______ _____ _____    ______ ____
ROOT
ATOM      1  C   UNL     1      -2.135  -0.749  -1.008  0.00  0.00    +0.075 A 
ATOM      2  C   UNL     1      -3.324  -1.402  -0.904  0.00  0.00    +0.065 A 
ATOM      3  C   UNL     1      -4.115  -1.654  -2.024  0.00  0.00    +0.044 A 
ATOM      4  C   UNL     1      -3.735  -1.260  -3.264  0.00  0.00    +0.071 A 
ATOM      5  C   UNL     1      -2.504  -0.572  -3.451  0.00  0.00    +0.120 A 
ATOM      6  C   UNL     1      -1.676  -0.301  -2.283  0.00  0.00    +0.123 A 
ATOM      7  N   UNL     1      -0.552   0.353  -2.577  0.00  0.00    -0.189 NA
ATOM      8  S   UNL     1      -0.587   0.584  -4.168  0.00  0.00    +0.117 S 
ATOM      9  N   UNL     1      -1.975  -0.115  -4.587  0.00  0.00    -0.189 NA
ATOM     10 CL   UNL     1      -4.754  -1.598  -4.628  0.00  0.00    -0.081 Cl
ATOM     11 CL   UNL     1      -3.868  -1.933   0.657  0.00  0.00    -0.082 Cl
ENDROOT
BRANCH   1  12
ATOM     12  N   UNL     1      -1.366  -0.512   0.133  0.00  0.00    -0.333 N 
ATOM     13  H   UNL     1      -1.765  -0.598   1.013  0.00  0.00    +0.147 HD
BRANCH  12  15
ATOM     14  C   UNL     1       0.167   1.392   0.041  0.00  0.00    +0.034 C 
ATOM     15  C   UNL     1       0.043  -0.132   0.001  0.00  0.00    +0.118 C 
BRANCH  15  16
ATOM     16  C   UNL     1       0.832  -0.730   1.137  0.00  0.00    +0.083 A 
ATOM     17  C   UNL     1       2.201  -1.016   1.123  0.00  0.00    +0.046 A 
ATOM     18  C   UNL     1       2.529  -1.540   2.327  0.00  0.00    +0.105 A 
ATOM     19  N   UNL     1       1.408  -1.584   3.076  0.00  0.00    -0.284 N 
ATOM     20  H   UNL     1       1.342  -1.914   3.986  0.00  0.00    +0.188 HD
ATOM     21  N   UNL     1       0.357  -1.065   2.309  0.00  0.00    -0.177 NA
ENDBRANCH  15  16
ENDBRANCH  12  15
ENDBRANCH   1  12
TORSDOF 3
