REMARK  Name = ZINC36598247
REMARK  14 active torsions:
REMARK  status: ('A' for Active; 'I' for Inactive)
REMARK    1  A    between atoms: C_1  and  C_2
REMARK    2  A    between atoms: C_5  and  S_8
REMARK    3  A    between atoms: S_8  and  C_11
REMARK    4  A    between atoms: C_11  and  N_12
REMARK    5  A    between atoms: C_13  and  C_15
REMARK    6  A    between atoms: C_15  and  C_17
REMARK    7  A    between atoms: C_15  and  N_24
REMARK    8  A    between atoms: C_22  and  O_23
REMARK    9  A    between atoms: N_24  and  C_25
REMARK   10  A    between atoms: C_25  and  C_26
REMARK   11  A    between atoms: C_29  and  C_31
REMARK   12  A    between atoms: C_32  and  C_34
REMARK   13  A    between atoms: C_34  and  C_35
REMARK   14  A    between atoms: C_35  and  S_36
REMARK                            x       y       z     vdW  Elec       q    Type
REMARK                         _______ _______ _______ _____ _____    ______ ____
ROOT
ATOM      1  C   UNL     1       2.847  -4.887   3.721  0.00  0.00    +0.196 C 
ENDROOT
BRANCH   1   2
ATOM      2  C   UNL     1       4.116  -4.136   3.407  0.00  0.00    +0.023 A 
ATOM      3  C   UNL     1       5.323  -4.806   3.362  0.00  0.00    +0.009 A 
ATOM      4  C   UNL     1       6.487  -4.118   3.074  0.00  0.00    +0.001 A 
ATOM      5  C   UNL     1       6.446  -2.757   2.831  0.00  0.00    +0.004 A 
ATOM      6  C   UNL     1       5.241  -2.082   2.875  0.00  0.00    +0.046 A 
ATOM      7  C   UNL     1       4.071  -2.772   3.158  0.00  0.00    +0.122 A 
BRANCH   7   8
ATOM      8  O   UNL     1       2.884  -2.111   3.196  0.00  0.00    -0.506 OA
ATOM      9  H   UNL     1       2.658  -1.759   4.068  0.00  0.00    +0.292 HD
ENDBRANCH   7   8
ENDBRANCH   1   2
BRANCH   1  11
ATOM     10  N   UNL     1       0.914  -4.492   2.229  0.00  0.00    -0.294 N 
ATOM     11  C   UNL     1       2.080  -5.132   2.447  0.00  0.00    +0.239 C 
ATOM     12  O   UNL     1       2.512  -5.905   1.619  0.00  0.00    -0.273 OA
ATOM     13  H   UNL     1       0.569  -3.873   2.892  0.00  0.00    +0.150 HD
BRANCH  10  14
ATOM     14  C   UNL     1       0.169  -4.730   0.991  0.00  0.00    +0.278 C 
BRANCH  14  15
ATOM     15  S   UNL     1      -1.086  -6.008   1.277  0.00  0.00    +0.013 S 
ATOM     16  O   UNL     1      -0.511  -7.114   1.960  0.00  0.00    -0.168 OA
ATOM     17  O   UNL     1      -1.860  -6.206   0.102  0.00  0.00    -0.168 OA
BRANCH  15  22
ATOM     18  C   UNL     1      -4.915  -3.566   5.249  0.00  0.00    +0.044 C 
ATOM     19  C   UNL     1      -3.959  -4.176   4.257  0.00  0.00    -0.050 A 
ATOM     20  C   UNL     1      -4.173  -4.015   2.901  0.00  0.00    +0.005 A 
ATOM     21  C   UNL     1      -3.296  -4.574   1.991  0.00  0.00    +0.027 A 
ATOM     22  C   UNL     1      -2.204  -5.295   2.437  0.00  0.00    +0.090 A 
ATOM     23  C   UNL     1      -1.988  -5.455   3.793  0.00  0.00    +0.027 A 
ATOM     24  C   UNL     1      -2.863  -4.892   4.703  0.00  0.00    +0.005 A 
ENDBRANCH  15  22
ENDBRANCH  14  15
ENDBRANCH  10  14
ENDBRANCH   1  11
BRANCH   1  25
ATOM     25  N   UNL     1       3.181  -6.170   4.345  0.00  0.00    -0.278 N 
ATOM     26  C   UNL     1       3.939  -6.201   5.459  0.00  0.00    +0.218 C 
ATOM     27  O   UNL     1       4.312  -7.263   5.909  0.00  0.00    -0.276 OA
BRANCH  25  28
ATOM     28  C   UNL     1       2.691  -7.419   3.758  0.00  0.00    +0.183 C 
BRANCH  28  29
ATOM     29  C   UNL     1       3.772  -8.032   2.906  0.00  0.00    +0.122 A 
ATOM     30  C   UNL     1       4.702  -8.908   3.326  0.00  0.00    +0.046 A 
ATOM     31  C   UNL     1       5.508  -9.218   2.206  0.00  0.00    +0.045 A 
ATOM     32  C   UNL     1       5.022  -8.513   1.169  0.00  0.00    +0.102 A 
ATOM     33  O   UNL     1       3.967  -7.801   1.597  0.00  0.00    -0.463 OA
ATOM     34  C   UNL     1       5.565  -8.525  -0.237  0.00  0.00    +0.086 C 
ENDBRANCH  28  29
ENDBRANCH  25  28
BRANCH  26  35
ATOM     35  C   UNL     1       4.324  -4.915   6.144  0.00  0.00    +0.106 C 
BRANCH  35  36
ATOM     36  C   UNL     1       5.205  -5.227   7.355  0.00  0.00    +0.075 C 
BRANCH  36  37
ATOM     37  S   UNL     1       5.668  -3.679   8.181  0.00  0.00    -0.178 S 
ATOM     38  H   UNL     1       6.431  -4.077   9.214  0.00  0.00    +0.102 HD
ENDBRANCH  36  37
ENDBRANCH  35  36
ENDBRANCH  26  35
ENDBRANCH   1  25
TORSDOF 12
