REMARK  Name = ZINC14548026
REMARK  10 active torsions:
REMARK  status: ('A' for Active; 'I' for Inactive)
REMARK    1  A    between atoms: C_1  and  C_2
REMARK    2  A    between atoms: C_2  and  C_3
REMARK    3  A    between atoms: C_3  and  N_4
REMARK    4  A    between atoms: N_4  and  C_5
REMARK    5  A    between atoms: N_4  and  S_8
REMARK    6  A    between atoms: C_5  and  C_6
REMARK    7  A    between atoms: C_6  and  C_7
REMARK    8  A    between atoms: S_8  and  C_11
REMARK    9  A    between atoms: C_24  and  C_27
REMARK   10  A    between atoms: C_36  and  O_37
REMARK                            x       y       z     vdW  Elec       q    Type
REMARK                         _______ _______ _______ _____ _____    ______ ____
ROOT
ATOM      1  C   UNL     1      -5.414   2.399   2.004  0.00  0.00    +0.106 A 
ATOM      2  C   UNL     1      -5.798   2.337   0.677  0.00  0.00    +0.030 A 
ATOM      3  C   UNL     1      -7.076   1.938   0.343  0.00  0.00    +0.025 A 
ATOM      4  C   UNL     1      -7.990   1.607   1.336  0.00  0.00    +0.031 A 
ATOM      5  C   UNL     1      -7.600   1.690   2.677  0.00  0.00    -0.018 A 
ATOM      6  C   UNL     1      -6.317   2.078   3.000  0.00  0.00    +0.034 A 
ATOM      7  C   UNL     1      -8.614   1.369   3.704  0.00  0.00    +0.049 C 
ATOM      8  C   UNL     1      -8.235   0.879   5.055  0.00  0.00    -0.023 C 
ATOM      9  C   UNL     1      -9.190   0.069   5.496  0.00  0.00    -0.030 C 
ATOM     10  C   UNL     1     -10.285  -0.073   4.438  0.00  0.00    +0.033 C 
ATOM     11  C   UNL     1      -9.508   0.220   3.148  0.00  0.00    +0.029 C 
ATOM     12  C   UNL     1     -10.283   0.832   1.995  0.00  0.00    +0.109 C 
ATOM     13  N   UNL     1      -9.272   1.177   0.973  0.00  0.00    -0.336 N 
ATOM     14  H   UNL     1      -9.500   1.104   0.033  0.00  0.00    +0.147 HD
ENDROOT
BRANCH  12  15
ATOM     15  C   UNL     1     -11.266  -0.167   1.439  0.00  0.00    +0.022 A 
ATOM     16  C   UNL     1     -12.643   0.001   1.657  0.00  0.00    -0.009 A 
ATOM     17  C   UNL     1     -13.137   1.094   2.391  0.00  0.00    +0.009 A 
ATOM     18  C   UNL     1     -14.478   1.225   2.583  0.00  0.00    +0.001 A 
ATOM     19  C   UNL     1     -15.372   0.291   2.062  0.00  0.00    +0.001 A 
ATOM     20  C   UNL     1     -14.931  -0.773   1.337  0.00  0.00    +0.008 A 
ATOM     21  C   UNL     1     -13.553  -0.946   1.123  0.00  0.00    -0.017 A 
ATOM     22  C   UNL     1     -13.060  -2.042   0.394  0.00  0.00    +0.012 A 
ATOM     23  C   UNL     1     -11.720  -2.179   0.205  0.00  0.00    +0.046 A 
ATOM     24  C   UNL     1     -10.821  -1.243   0.726  0.00  0.00    +0.122 A 
BRANCH  24  25
ATOM     25  O   UNL     1      -9.488  -1.407   0.521  0.00  0.00    -0.506 OA
ATOM     26  H   UNL     1      -9.045  -1.925   1.207  0.00  0.00    +0.292 HD
ENDBRANCH  24  25
ENDBRANCH  12  15
BRANCH   1  27
ATOM     27  S   UNL     1      -3.776   2.894   2.425  0.00  0.00    +0.061 S 
ATOM     28  O   UNL     1      -3.834   3.401   3.751  0.00  0.00    -0.153 OA
ATOM     29  O   UNL     1      -3.292   3.665   1.334  0.00  0.00    -0.153 OA
BRANCH  27  30
ATOM     30  N   UNL     1      -2.850   1.522   2.483  0.00  0.00    -0.177 NA
BRANCH  30  31
ATOM     31  C   UNL     1      -2.164   1.050   1.278  0.00  0.00    +0.109 C 
BRANCH  31  33
ATOM     32  C   UNL     1      -0.013   1.086   0.008  0.00  0.00    +0.005 C 
ATOM     33  C   UNL     1      -0.729   1.579   1.267  0.00  0.00    +0.014 C 
ENDBRANCH  31  33
ENDBRANCH  30  31
BRANCH  30  34
ATOM     34  C   UNL     1      -2.716   0.781   3.740  0.00  0.00    +0.109 C 
BRANCH  34  35
ATOM     35  C   UNL     1      -1.446   1.231   4.464  0.00  0.00    +0.014 C 
ATOM     36  C   UNL     1      -1.306   0.457   5.777  0.00  0.00    +0.005 C 
ENDBRANCH  34  35
ENDBRANCH  30  34
ENDBRANCH  27  30
ENDBRANCH   1  27
TORSDOF 8
