REMARK  Name = ZINC64002416
REMARK  10 active torsions:
REMARK  status: ('A' for Active; 'I' for Inactive)
REMARK    1  A    between atoms: C_1  and  O_2
REMARK    2  A    between atoms: O_2  and  C_3
REMARK    3  A    between atoms: C_5  and  C_13
REMARK    4  A    between atoms: C_7  and  O_11
REMARK    5  A    between atoms: C_8  and  O_9
REMARK    6  A    between atoms: O_9  and  C_10
REMARK    7  A    between atoms: O_11  and  C_12
REMARK    8  A    between atoms: C_13  and  N_14
REMARK    9  A    between atoms: C_27  and  C_29
REMARK   10  A    between atoms: C_33  and  O_35
REMARK                            x       y       z     vdW  Elec       q    Type
REMARK                         _______ _______ _______ _____ _____    ______ ____
ROOT
ATOM      1  N   UNL     1       1.471   0.583   5.260  0.00  0.00    -0.289 NA
ATOM      2  C   UNL     1       1.050  -0.674   5.885  0.00  0.00    +0.090 C 
ATOM      3  C   UNL     1      -0.167  -0.434   6.797  0.00  0.00    +0.049 C 
ATOM      4  C   UNL     1       0.196   0.731   7.684  0.00  0.00    -0.035 C 
ATOM      5  C   UNL     1       0.127   0.910   8.995  0.00  0.00    -0.001 A 
ATOM      6  C   UNL     1      -0.457   0.091  10.069  0.00  0.00    +0.010 A 
ATOM      7  C   UNL     1      -0.322   0.574  11.332  0.00  0.00    +0.001 A 
ATOM      8  C   UNL     1       0.326   1.776  11.632  0.00  0.00    +0.002 A 
ATOM      9  C   UNL     1       0.882   2.598  10.707  0.00  0.00    +0.026 A 
ATOM     10  C   UNL     1       0.796   2.202   9.340  0.00  0.00    +0.043 A 
ATOM     11  N   UNL     1       1.209   2.803   8.263  0.00  0.00    -0.376 N 
ATOM     12  C   UNL     1       0.791   2.013   7.107  0.00  0.00    +0.128 C 
ATOM     13  C   UNL     1       1.964   1.578   6.227  0.00  0.00    +0.114 C 
ATOM     14  H   UNL     1       1.709   3.634   8.232  0.00  0.00    +0.160 HD
ENDROOT
BRANCH  13  15
ATOM     15  C   UNL     1       2.517   2.771   5.491  0.00  0.00    -0.025 A 
ATOM     16  C   UNL     1       1.866   3.254   4.370  0.00  0.00    +0.005 A 
ATOM     17  C   UNL     1       2.370   4.348   3.693  0.00  0.00    +0.004 A 
ATOM     18  C   UNL     1       3.527   4.962   4.134  0.00  0.00    +0.045 A 
ATOM     19  C   UNL     1       4.181   4.480   5.258  0.00  0.00    +0.117 A 
ATOM     20  C   UNL     1       3.670   3.385   5.939  0.00  0.00    +0.050 A 
BRANCH  19  21
ATOM     21  O   UNL     1       5.319   5.082   5.694  0.00  0.00    -0.507 OA
ATOM     22  H   UNL     1       5.168   5.794   6.330  0.00  0.00    +0.292 HD
ENDBRANCH  19  21
ENDBRANCH  13  15
BRANCH   1  23
ATOM     23  C   UNL     1       2.462   0.340   4.203  0.00  0.00    +0.120 C 
BRANCH  23  26
ATOM     24  C   UNL     1       0.626  -0.619   1.042  0.00  0.00    +0.165 A 
ATOM     25  C   UNL     1       1.202   0.138   2.051  0.00  0.00    +0.054 A 
ATOM     26  C   UNL     1       1.837  -0.486   3.109  0.00  0.00    -0.026 A 
ATOM     27  C   UNL     1       1.900  -1.866   3.166  0.00  0.00    +0.054 A 
ATOM     28  C   UNL     1       1.327  -2.630   2.160  0.00  0.00    +0.165 A 
ATOM     29  C   UNL     1       0.683  -2.006   1.098  0.00  0.00    +0.204 A 
BRANCH  24  31
ATOM     30  C   UNL     1      -0.017   1.425   0.010  0.00  0.00    +0.277 C 
ATOM     31  O   UNL     1       0.002  -0.004   0.002  0.00  0.00    -0.491 OA
ENDBRANCH  24  31
BRANCH  29  32
ATOM     32  O   UNL     1       0.114  -2.753   0.113  0.00  0.00    -0.488 OA
ATOM     33  C   UNL     1       0.939  -3.090  -1.004  0.00  0.00    +0.277 C 
ENDBRANCH  29  32
BRANCH  28  34
ATOM     34  O   UNL     1       1.390  -3.987   2.217  0.00  0.00    -0.491 OA
ATOM     35  C   UNL     1       2.062  -4.559   3.340  0.00  0.00    +0.277 C 
ENDBRANCH  28  34
ENDBRANCH  23  26
ENDBRANCH   1  23
TORSDOF 7
