REMARK  Name = ZINC39982920
REMARK  8 active torsions:
REMARK  status: ('A' for Active; 'I' for Inactive)
REMARK    1  A    between atoms: C_1  and  C_2
REMARK    2  A    between atoms: C_4  and  O_22
REMARK    3  A    between atoms: C_6  and  O_21
REMARK    4  A    between atoms: C_7  and  C_8
REMARK    5  A    between atoms: C_10  and  C_14
REMARK    6  A    between atoms: C_18  and  C_20
REMARK    7  A    between atoms: O_22  and  C_23
REMARK    8  A    between atoms: C_23  and  C_24
REMARK                            x       y       z     vdW  Elec       q    Type
REMARK                         _______ _______ _______ _____ _____    ______ ____
ROOT
ATOM      1  C   UNL     1      -0.277   1.487   0.042  0.00  0.00    +0.044 C 
ATOM      2  C   UNL     1      -0.122  -0.011   0.017  0.00  0.00    -0.038 A 
ATOM      3  C   UNL     1      -0.223  -0.696  -1.179  0.00  0.00    +0.049 A 
ATOM      4  C   UNL     1      -0.081  -2.076  -1.205  0.00  0.00    +0.125 A 
ATOM      5  C   UNL     1       0.164  -2.768  -0.029  0.00  0.00    +0.091 A 
ATOM      6  C   UNL     1       0.265  -2.079   1.170  0.00  0.00    +0.126 A 
ATOM      7  C   UNL     1       0.127  -0.699   1.190  0.00  0.00    +0.025 A 
ENDROOT
BRANCH   7   8
ATOM      8  C   UNL     1       0.243   0.051   2.492  0.00  0.00    +0.162 C 
ATOM      9  C   UNL     1       1.666  -0.007   3.020  0.00  0.00    +0.003 C 
ATOM     10  C   UNL     1       1.548  -0.637   4.191  0.00  0.00    +0.136 C 
ATOM     11  N   UNL     1       0.259  -0.961   4.434  0.00  0.00    -0.186 NA
ATOM     12  N   UNL     1      -0.534  -0.617   3.549  0.00  0.00    -0.297 N 
ATOM     13  H   UNL     1      -1.494  -0.761   3.549  0.00  0.00    +0.183 HD
BRANCH   9  14
ATOM     14  C   UNL     1       2.920   0.522   2.372  0.00  0.00    +0.146 C 
ATOM     15  C   UNL     1       2.848   2.072   2.313  0.00  0.00    +0.107 C 
ATOM     16  S   UNL     1       3.676   2.314   0.683  0.00  0.00    -0.108 S 
ATOM     17  C   UNL     1       3.422   0.670   0.034  0.00  0.00    +0.066 C 
ATOM     18  N   UNL     1       3.043  -0.044   1.041  0.00  0.00    -0.273 NA
ATOM     19  C   UNL     1       3.609   0.213  -1.389  0.00  0.00    +0.073 C 
ENDBRANCH   9  14
ENDBRANCH   7   8
BRANCH   6  20
ATOM     20  O   UNL     1       0.504  -2.756   2.325  0.00  0.00    -0.506 OA
ATOM     21  H   UNL     1       1.443  -2.860   2.532  0.00  0.00    +0.292 HD
ENDBRANCH   6  20
BRANCH   4  22
ATOM     22  O   UNL     1      -0.181  -2.748  -2.381  0.00  0.00    -0.487 OA
BRANCH  22  23
ATOM     23  C   UNL     1      -0.024  -4.167  -2.333  0.00  0.00    +0.264 C 
BRANCH  23  24
ATOM     24  C   UNL     1      -0.166  -4.736  -3.721  0.00  0.00    -0.010 A 
ATOM     25  C   UNL     1      -1.411  -5.116  -4.188  0.00  0.00    +0.010 A 
ATOM     26  C   UNL     1      -1.542  -5.638  -5.461  0.00  0.00    +0.039 A 
ATOM     27  C   UNL     1      -0.427  -5.779  -6.269  0.00  0.00    +0.123 A 
ATOM     28  C   UNL     1       0.819  -5.398  -5.801  0.00  0.00    +0.039 A 
ATOM     29  C   UNL     1       0.947  -4.872  -4.529  0.00  0.00    +0.010 A 
ATOM     30  F   UNL     1      -0.555  -6.289  -7.514  0.00  0.00    -0.205 F 
ENDBRANCH  23  24
ENDBRANCH  22  23
ENDBRANCH   4  22
TORSDOF 6
