REMARK  Name = ZINC43014972
REMARK  9 active torsions:
REMARK  status: ('A' for Active; 'I' for Inactive)
REMARK    1  A    between atoms: C_1  and  C_2
REMARK    2  A    between atoms: C_3  and  C_9
REMARK    3  A    between atoms: C_6  and  N_8
REMARK    4  A    between atoms: C_9  and  N_10
REMARK    5  A    between atoms: C_11  and  C_13
REMARK    6  A    between atoms: C_13  and  N_14
REMARK    7  A    between atoms: C_23  and  N_27
REMARK    8  A    between atoms: N_27  and  C_28
REMARK    9  A    between atoms: C_28  and  C_29
REMARK                            x       y       z     vdW  Elec       q    Type
REMARK                         _______ _______ _______ _____ _____    ______ ____
ROOT
ATOM      1  N   UNL     1       2.928   2.497  -5.502  0.00  0.00    -0.263 N 
ATOM      2  C   UNL     1       3.139   1.814  -6.709  0.00  0.00    +0.050 A 
ATOM      3  C   UNL     1       2.409   0.677  -7.015  0.00  0.00    +0.024 A 
ATOM      4  C   UNL     1       2.631   0.021  -8.213  0.00  0.00    +0.002 A 
ATOM      5  C   UNL     1       3.577   0.495  -9.104  0.00  0.00    +0.001 A 
ATOM      6  C   UNL     1       4.311   1.629  -8.805  0.00  0.00    +0.016 A 
ATOM      7  C   UNL     1       4.093   2.289  -7.606  0.00  0.00    +0.029 A 
ATOM      8  S   UNL     1       5.019   3.733  -7.194  0.00  0.00    -0.125 S 
ATOM      9  C   UNL     1       3.796   5.075  -7.370  0.00  0.00    +0.068 C 
ATOM     10  C   UNL     1       2.470   4.569  -6.776  0.00  0.00    +0.028 C 
ATOM     11  C   UNL     1       2.714   3.818  -5.501  0.00  0.00    +0.207 C 
ATOM     12  O   UNL     1       2.721   4.422  -4.449  0.00  0.00    -0.277 OA
ENDROOT
BRANCH  10  13
ATOM     13  N   UNL     1       1.815   3.675  -7.740  0.00  0.00    +0.394 N 
ATOM     14  H   UNL     1       2.478   2.987  -8.065  0.00  0.00    -0.084 HD
ATOM     15  H   UNL     1       1.039   3.210  -7.294  0.00  0.00    -0.084 HD
BRANCH  13  16
ATOM     16  C   UNL     1       1.326   4.460  -8.881  0.00  0.00    +0.046 C 
BRANCH  16  17
ATOM     17  C   UNL     1       0.654   3.543  -9.871  0.00  0.00    +0.340 C 
ATOM     18  O   UNL     1       0.590   2.346  -9.646  0.00  0.00    -0.249 OA
ATOM     19  O   UNL     1       0.175   3.998 -10.896  0.00  0.00    -0.249 OA
ENDBRANCH  16  17
ENDBRANCH  13  16
ENDBRANCH  10  13
BRANCH   1  20
ATOM     20  C   UNL     1       2.936   1.759  -4.236  0.00  0.00    +0.209 C 
BRANCH  20  22
ATOM     21  N   UNL     1       1.306   0.574  -2.801  0.00  0.00    -0.310 N 
ATOM     22  C   UNL     1       1.542   1.280  -3.925  0.00  0.00    +0.231 C 
ATOM     23  O   UNL     1       0.631   1.530  -4.686  0.00  0.00    -0.274 OA
ATOM     24  H   UNL     1       2.035   0.374  -2.193  0.00  0.00    +0.149 HD
BRANCH  21  25
ATOM     25  C   UNL     1      -0.049   0.108  -2.499  0.00  0.00    +0.141 C 
BRANCH  25  28
ATOM     26  C   UNL     1      -0.060   1.534   0.009  0.00  0.00    +0.063 C 
ATOM     27  C   UNL     1      -0.046   0.028   0.005  0.00  0.00    +0.019 A 
ATOM     28  C   UNL     1      -0.041  -0.651  -1.197  0.00  0.00    -0.011 A 
ATOM     29  C   UNL     1      -0.028  -2.039  -1.194  0.00  0.00    +0.010 A 
ATOM     30  C   UNL     1      -0.021  -2.697   0.022  0.00  0.00    +0.041 A 
ATOM     31  C   UNL     1      -0.027  -1.950   1.196  0.00  0.00    +0.094 A 
ATOM     32  N   UNL     1      -0.034  -0.626   1.151  0.00  0.00    -0.347 N 
ATOM     33  H   UNL     1      -0.034  -0.125   1.982  0.00  0.00    +0.167 HD
BRANCH  31  34
ATOM     34  N   UNL     1      -0.021  -2.598   2.425  0.00  0.00    -0.345 N 
ATOM     35  H   UNL     1      -0.013  -3.567   2.463  0.00  0.00    +0.144 HD
ATOM     36  H   UNL     1      -0.025  -2.081   3.246  0.00  0.00    +0.144 HD
ENDBRANCH  31  34
ENDBRANCH  25  28
ENDBRANCH  21  25
ENDBRANCH  20  22
ENDBRANCH   1  20
TORSDOF 8
