REMARK  Name = ZINC48126922
REMARK  9 active torsions:
REMARK  status: ('A' for Active; 'I' for Inactive)
REMARK    1  A    between atoms: C_1  and  C_2
REMARK    2  A    between atoms: C_2  and  O_3
REMARK    3  A    between atoms: O_3  and  C_4
REMARK    4  A    between atoms: C_9  and  N_10
REMARK    5  A    between atoms: N_13  and  C_14
REMARK    6  A    between atoms: C_14  and  C_16
REMARK    7  A    between atoms: C_14  and  C_17
REMARK    8  A    between atoms: C_20  and  S_23
REMARK    9  A    between atoms: S_23  and  N_26
REMARK                            x       y       z     vdW  Elec       q    Type
REMARK                         _______ _______ _______ _____ _____    ______ ____
ROOT
ATOM      1  N   UNL     1       2.018  -1.503   3.374  0.00  0.00    -0.266 N 
ATOM      2  C   UNL     1       2.568  -2.017   4.492  0.00  0.00    +0.304 C 
ATOM      3  O   UNL     1       2.665  -3.221   4.624  0.00  0.00    -0.252 OA
ATOM      4  N   UNL     1       3.011  -1.195   5.465  0.00  0.00    -0.293 N 
ATOM      5  H   UNL     1       2.014  -0.543   3.232  0.00  0.00    +0.156 HD
ATOM      6  H   UNL     1       2.933  -0.233   5.359  0.00  0.00    +0.151 HD
ENDROOT
BRANCH   1  12
ATOM      7  C   UNL     1       1.349  -1.945   1.090  0.00  0.00    +0.142 A 
ATOM      8  C   UNL     1       0.794  -2.794   0.146  0.00  0.00    +0.049 A 
ATOM      9  C   UNL     1       0.336  -4.043   0.523  0.00  0.00    +0.024 A 
ATOM     10  C   UNL     1       0.432  -4.449   1.842  0.00  0.00    +0.043 A 
ATOM     11  C   UNL     1       0.985  -3.608   2.790  0.00  0.00    +0.047 A 
ATOM     12  C   UNL     1       1.451  -2.356   2.417  0.00  0.00    +0.078 A 
ATOM     13 CL   UNL     1      -0.144  -6.019   2.309  0.00  0.00    -0.083 Cl
BRANCH   7  14
ATOM     14  O   UNL     1       1.799  -0.716   0.720  0.00  0.00    -0.490 OA
BRANCH  14  16
ATOM     15  C   UNL     1       2.219   1.045  -0.880  0.00  0.00    +0.048 C 
ATOM     16  C   UNL     1       1.662  -0.362  -0.657  0.00  0.00    +0.226 C 
ENDBRANCH  14  16
ENDBRANCH   7  14
ENDBRANCH   1  12
BRANCH   4  17
ATOM     17  C   UNL     1       3.609  -1.753   6.680  0.00  0.00    +0.102 C 
ATOM     18  C   UNL     1       5.095  -2.027   6.438  0.00  0.00    +0.033 C 
BRANCH  17  19
ATOM     19  C   UNL     1       3.457  -0.769   7.812  0.00  0.00    -0.027 A 
ATOM     20  C   UNL     1       3.628   0.583   7.580  0.00  0.00    +0.007 A 
ATOM     21  C   UNL     1       3.489   1.485   8.618  0.00  0.00    +0.029 A 
ATOM     22  C   UNL     1       3.179   1.035   9.888  0.00  0.00    +0.105 A 
ATOM     23  C   UNL     1       3.007  -0.317  10.119  0.00  0.00    +0.029 A 
ATOM     24  C   UNL     1       3.142  -1.219   9.080  0.00  0.00    +0.007 A 
BRANCH  22  25
ATOM     25  S   UNL     1       3.003   2.184  11.212  0.00  0.00    +0.056 S 
ATOM     26  O   UNL     1       3.248   1.463  12.411  0.00  0.00    -0.153 OA
ATOM     27  O   UNL     1       3.750   3.338  10.850  0.00  0.00    -0.153 OA
BRANCH  25  28
ATOM     28  N   UNL     1       1.412   2.644  11.253  0.00  0.00    -0.204 NA
ATOM     29  H   UNL     1       1.002   2.897  12.095  0.00  0.00    +0.144 HD
ATOM     30  H   UNL     1       0.891   2.660  10.435  0.00  0.00    +0.144 HD
ENDBRANCH  25  28
ENDBRANCH  22  25
ENDBRANCH  17  19
ENDBRANCH   4  17
TORSDOF 7
