REMARK  Name = ZINC38653730
REMARK  12 active torsions:
REMARK  status: ('A' for Active; 'I' for Inactive)
REMARK    1  A    between atoms: C_1  and  C_2
REMARK    2  A    between atoms: C_2  and  C_3
REMARK    3  A    between atoms: C_2  and  C_4
REMARK    4  A    between atoms: C_2  and  C_5
REMARK    5  A    between atoms: C_8  and  C_11
REMARK    6  A    between atoms: C_12  and  C_13
REMARK    7  A    between atoms: C_13  and  O_15
REMARK    8  A    between atoms: O_15  and  C_16
REMARK    9  A    between atoms: C_23  and  N_38
REMARK   10  A    between atoms: C_24  and  C_36
REMARK   11  A    between atoms: C_25  and  C_27
REMARK   12  A    between atoms: C_31  and  N_33
REMARK                            x       y       z     vdW  Elec       q    Type
REMARK                         _______ _______ _______ _____ _____    ______ ____
ROOT
ATOM      1  C   UNL     1       6.640  -2.093  -7.457  0.00  0.00    +0.135 A 
ATOM      2  C   UNL     1       6.000  -2.857  -8.423  0.00  0.00    +0.047 A 
ATOM      3  C   UNL     1       6.702  -3.305  -9.525  0.00  0.00    +0.012 A 
ATOM      4  C   UNL     1       8.042  -2.995  -9.672  0.00  0.00    +0.008 A 
ATOM      5  C   UNL     1       8.686  -2.232  -8.710  0.00  0.00    +0.138 A 
ATOM      6  C   UNL     1       7.981  -1.776  -7.604  0.00  0.00    +0.093 A 
ATOM      7  O   UNL     1       9.999  -1.918  -8.836  0.00  0.00    -0.441 OA
ATOM      8  C   UNL     1      10.595  -1.998 -10.038  0.00  0.00    +0.199 C 
ATOM      9  C   UNL     1      10.072  -2.728 -11.050  0.00  0.00    +0.098 C 
ATOM     10  C   UNL     1       8.789  -3.494 -10.880  0.00  0.00    +0.098 C 
ENDROOT
BRANCH  10  11
ATOM     11  C   UNL     1       9.101  -4.957 -10.706  0.00  0.00    -0.033 A 
ATOM     12  C   UNL     1       9.867  -5.378  -9.634  0.00  0.00    +0.005 A 
ATOM     13  C   UNL     1      10.153  -6.721  -9.474  0.00  0.00    +0.003 A 
ATOM     14  C   UNL     1       9.672  -7.644 -10.385  0.00  0.00    +0.033 A 
ATOM     15  C   UNL     1       8.906  -7.223 -11.456  0.00  0.00    +0.126 A 
ATOM     16  C   UNL     1       8.616  -5.880 -11.614  0.00  0.00    +0.037 A 
BRANCH  15  17
ATOM     17  N   UNL     1       8.392  -8.210 -12.431  0.00  0.00    +0.056 N 
ATOM     18  O   UNL     1       8.643  -9.385 -12.292  0.00  0.00    -0.126 OA
ATOM     19  O   UNL     1       7.721  -7.843 -13.368  0.00  0.00    -0.126 OA
ENDBRANCH  15  17
ENDBRANCH  10  11
BRANCH   8  20
ATOM     20  N   UNL     1      11.769  -1.318 -10.245  0.00  0.00    -0.328 N 
ATOM     21  H   UNL     1      12.157  -0.790  -9.530  0.00  0.00    +0.145 HD
ATOM     22  H   UNL     1      12.212  -1.365 -11.107  0.00  0.00    +0.145 HD
ENDBRANCH   8  20
BRANCH   9  23
ATOM     23  C   UNL     1      10.754  -2.773 -12.309  0.00  0.00    +0.101 C 
ATOM     24  N   UNL     1      11.294  -2.809 -13.307  0.00  0.00    -0.191 NA
ENDBRANCH   9  23
BRANCH   1  25
ATOM     25  O   UNL     1       5.952  -1.651  -6.372  0.00  0.00    -0.423 OA
BRANCH  25  26
ATOM     26  C   UNL     1       5.699  -2.531  -5.381  0.00  0.00    +0.337 C 
ATOM     27  O   UNL     1       6.005  -3.701  -5.514  0.00  0.00    -0.245 OA
BRANCH  26  29
ATOM     28  C   UNL     1       4.804  -2.959  -3.157  0.00  0.00    +0.015 C 
ATOM     29  C   UNL     1       5.057  -2.079  -4.148  0.00  0.00    +0.092 C 
BRANCH  28  33
ATOM     30  C   UNL     1       2.943  -1.647   0.422  0.00  0.00    -0.042 A 
ATOM     31  C   UNL     1       3.289  -2.979   0.275  0.00  0.00    +0.005 A 
ATOM     32  C   UNL     1       3.895  -3.413  -0.886  0.00  0.00    +0.008 A 
ATOM     33  C   UNL     1       4.158  -2.504  -1.915  0.00  0.00    -0.025 A 
ATOM     34  C   UNL     1       3.805  -1.160  -1.759  0.00  0.00    +0.008 A 
ATOM     35  C   UNL     1       3.196  -0.742  -0.595  0.00  0.00    +0.005 A 
BRANCH  30  37
ATOM     36  C   UNL     1       0.908  -0.594   1.368  0.00  0.00    +0.015 C 
ATOM     37  C   UNL     1       2.283  -1.181   1.694  0.00  0.00    -0.013 C 
ATOM     38  C   UNL     1       3.151  -0.109   2.356  0.00  0.00    +0.015 C 
ATOM     39  C   UNL     1       2.119  -2.366   2.647  0.00  0.00    +0.015 C 
ENDBRANCH  30  37
ENDBRANCH  28  33
ENDBRANCH  26  29
ENDBRANCH  25  26
ENDBRANCH   1  25
TORSDOF 9
