REMARK  Name = ZINC14642157
REMARK  8 active torsions:
REMARK  status: ('A' for Active; 'I' for Inactive)
REMARK    1  A    between atoms: C_4  and  C_7
REMARK    2  A    between atoms: C_10  and  O_14
REMARK    3  A    between atoms: O_14  and  C_15
REMARK    4  A    between atoms: C_15  and  C_16
REMARK    5  A    between atoms: N_18  and  N_19
REMARK    6  A    between atoms: C_20  and  C_22
REMARK    7  A    between atoms: C_22  and  C_23
REMARK    8  A    between atoms: C_22  and  C_29
REMARK                            x       y       z     vdW  Elec       q    Type
REMARK                         _______ _______ _______ _____ _____    ______ ____
ROOT
ATOM      1  C   UNL     1      -0.301   0.179   4.843  0.00  0.00    +0.267 C 
ATOM      2  O   UNL     1       0.774   0.739   4.863  0.00  0.00    -0.271 OA
ATOM      3  N   UNL     1      -0.848  -0.188   3.667  0.00  0.00    -0.232 N 
ATOM      4  H   UNL     1      -1.708  -0.636   3.652  0.00  0.00    +0.173 HD
ENDROOT
BRANCH   3   5
ATOM      5  N   UNL     1      -0.175   0.077   2.468  0.00  0.00    -0.234 N 
ATOM      6  C   UNL     1      -0.722  -0.290   1.292  0.00  0.00    +0.241 C 
ATOM      7  O   UNL     1      -1.798  -0.850   1.273  0.00  0.00    -0.273 OA
ATOM      8  H   UNL     1       0.685   0.525   2.483  0.00  0.00    +0.173 HD
BRANCH   6   9
ATOM      9  C   UNL     1       0.002  -0.004   0.002  0.00  0.00    +0.136 C 
BRANCH   9  10
ATOM     10  C   UNL     1       0.208   1.482  -0.140  0.00  0.00    -0.031 A 
ATOM     11  C   UNL     1      -0.864   2.344  -0.003  0.00  0.00    +0.005 A 
ATOM     12  C   UNL     1      -0.675   3.708  -0.129  0.00  0.00    +0.000 A 
ATOM     13  C   UNL     1       0.585   4.208  -0.402  0.00  0.00    +0.000 A 
ATOM     14  C   UNL     1       1.655   3.346  -0.545  0.00  0.00    +0.000 A 
ATOM     15  C   UNL     1       1.467   1.983  -0.414  0.00  0.00    +0.005 A 
ENDBRANCH   9  10
BRANCH   9  16
ATOM     16  C   UNL     1      -0.817  -0.511  -1.157  0.00  0.00    -0.031 A 
ATOM     17  C   UNL     1      -2.134  -0.116  -1.298  0.00  0.00    +0.005 A 
ATOM     18  C   UNL     1      -2.884  -0.577  -2.364  0.00  0.00    +0.000 A 
ATOM     19  C   UNL     1      -2.320  -1.442  -3.283  0.00  0.00    +0.000 A 
ATOM     20  C   UNL     1      -1.005  -1.842  -3.138  0.00  0.00    +0.000 A 
ATOM     21  C   UNL     1      -0.253  -1.376  -2.076  0.00  0.00    +0.005 A 
ENDBRANCH   9  16
ENDBRANCH   6   9
ENDBRANCH   3   5
BRANCH   1  22
ATOM     22  C   UNL     1      -1.025  -0.107   6.133  0.00  0.00    +0.326 C 
BRANCH  22  23
ATOM     23  O   UNL     1      -0.249   0.374   7.232  0.00  0.00    -0.482 OA
BRANCH  23  27
ATOM     24  C   UNL     1      -1.813  -0.172  11.015  0.00  0.00    -0.017 A 
ATOM     25  C   UNL     1      -2.517  -0.616   9.897  0.00  0.00    +0.012 A 
ATOM     26  C   UNL     1      -1.994  -0.427   8.634  0.00  0.00    +0.047 A 
ATOM     27  C   UNL     1      -0.763   0.195   8.477  0.00  0.00    +0.135 A 
ATOM     28  C   UNL     1      -0.059   0.638   9.589  0.00  0.00    +0.060 A 
ATOM     29  C   UNL     1      -0.580   0.457  10.854  0.00  0.00    +0.027 A 
ATOM     30 BR   UNL     1       1.614   1.492   9.369  0.00  0.00    -0.046 Br
BRANCH  24  34
ATOM     31  C   UNL     1      -3.425  -0.735  14.909  0.00  0.00    +0.000 A 
ATOM     32  C   UNL     1      -4.127  -1.177  13.802  0.00  0.00    +0.001 A 
ATOM     33  C   UNL     1      -3.609  -0.997  12.536  0.00  0.00    +0.008 A 
ATOM     34  C   UNL     1      -2.376  -0.368  12.373  0.00  0.00    -0.018 A 
ATOM     35  C   UNL     1      -1.670   0.070  13.492  0.00  0.00    +0.008 A 
ATOM     36  C   UNL     1      -2.201  -0.111  14.754  0.00  0.00    +0.001 A 
ENDBRANCH  24  34
ENDBRANCH  23  27
ENDBRANCH  22  23
ENDBRANCH   1  22
TORSDOF 8
