REMARK  Name = ZINC59286526
REMARK  9 active torsions:
REMARK  status: ('A' for Active; 'I' for Inactive)
REMARK    1  A    between atoms: C_1  and  C_2
REMARK    2  A    between atoms: C_5  and  C_36
REMARK    3  A    between atoms: N_8  and  C_10
REMARK    4  A    between atoms: C_10  and  C_11
REMARK    5  A    between atoms: C_16  and  C_17
REMARK    6  A    between atoms: C_17  and  N_18
REMARK    7  A    between atoms: C_19  and  C_21
REMARK    8  A    between atoms: N_24  and  C_27
REMARK    9  A    between atoms: C_32  and  N_33
REMARK                            x       y       z     vdW  Elec       q    Type
REMARK                         _______ _______ _______ _____ _____    ______ ____
ROOT
ATOM      1  N   UNL     1       0.945  -2.913   4.168  0.00  0.00    -0.311 N 
ATOM      2  C   UNL     1       0.586  -4.168   3.832  0.00  0.00    +0.216 C 
ATOM      3  O   UNL     1      -0.385  -4.354   3.130  0.00  0.00    -0.276 OA
ATOM      4  H   UNL     1       1.722  -2.765   4.729  0.00  0.00    +0.149 HD
ENDROOT
BRANCH   2   5
ATOM      5  C   UNL     1       1.392  -5.341   4.328  0.00  0.00    +0.078 C 
ATOM      6  C   UNL     1       2.833  -5.219   3.825  0.00  0.00    +0.031 C 
ATOM      7  C   UNL     1       3.657  -6.394   4.361  0.00  0.00    +0.106 C 
ATOM      8  N   UNL     1       2.991  -7.649   3.986  0.00  0.00    -0.328 N 
ATOM      9  C   UNL     1       1.578  -7.832   4.342  0.00  0.00    +0.106 C 
ATOM     10  C   UNL     1       0.776  -6.641   3.807  0.00  0.00    +0.031 C 
BRANCH   8  11
ATOM     11  C   UNL     1       3.689  -8.648   3.304  0.00  0.00    +0.060 A 
ATOM     12  C   UNL     1       3.687  -8.675   1.915  0.00  0.00    +0.025 A 
ATOM     13  C   UNL     1       4.378  -9.664   1.244  0.00  0.00    +0.002 A 
ATOM     14  C   UNL     1       5.071 -10.628   1.953  0.00  0.00    +0.002 A 
ATOM     15  C   UNL     1       5.075 -10.605   3.336  0.00  0.00    +0.034 A 
ATOM     16  C   UNL     1       4.390  -9.615   4.013  0.00  0.00    +0.147 A 
BRANCH  16  17
ATOM     17  N   UNL     1       4.400  -9.587   5.493  0.00  0.00    +0.058 N 
ATOM     18  O   UNL     1       5.068 -10.385   6.108  0.00  0.00    -0.126 OA
ATOM     19  O   UNL     1       3.739  -8.767   6.086  0.00  0.00    -0.126 OA
ENDBRANCH  16  17
ENDBRANCH   8  11
ENDBRANCH   2   5
BRANCH   1  20
ATOM     20  C   UNL     1       0.161  -1.774   3.685  0.00  0.00    +0.139 C 
BRANCH  20  26
ATOM     21  C   UNL     1       1.937  -0.010   3.641  0.00  0.00    -0.059 A 
ATOM     22  C   UNL     1       2.490   1.167   4.109  0.00  0.00    +0.002 A 
ATOM     23  C   UNL     1       1.877   1.859   5.137  0.00  0.00    +0.000 A 
ATOM     24  C   UNL     1       0.711   1.373   5.697  0.00  0.00    +0.000 A 
ATOM     25  C   UNL     1       0.157   0.196   5.229  0.00  0.00    +0.005 A 
ATOM     26  C   UNL     1       0.768  -0.493   4.198  0.00  0.00    -0.029 A 
BRANCH  21  27
ATOM     27  C   UNL     1       2.605  -0.764   2.520  0.00  0.00    -0.043 C 
BRANCH  27  33
ATOM     28  C   UNL     1       5.138   2.566   1.972  0.00  0.00    +0.005 C 
ATOM     29  C   UNL     1       4.264   2.127   0.796  0.00  0.00    -0.031 C 
ATOM     30  C   UNL     1       5.114   1.340  -0.207  0.00  0.00    +0.003 C 
ATOM     31  C   UNL     1       5.635   0.069   0.468  0.00  0.00    -0.031 C 
ATOM     32  C   UNL     1       4.451  -0.747   0.991  0.00  0.00    -0.075 C 
ATOM     33  N   UNL     1       3.694   0.050   1.964  0.00  0.00    +0.383 N 
ATOM     34  C   UNL     1       3.130   1.236   1.307  0.00  0.00    -0.075 C 
ATOM     35  C   UNL     1       6.421  -0.763  -0.547  0.00  0.00    +0.005 C 
ATOM     36  H   UNL     1       4.309   0.341   2.710  0.00  0.00    -0.081 HD
ENDBRANCH  27  33
ENDBRANCH  21  27
ENDBRANCH  20  26
ENDBRANCH   1  20
TORSDOF 7
