REMARK  Name = ZINC22978523
REMARK  9 active torsions:
REMARK  status: ('A' for Active; 'I' for Inactive)
REMARK    1  A    between atoms: C_1  and  C_2
REMARK    2  A    between atoms: C_2  and  C_3
REMARK    3  A    between atoms: C_4  and  C_18
REMARK    4  A    between atoms: C_5  and  N_17
REMARK    5  A    between atoms: C_7  and  S_9
REMARK    6  A    between atoms: S_9  and  C_10
REMARK    7  A    between atoms: C_10  and  C_12
REMARK    8  A    between atoms: C_10  and  C_13
REMARK    9  A    between atoms: N_15  and  C_16
REMARK                            x       y       z     vdW  Elec       q    Type
REMARK                         _______ _______ _______ _____ _____    ______ ____
ROOT
ATOM      1  C   UNL     1       1.145  -0.671  -0.013  0.00  0.00    +0.055 A 
ATOM      2  C   UNL     1       2.344   0.038  -0.020  0.00  0.00    +0.043 A 
ATOM      3  C   UNL     1       2.287   1.444  -0.012  0.00  0.00    +0.129 A 
ATOM      4  N   UNL     1       1.099   2.038   0.003  0.00  0.00    -0.207 NA
ATOM      5  C   UNL     1      -0.016   1.322   0.009  0.00  0.00    +0.191 A 
ATOM      6  N   UNL     1       0.002  -0.004   0.002  0.00  0.00    -0.226 NA
ENDROOT
BRANCH   2   7
ATOM      7  C   UNL     1       3.646  -0.670  -0.036  0.00  0.00    -0.013 A 
ATOM      8  C   UNL     1       4.030  -1.453   1.052  0.00  0.00    +0.010 A 
ATOM      9  C   UNL     1       5.241  -2.114   1.031  0.00  0.00    +0.020 A 
ATOM     10  C   UNL     1       6.079  -1.992  -0.065  0.00  0.00    +0.041 A 
ATOM     11  C   UNL     1       5.705  -1.212  -1.145  0.00  0.00    +0.020 A 
ATOM     12  C   UNL     1       4.494  -0.551  -1.136  0.00  0.00    +0.010 A 
ATOM     13 CL   UNL     1       7.605  -2.821  -0.082  0.00  0.00    -0.084 Cl
ENDBRANCH   2   7
BRANCH   3  14
ATOM     14  N   UNL     1       3.449   2.195  -0.019  0.00  0.00    -0.343 N 
ATOM     15  H   UNL     1       3.393   3.294  -0.012  0.00  0.00    +0.144 HD
ATOM     16  H   UNL     1       4.428   1.694  -0.030  0.00  0.00    +0.144 HD
ENDBRANCH   3  14
BRANCH   1  18
ATOM     17  C   UNL     1       1.136  -2.681  -1.465  0.00  0.00    +0.010 C 
ATOM     18  C   UNL     1       1.149  -2.178  -0.020  0.00  0.00    +0.053 C 
ENDBRANCH   1  18
BRANCH   5  19
ATOM     19  S   UNL     1      -1.568   2.156   0.021  0.00  0.00    -0.074 S 
BRANCH  19  20
ATOM     20  C   UNL     1      -1.001   3.875   0.028  0.00  0.00    +0.137 C 
ATOM     21  C   UNL     1      -0.268   4.175  -1.281  0.00  0.00    +0.029 C 
BRANCH  20  22
ATOM     22  C   UNL     1      -2.187   4.795   0.162  0.00  0.00    +0.226 C 
ATOM     23  O   UNL     1      -3.298   4.396  -0.114  0.00  0.00    -0.275 OA
ATOM     24  N   UNL     1      -2.013   6.061   0.590  0.00  0.00    -0.317 N 
ATOM     25  C   UNL     1      -3.166   6.955   0.720  0.00  0.00    +0.128 C 
ATOM     26  H   UNL     1      -1.005   6.423   0.840  0.00  0.00    +0.148 HD
ENDBRANCH  20  22
ENDBRANCH  19  20
ENDBRANCH   5  19
TORSDOF 6
