REMARK  Name = ZINC17271963
REMARK  6 active torsions:
REMARK  status: ('A' for Active; 'I' for Inactive)
REMARK    1  A    between atoms: C_1  and  C_2
REMARK    2  A    between atoms: C_2  and  C_3
REMARK    3  A    between atoms: C_3  and  N_4
REMARK    4  A    between atoms: N_10  and  S_13
REMARK    5  A    between atoms: S_13  and  C_16
REMARK    6  A    between atoms: C_19  and  C_22
REMARK                            x       y       z     vdW  Elec       q    Type
REMARK                         _______ _______ _______ _____ _____    ______ ____
ROOT
ATOM      1  N   UNL     1      -0.018   1.461   0.010  0.00  0.00    -0.224 N 
ATOM      2  C   UNL     1      -1.144   2.204   0.019  0.00  0.00    +0.247 C 
ATOM      3  O   UNL     1      -2.288   1.803   0.022  0.00  0.00    -0.273 OA
ATOM      4  C   UNL     1      -0.679   3.642   0.028  0.00  0.00    +0.115 C 
ATOM      5  C   UNL     1      -1.177   4.365  -1.218  0.00  0.00    +0.052 C 
ATOM      6  C   UNL     1      -0.634   5.799  -1.225  0.00  0.00    +0.112 C 
ATOM      7  N   UNL     1      -0.988   6.443   0.047  0.00  0.00    -0.176 NA
ATOM      8  C   UNL     1      -0.609   5.785   1.304  0.00  0.00    +0.112 C 
ATOM      9  C   UNL     1      -1.153   4.351   1.292  0.00  0.00    +0.052 C 
ATOM     10  N   UNL     1       0.786   3.543   0.014  0.00  0.00    -0.285 N 
ATOM     11  C   UNL     1       1.079   2.228   0.004  0.00  0.00    +0.309 C 
ATOM     12  O   UNL     1       2.212   1.788  -0.009  0.00  0.00    -0.252 OA
ATOM     13  H   UNL     1       1.419   4.279   0.011  0.00  0.00    +0.151 HD
ENDROOT
BRANCH   7  14
ATOM     14  S   UNL     1      -1.799   7.887   0.063  0.00  0.00    +0.061 S 
ATOM     15  O   UNL     1      -2.490   7.978  -1.176  0.00  0.00    -0.153 OA
ATOM     16  O   UNL     1      -2.467   7.964   1.315  0.00  0.00    -0.153 OA
BRANCH  14  17
ATOM     17  C   UNL     1      -0.588   9.166   0.058  0.00  0.00    +0.106 A 
ATOM     18  C   UNL     1      -0.106   9.663   1.256  0.00  0.00    +0.029 A 
ATOM     19  C   UNL     1       0.846  10.662   1.258  0.00  0.00    +0.010 A 
ATOM     20  C   UNL     1       1.316  11.176   0.051  0.00  0.00    -0.018 A 
ATOM     21  C   UNL     1       0.824  10.675  -1.152  0.00  0.00    +0.010 A 
ATOM     22  C   UNL     1      -0.125   9.673  -1.143  0.00  0.00    +0.029 A 
BRANCH  20  23
ATOM     23  C   UNL     1       2.336  12.254   0.048  0.00  0.00    -0.018 A 
ATOM     24  C   UNL     1       2.809  12.765  -1.159  0.00  0.00    +0.008 A 
ATOM     25  C   UNL     1       3.754  13.771  -1.157  0.00  0.00    +0.001 A 
ATOM     26  C   UNL     1       4.239  14.264   0.041  0.00  0.00    +0.000 A 
ATOM     27  C   UNL     1       3.777  13.758   1.242  0.00  0.00    +0.001 A 
ATOM     28  C   UNL     1       2.828  12.755   1.251  0.00  0.00    +0.008 A 
ENDBRANCH  20  23
ENDBRANCH  14  17
ENDBRANCH   7  14
BRANCH   1  29
ATOM     29  C   UNL     1       0.002  -0.004   0.002  0.00  0.00    +0.118 C 
BRANCH  29  31
ATOM     30  C   UNL     1       0.043  -2.052   1.433  0.00  0.00    +0.005 C 
ATOM     31  C   UNL     1       0.022  -0.522   1.442  0.00  0.00    +0.016 C 
ENDBRANCH  29  31
ENDBRANCH   1  29
TORSDOF 5
