REMARK  Name = ZINC42014692
REMARK  3 active torsions:
REMARK  status: ('A' for Active; 'I' for Inactive)
REMARK    1  A    between atoms: C_3  and  N_8
REMARK    2  A    between atoms: C_9  and  C_13
REMARK    3  A    between atoms: C_18  and  N_19
REMARK                            x       y       z     vdW  Elec       q    Type
REMARK                         _______ _______ _______ _____ _____    ______ ____
ROOT
ATOM      1  N   UNL     1       3.595   2.110  -0.045  0.00  0.00    -0.193 N 
ATOM      2  C   UNL     1       4.732   1.831   0.658  0.00  0.00    +0.189 A 
ATOM      3  N   UNL     1       5.597   2.786   0.381  0.00  0.00    -0.108 NA
ATOM      4  N   UNL     1       5.085   3.633  -0.438  0.00  0.00    -0.022 NA
ATOM      5  N   UNL     1       3.882   3.293  -0.748  0.00  0.00    -0.039 NA
ENDROOT
BRANCH   1   8
ATOM      6  C   UNL     1       0.563   0.434  -1.283  0.00  0.00    +0.003 A 
ATOM      7  C   UNL     1       1.738   1.161  -1.265  0.00  0.00    +0.028 A 
ATOM      8  C   UNL     1       2.404   1.373  -0.065  0.00  0.00    +0.071 A 
ATOM      9  C   UNL     1       1.887   0.854   1.114  0.00  0.00    +0.048 A 
ATOM     10  C   UNL     1       0.711   0.128   1.091  0.00  0.00    +0.043 A 
ATOM     11  C   UNL     1       0.050  -0.082  -0.107  0.00  0.00    +0.020 A 
ATOM     12 CL   UNL     1       0.063  -0.523   2.564  0.00  0.00    -0.083 Cl
ENDBRANCH   1   8
BRANCH   2  13
ATOM     13  C   UNL     1       4.950   0.680   1.558  0.00  0.00    +0.042 A 
ATOM     14  C   UNL     1       4.628  -0.611   1.136  0.00  0.00    +0.015 A 
ATOM     15  C   UNL     1       4.834  -1.682   1.979  0.00  0.00    +0.021 A 
ATOM     16  C   UNL     1       5.360  -1.484   3.246  0.00  0.00    +0.043 A 
ATOM     17  C   UNL     1       5.684  -0.211   3.676  0.00  0.00    +0.043 A 
ATOM     18  C   UNL     1       5.487   0.877   2.838  0.00  0.00    +0.037 A 
ATOM     19 CL   UNL     1       5.614  -2.841   4.298  0.00  0.00    -0.083 Cl
BRANCH  18  20
ATOM     20  N   UNL     1       5.817   2.160   3.267  0.00  0.00    -0.357 N 
ATOM     21  H   UNL     1       5.676   2.920   2.680  0.00  0.00    +0.142 HD
ATOM     22  H   UNL     1       6.189   2.295   4.153  0.00  0.00    +0.142 HD
ENDBRANCH  18  20
ENDBRANCH   2  13
TORSDOF 3
