REMARK  Name = ZINC32387207
REMARK  9 active torsions:
REMARK  status: ('A' for Active; 'I' for Inactive)
REMARK    1  A    between atoms: C_1  and  N_2
REMARK    2  A    between atoms: N_2  and  C_19
REMARK    3  A    between atoms: C_3  and  C_5
REMARK    4  A    between atoms: C_5  and  O_6
REMARK    5  A    between atoms: O_6  and  C_7
REMARK    6  A    between atoms: C_7  and  C_9
REMARK    7  A    between atoms: C_12  and  N_16
REMARK    8  A    between atoms: C_14  and  N_15
REMARK    9  A    between atoms: C_19  and  C_26
REMARK                            x       y       z     vdW  Elec       q    Type
REMARK                         _______ _______ _______ _____ _____    ______ ____
ROOT
ATOM      1  C   UNL     1      -0.175   1.166   0.122  0.00  0.00    +0.133 C 
ATOM      2  N   UNL     1      -0.032  -0.291   0.176  0.00  0.00    -0.285 N 
ATOM      3  C   UNL     1       0.211  -0.901   1.353  0.00  0.00    +0.254 C 
ATOM      4  O   UNL     1       0.329  -2.107   1.398  0.00  0.00    -0.272 OA
ENDROOT
BRANCH   2   5
ATOM      5  C   UNL     1      -0.154  -1.085  -1.049  0.00  0.00    +0.122 C 
ATOM      6  C   UNL     1      -0.143  -0.157  -2.268  0.00  0.00    +0.038 C 
ATOM      7  C   UNL     1       1.218   0.533  -2.369  0.00  0.00    +0.003 C 
ATOM      8  C   UNL     1       2.311  -0.510  -2.613  0.00  0.00    +0.008 C 
ATOM      9  C   UNL     1       2.392  -1.452  -1.407  0.00  0.00    +0.077 C 
ATOM     10  C   UNL     1       1.019  -2.035  -1.158  0.00  0.00    +0.161 C 
ATOM     11  O   UNL     1       0.863  -3.227  -1.048  0.00  0.00    -0.295 OA
BRANCH   5  12
ATOM     12  C   UNL     1      -1.440  -1.871  -1.017  0.00  0.00    +0.002 A 
ATOM     13  C   UNL     1      -2.291  -1.760   0.067  0.00  0.00    +0.007 A 
ATOM     14  C   UNL     1      -3.470  -2.481   0.096  0.00  0.00    +0.000 A 
ATOM     15  C   UNL     1      -3.799  -3.312  -0.959  0.00  0.00    +0.001 A 
ATOM     16  C   UNL     1      -2.949  -3.424  -2.042  0.00  0.00    +0.020 A 
ATOM     17  C   UNL     1      -1.771  -2.698  -2.075  0.00  0.00    +0.047 A 
ATOM     18 CL   UNL     1      -0.706  -2.833  -3.439  0.00  0.00    -0.083 Cl
ENDBRANCH   5  12
ENDBRANCH   2   5
BRANCH   3  19
ATOM     19  C   UNL     1       0.337  -0.084   2.613  0.00  0.00    +0.328 C 
BRANCH  19  20
ATOM     20  O   UNL     1       0.592  -0.952   3.720  0.00  0.00    -0.452 OA
BRANCH  20  21
ATOM     21  C   UNL     1       0.732  -0.375   4.930  0.00  0.00    +0.341 C 
ATOM     22  O   UNL     1       0.639   0.832   5.042  0.00  0.00    -0.245 OA
BRANCH  21  23
ATOM     23  C   UNL     1       0.997  -1.207   6.116  0.00  0.00    +0.080 A 
ATOM     24  C   UNL     1       1.222  -2.579   5.977  0.00  0.00    +0.019 A 
ATOM     25  C   UNL     1       1.470  -3.352   7.090  0.00  0.00    +0.033 A 
ATOM     26  C   UNL     1       1.496  -2.775   8.351  0.00  0.00    +0.128 A 
ATOM     27  C   UNL     1       1.275  -1.423   8.505  0.00  0.00    +0.056 A 
ATOM     28  C   UNL     1       1.030  -0.625   7.394  0.00  0.00    +0.041 A 
BRANCH  28  29
ATOM     29  N   UNL     1       0.814   0.738   7.546  0.00  0.00    -0.357 N 
ATOM     30  H   UNL     1       0.720   1.304   6.764  0.00  0.00    +0.142 HD
ATOM     31  H   UNL     1       0.756   1.123   8.434  0.00  0.00    +0.142 HD
ENDBRANCH  28  29
BRANCH  26  32
ATOM     32  N   UNL     1       1.762  -3.617   9.538  0.00  0.00    +0.056 N 
ATOM     33  O   UNL     1       1.956  -4.803   9.407  0.00  0.00    -0.126 OA
ATOM     34  O   UNL     1       1.786  -3.119  10.639  0.00  0.00    -0.126 OA
ENDBRANCH  26  32
ENDBRANCH  21  23
ENDBRANCH  20  21
ENDBRANCH  19  20
ENDBRANCH   3  19
TORSDOF 8
