REMARK  Name = ZINC41032680
REMARK  4 active torsions:
REMARK  status: ('A' for Active; 'I' for Inactive)
REMARK    1  A    between atoms: C_6  and  C_7
REMARK    2  A    between atoms: C_7  and  C_8
REMARK    3  A    between atoms: C_10  and  C_13
REMARK    4  A    between atoms: C_13  and  N_18
REMARK                            x       y       z     vdW  Elec       q    Type
REMARK                         _______ _______ _______ _____ _____    ______ ____
ROOT
ATOM      1  C   UNL     1      -1.738  -1.024  -1.408  0.00  0.00    +0.176 A 
ATOM      2  N   UNL     1      -2.520  -0.215  -2.131  0.00  0.00    -0.197 NA
ATOM      3  C   UNL     1      -2.715  -0.723  -3.316  0.00  0.00    +0.216 A 
ATOM      4  O   UNL     1      -2.055  -1.886  -3.388  0.00  0.00    -0.340 OA
ATOM      5  N   UNL     1      -1.419  -2.060  -2.130  0.00  0.00    -0.061 NA
ENDROOT
BRANCH   3   6
ATOM      6  C   UNL     1      -3.540  -0.107  -4.416  0.00  0.00    +0.010 C 
ATOM      7  C   UNL     1      -5.032  -0.045  -4.005  0.00  0.00    -0.004 C 
ATOM      8  C   UNL     1      -5.526  -1.485  -4.293  0.00  0.00    -0.001 C 
ATOM      9  C   UNL     1      -4.792  -1.884  -5.590  0.00  0.00    -0.001 C 
ATOM     10  C   UNL     1      -3.530  -1.008  -5.669  0.00  0.00    -0.004 C 
BRANCH   6  11
ATOM     11  N   UNL     1      -3.039   1.234  -4.744  0.00  0.00    +0.388 N 
ATOM     12  H   UNL     1      -2.083   1.168  -5.061  0.00  0.00    -0.089 HD
ATOM     13  H   UNL     1      -3.608   1.638  -5.473  0.00  0.00    -0.089 HD
ATOM     14  H   UNL     1      -3.081   1.819  -3.922  0.00  0.00    -0.089 HD
ENDBRANCH   6  11
ENDBRANCH   3   6
BRANCH   1  15
ATOM     15  C   UNL     1      -1.293  -0.775   0.010  0.00  0.00    +0.114 C 
BRANCH  15  21
ATOM     16  C   UNL     1      -0.017   1.378   0.010  0.00  0.00    +0.005 A 
ATOM     17  C   UNL     1       1.171   2.086   0.002  0.00  0.00    +0.015 A 
ATOM     18  C   UNL     1       2.378   1.411  -0.013  0.00  0.00    +0.018 A 
ATOM     19  C   UNL     1       2.396   0.027  -0.021  0.00  0.00    +0.015 A 
ATOM     20  C   UNL     1       1.208  -0.679  -0.013  0.00  0.00    +0.005 A 
ATOM     21  C   UNL     1       0.002  -0.004   0.002  0.00  0.00    -0.040 A 
ATOM     22 BR   UNL     1       4.003   2.378  -0.024  0.00  0.00    -0.050 Br
ENDBRANCH  15  21
ENDBRANCH   1  15
TORSDOF 4
