REMARK  Name = ZINC13032790
REMARK  10 active torsions:
REMARK  status: ('A' for Active; 'I' for Inactive)
REMARK    1  A    between atoms: C_1  and  C_2
REMARK    2  A    between atoms: C_2  and  C_3
REMARK    3  A    between atoms: C_10  and  C_15
REMARK    4  A    between atoms: C_15  and  N_66
REMARK    5  A    between atoms: C_16  and  C_17
REMARK    6  A    between atoms: C_16  and  N_66
REMARK    7  A    between atoms: C_26  and  C_27
REMARK    8  A    between atoms: C_26  and  N_66
REMARK    9  A    between atoms: N_31  and  C_32
REMARK   10  A    between atoms: C_32  and  C_33
REMARK                            x       y       z     vdW  Elec       q    Type
REMARK                         _______ _______ _______ _____ _____    ______ ____
ROOT
ATOM      1  N   UNL     1      -0.902   1.591  -0.987  0.00  0.00    +0.390 N 
ATOM      2  H   UNL     1      -1.923   1.516  -0.908  0.00  0.00    -0.080 HD
ENDROOT
BRANCH   1   3
ATOM      3  C   UNL     1      -0.432   0.664  -2.038  0.00  0.00    -0.036 C 
BRANCH   3  11
ATOM      4  C   UNL     1      -4.806  -3.615  -2.959  0.00  0.00    -0.047 A 
ATOM      5  C   UNL     1      -4.279  -4.565  -2.095  0.00  0.00    +0.005 A 
ATOM      6  C   UNL     1      -3.117  -4.314  -1.399  0.00  0.00    +0.026 A 
ATOM      7  C   UNL     1      -2.465  -3.095  -1.560  0.00  0.00    +0.049 A 
ATOM      8  C   UNL     1      -3.003  -2.134  -2.436  0.00  0.00    -0.001 A 
ATOM      9  C   UNL     1      -4.183  -2.412  -3.133  0.00  0.00    +0.013 A 
ATOM     10  C   UNL     1      -2.313  -0.853  -2.594  0.00  0.00    +0.017 A 
ATOM     11  C   UNL     1      -1.170  -0.642  -1.895  0.00  0.00    +0.001 A 
ATOM     12  C   UNL     1      -0.672  -1.639  -1.029  0.00  0.00    +0.251 A 
ATOM     13  O   UNL     1       0.354  -1.427  -0.407  0.00  0.00    -0.268 OA
ATOM     14  N   UNL     1      -1.302  -2.817  -0.874  0.00  0.00    -0.322 N 
ATOM     15  H   UNL     1      -0.932  -3.481  -0.270  0.00  0.00    +0.169 HD
BRANCH   4  17
ATOM     16  C   UNL     1      -5.737  -4.570  -5.050  0.00  0.00    +0.009 C 
ATOM     17  C   UNL     1      -6.078  -3.913  -3.711  0.00  0.00    +0.032 C 
ENDBRANCH   4  17
ENDBRANCH   3  11
ENDBRANCH   1   3
BRANCH   1  18
ATOM     18  C   UNL     1      -0.549   2.981  -1.345  0.00  0.00    -0.042 C 
BRANCH  18  19
ATOM     19  C   UNL     1      -1.464   3.443  -2.450  0.00  0.00    -0.060 A 
ATOM     20  C   UNL     1      -1.046   3.373  -3.766  0.00  0.00    +0.005 A 
ATOM     21  C   UNL     1      -1.884   3.790  -4.784  0.00  0.00    +0.050 A 
ATOM     22  C   UNL     1      -3.141   4.290  -4.486  0.00  0.00    +0.166 A 
ATOM     23  C   UNL     1      -3.560   4.366  -3.160  0.00  0.00    +0.166 A 
ATOM     24  C   UNL     1      -2.717   3.941  -2.146  0.00  0.00    +0.051 A 
ATOM     25  O   UNL     1      -4.821   4.888  -3.130  0.00  0.00    -0.453 OA
ATOM     26  C   UNL     1      -5.010   5.510  -4.415  0.00  0.00    +0.466 C 
ATOM     27  O   UNL     1      -4.139   4.765  -5.287  0.00  0.00    -0.453 OA
ENDBRANCH  18  19
ENDBRANCH   1  18
BRANCH   1  28
ATOM     28  C   UNL     1      -0.291   1.234   0.311  0.00  0.00    +0.001 C 
BRANCH  28  29
ATOM     29  C   UNL     1      -0.949   2.045   1.397  0.00  0.00    +0.135 A 
ATOM     30  N   UNL     1      -0.559   3.213   1.846  0.00  0.00    -0.115 NA
ATOM     31  N   UNL     1      -1.380   3.579   2.770  0.00  0.00    -0.023 NA
ATOM     32  N   UNL     1      -2.279   2.671   2.926  0.00  0.00    -0.044 NA
ATOM     33  N   UNL     1      -2.047   1.709   2.098  0.00  0.00    -0.227 N 
BRANCH  33  34
ATOM     34  C   UNL     1      -2.833   0.481   1.949  0.00  0.00    +0.182 C 
BRANCH  34  35
ATOM     35  C   UNL     1      -2.286  -0.580   2.868  0.00  0.00    -0.026 A 
ATOM     36  C   UNL     1      -1.299  -1.439   2.422  0.00  0.00    +0.008 A 
ATOM     37  C   UNL     1      -0.794  -2.409   3.266  0.00  0.00    +0.038 A 
ATOM     38  C   UNL     1      -1.284  -2.528   4.556  0.00  0.00    +0.123 A 
ATOM     39  C   UNL     1      -2.276  -1.671   5.000  0.00  0.00    +0.038 A 
ATOM     40  C   UNL     1      -2.776  -0.698   4.156  0.00  0.00    +0.008 A 
ATOM     41  F   UNL     1      -0.794  -3.480   5.380  0.00  0.00    -0.205 F 
ENDBRANCH  34  35
ENDBRANCH  33  34
ENDBRANCH  28  29
ENDBRANCH   1  28
TORSDOF 9
