REMARK  Name = ZINC36607866
REMARK  11 active torsions:
REMARK  status: ('A' for Active; 'I' for Inactive)
REMARK    1  A    between atoms: C_1  and  C_2
REMARK    2  A    between atoms: C_2  and  C_3
REMARK    3  A    between atoms: C_2  and  C_4
REMARK    4  A    between atoms: C_2  and  N_5
REMARK    5  A    between atoms: C_6  and  C_8
REMARK    6  A    between atoms: C_8  and  C_10
REMARK    7  A    between atoms: C_8  and  N_17
REMARK    8  A    between atoms: C_15  and  O_16
REMARK    9  A    between atoms: N_17  and  C_18
REMARK   10  A    between atoms: C_24  and  C_26
REMARK   11  A    between atoms: C_26  and  C_27
REMARK                            x       y       z     vdW  Elec       q    Type
REMARK                         _______ _______ _______ _____ _____    ______ ____
ROOT
ATOM      1  C   UNL     1       2.702  -0.886  -2.216  0.00  0.00    +0.201 C 
ENDROOT
BRANCH   1   2
ATOM      2  C   UNL     1       1.572  -0.570  -3.161  0.00  0.00    +0.024 A 
ATOM      3  C   UNL     1       0.698   0.461  -2.874  0.00  0.00    +0.009 A 
ATOM      4  C   UNL     1      -0.340   0.750  -3.741  0.00  0.00    +0.001 A 
ATOM      5  C   UNL     1      -0.505   0.010  -4.897  0.00  0.00    +0.004 A 
ATOM      6  C   UNL     1       0.366  -1.021  -5.189  0.00  0.00    +0.046 A 
ATOM      7  C   UNL     1       1.411  -1.311  -4.323  0.00  0.00    +0.122 A 
BRANCH   7   8
ATOM      8  O   UNL     1       2.273  -2.321  -4.611  0.00  0.00    -0.506 OA
ATOM      9  H   UNL     1       1.966  -3.193  -4.328  0.00  0.00    +0.292 HD
ENDBRANCH   7   8
ENDBRANCH   1   2
BRANCH   1  11
ATOM     10  N   UNL     1       1.483  -0.773  -0.066  0.00  0.00    -0.309 N 
ATOM     11  C   UNL     1       2.427  -0.254  -0.876  0.00  0.00    +0.239 C 
ATOM     12  O   UNL     1       3.056   0.723  -0.525  0.00  0.00    -0.273 OA
ATOM     13  H   UNL     1       0.936  -1.513  -0.372  0.00  0.00    +0.149 HD
BRANCH  10  15
ATOM     14  C   UNL     1       0.904   1.258   1.167  0.00  0.00    +0.031 C 
ATOM     15  C   UNL     1       1.284  -0.220   1.276  0.00  0.00    +0.026 C 
ATOM     16  C   UNL     1       2.577  -0.357   2.081  0.00  0.00    +0.031 C 
ATOM     17  C   UNL     1       0.161  -0.984   1.980  0.00  0.00    +0.031 C 
ENDBRANCH  10  15
ENDBRANCH   1  11
BRANCH   1  18
ATOM     18  N   UNL     1       3.955  -0.355  -2.758  0.00  0.00    -0.255 N 
ATOM     19  C   UNL     1       5.019  -1.168  -2.915  0.00  0.00    +0.225 C 
ATOM     20  O   UNL     1       4.915  -2.354  -2.685  0.00  0.00    -0.275 OA
BRANCH  18  21
ATOM     21  C   UNL     1       4.047   0.995  -3.114  0.00  0.00    +0.037 A 
ATOM     22  C   UNL     1       4.807   1.867  -2.345  0.00  0.00    +0.023 A 
ATOM     23  C   UNL     1       4.897   3.199  -2.699  0.00  0.00    +0.002 A 
ATOM     24  C   UNL     1       4.231   3.665  -3.818  0.00  0.00    +0.000 A 
ATOM     25  C   UNL     1       3.473   2.799  -4.585  0.00  0.00    +0.002 A 
ATOM     26  C   UNL     1       3.384   1.465  -4.240  0.00  0.00    +0.023 A 
ENDBRANCH  18  21
BRANCH  19  27
ATOM     27  C   UNL     1       6.338  -0.602  -3.376  0.00  0.00    +0.131 C 
BRANCH  27  28
ATOM     28  C   UNL     1       7.320  -1.725  -3.588  0.00  0.00    -0.039 A 
ATOM     29  C   UNL     1       8.123  -2.147  -2.545  0.00  0.00    +0.005 A 
ATOM     30  C   UNL     1       9.023  -3.178  -2.738  0.00  0.00    +0.015 A 
ATOM     31  C   UNL     1       9.121  -3.787  -3.976  0.00  0.00    +0.018 A 
ATOM     32  C   UNL     1       8.317  -3.364  -5.020  0.00  0.00    +0.015 A 
ATOM     33  C   UNL     1       7.413  -2.337  -4.824  0.00  0.00    +0.005 A 
ATOM     34 BR   UNL     1      10.353  -5.196  -4.242  0.00  0.00    -0.050 Br
ENDBRANCH  27  28
ENDBRANCH  19  27
ENDBRANCH   1  18
TORSDOF 8
