REMARK  Name = ZINC16614445
REMARK  10 active torsions:
REMARK  status: ('A' for Active; 'I' for Inactive)
REMARK    1  A    between atoms: C_1  and  C_2
REMARK    2  A    between atoms: C_5  and  C_8
REMARK    3  A    between atoms: C_14  and  C_16
REMARK    4  A    between atoms: C_16  and  C_18
REMARK    5  A    between atoms: C_16  and  N_21
REMARK    6  A    between atoms: C_18  and  C_19
REMARK    7  A    between atoms: C_18  and  C_20
REMARK    8  A    between atoms: C_22  and  C_24
REMARK    9  A    between atoms: C_24  and  O_25
REMARK   10  A    between atoms: O_25  and  C_26
REMARK                            x       y       z     vdW  Elec       q    Type
REMARK                         _______ _______ _______ _____ _____    ______ ____
ROOT
ATOM      1  C   UNL     1      -0.927   1.718   3.671  0.00  0.00    +0.162 C 
ENDROOT
BRANCH   1   8
ATOM      2  C   UNL     1      -0.574  -1.243   9.296  0.00  0.00    +0.134 A 
ATOM      3  N   UNL     1       0.017  -1.611   8.166  0.00  0.00    -0.140 NA
ATOM      4  N   UNL     1      -0.141  -0.932   7.113  0.00  0.00    -0.125 NA
ATOM      5  C   UNL     1      -0.881   0.164   7.090  0.00  0.00    +0.188 A 
ATOM      6  S   UNL     1      -1.422   0.232   8.742  0.00  0.00    -0.030 S 
ATOM      7  N   UNL     1      -1.156   1.024   6.034  0.00  0.00    -0.262 N 
ATOM      8  C   UNL     1      -0.629   0.786   4.817  0.00  0.00    +0.239 C 
ATOM      9  O   UNL     1       0.086  -0.178   4.644  0.00  0.00    -0.273 OA
ATOM     10  H   UNL     1      -1.728   1.795   6.173  0.00  0.00    +0.157 HD
BRANCH   2  15
ATOM     11  C   UNL     1      -0.447  -3.696  14.500  0.00  0.00    +0.044 C 
ATOM     12  C   UNL     1      -0.480  -3.053  13.137  0.00  0.00    -0.050 A 
ATOM     13  C   UNL     1       0.224  -3.622  12.090  0.00  0.00    +0.004 A 
ATOM     14  C   UNL     1       0.197  -3.039  10.840  0.00  0.00    +0.011 A 
ATOM     15  C   UNL     1      -0.542  -1.873  10.633  0.00  0.00    +0.009 A 
ATOM     16  C   UNL     1      -1.245  -1.302  11.694  0.00  0.00    +0.011 A 
ATOM     17  C   UNL     1      -1.214  -1.898  12.938  0.00  0.00    +0.004 A 
ENDBRANCH   2  15
ENDBRANCH   1   8
BRANCH   1  18
ATOM     18  N   UNL     1      -0.242   1.246   2.466  0.00  0.00    -0.301 N 
ATOM     19  C   UNL     1      -0.718   1.572   1.248  0.00  0.00    +0.251 C 
ATOM     20  O   UNL     1      -1.714   2.256   1.150  0.00  0.00    -0.272 OA
ATOM     21  H   UNL     1       0.555   0.699   2.544  0.00  0.00    +0.150 HD
BRANCH  19  22
ATOM     22  C   UNL     1      -0.013   1.086   0.008  0.00  0.00    +0.324 C 
BRANCH  22  23
ATOM     23  O   UNL     1      -0.704   1.559  -1.150  0.00  0.00    -0.483 OA
BRANCH  23  24
ATOM     24  C   UNL     1      -0.194   1.208  -2.360  0.00  0.00    +0.121 A 
ATOM     25  C   UNL     1       0.951   0.428  -2.430  0.00  0.00    +0.047 A 
ATOM     26  C   UNL     1       1.465   0.067  -3.661  0.00  0.00    +0.023 A 
ATOM     27  C   UNL     1       0.845   0.492  -4.822  0.00  0.00    +0.041 A 
ATOM     28  C   UNL     1      -0.295   1.274  -4.754  0.00  0.00    +0.023 A 
ATOM     29  C   UNL     1      -0.815   1.633  -3.525  0.00  0.00    +0.047 A 
ATOM     30 CL   UNL     1       1.496   0.043  -6.368  0.00  0.00    -0.084 Cl
ENDBRANCH  23  24
ENDBRANCH  22  23
ENDBRANCH  19  22
ENDBRANCH   1  18
BRANCH   1  31
ATOM     31  C   UNL     1      -0.438   3.126   4.018  0.00  0.00    +0.012 C 
ATOM     32  C   UNL     1       1.087   3.118   4.147  0.00  0.00    +0.009 C 
ATOM     33  C   UNL     1      -0.851   4.097   2.910  0.00  0.00    +0.009 C 
ENDBRANCH   1  31
TORSDOF 7
