REMARK  Name = ZINC11713698
REMARK  14 active torsions:
REMARK  status: ('A' for Active; 'I' for Inactive)
REMARK    1  A    between atoms: C_1  and  C_2
REMARK    2  A    between atoms: C_2  and  C_3
REMARK    3  A    between atoms: C_2  and  C_4
REMARK    4  A    between atoms: C_2  and  C_5
REMARK    5  A    between atoms: C_8  and  O_11
REMARK    6  A    between atoms: O_11  and  C_12
REMARK    7  A    between atoms: C_12  and  C_13
REMARK    8  A    between atoms: C_16  and  C_19
REMARK    9  A    between atoms: C_19  and  O_21
REMARK   10  A    between atoms: O_21  and  C_22
REMARK   11  A    between atoms: C_22  and  C_23
REMARK   12  A    between atoms: N_25  and  C_26
REMARK   13  A    between atoms: C_29  and  S_32
REMARK   14  A    between atoms: S_32  and  N_35
REMARK                            x       y       z     vdW  Elec       q    Type
REMARK                         _______ _______ _______ _____ _____    ______ ____
ROOT
ATOM      1  C   UNL     1       0.003  -0.004   0.012  0.00  0.00    +0.340 C 
ATOM      2  O   UNL     1       1.063  -0.597   0.007  0.00  0.00    -0.245 OA
ENDROOT
BRANCH   1   6
ATOM      3  C   UNL     1      -3.646  -2.178   0.026  0.00  0.00    -0.010 A 
ATOM      4  C   UNL     1      -2.440  -2.856   0.021  0.00  0.00    +0.008 A 
ATOM      5  C   UNL     1      -1.251  -2.157   0.016  0.00  0.00    +0.015 A 
ATOM      6  C   UNL     1      -1.266  -0.760   0.017  0.00  0.00    +0.059 A 
ATOM      7  C   UNL     1      -2.487  -0.082   0.028  0.00  0.00    +0.015 A 
ATOM      8  C   UNL     1      -3.668  -0.794   0.026  0.00  0.00    +0.008 A 
BRANCH   3   9
ATOM      9  C   UNL     1      -4.940  -2.949   0.031  0.00  0.00    +0.264 C 
BRANCH   9  10
ATOM     10  O   UNL     1      -5.344  -3.194   1.379  0.00  0.00    -0.487 OA
BRANCH  10  14
ATOM     11  C   UNL     1      -8.855  -5.287   1.933  0.00  0.00    -0.042 A 
ATOM     12  C   UNL     1      -8.128  -4.857   3.028  0.00  0.00    +0.008 A 
ATOM     13  C   UNL     1      -6.952  -4.156   2.845  0.00  0.00    +0.046 A 
ATOM     14  C   UNL     1      -6.501  -3.883   1.562  0.00  0.00    +0.121 A 
ATOM     15  C   UNL     1      -7.235  -4.311   0.465  0.00  0.00    +0.046 A 
ATOM     16  C   UNL     1      -8.407  -5.017   0.653  0.00  0.00    +0.008 A 
BRANCH  11  18
ATOM     17  C   UNL     1     -11.127  -5.189   2.922  0.00  0.00    +0.015 C 
ATOM     18  C   UNL     1     -10.138  -6.052   2.135  0.00  0.00    -0.013 C 
ATOM     19  C   UNL     1     -10.740  -6.407   0.774  0.00  0.00    +0.015 C 
ATOM     20  C   UNL     1      -9.849  -7.336   2.916  0.00  0.00    +0.015 C 
ENDBRANCH  11  18
ENDBRANCH  10  14
ENDBRANCH   9  10
ENDBRANCH   3   9
ENDBRANCH   1   6
BRANCH   1  21
ATOM     21  O   UNL     1      -0.016   1.343   0.012  0.00  0.00    -0.452 OA
BRANCH  21  22
ATOM     22  C   UNL     1       1.269   2.019   0.008  0.00  0.00    +0.328 C 
BRANCH  22  23
ATOM     23  C   UNL     1       1.051   3.511   0.009  0.00  0.00    +0.255 C 
ATOM     24  O   UNL     1      -0.076   3.959   0.014  0.00  0.00    -0.272 OA
ATOM     25  N   UNL     1       2.108   4.346   0.005  0.00  0.00    -0.283 N 
ATOM     26  H   UNL     1       3.008   3.990   0.069  0.00  0.00    +0.155 HD
BRANCH  25  27
ATOM     27  C   UNL     1       1.908   5.728  -0.091  0.00  0.00    +0.034 A 
ATOM     28  C   UNL     1       2.816   6.516  -0.787  0.00  0.00    +0.025 A 
ATOM     29  C   UNL     1       2.611   7.878  -0.886  0.00  0.00    +0.030 A 
ATOM     30  C   UNL     1       1.512   8.459  -0.282  0.00  0.00    +0.105 A 
ATOM     31  C   UNL     1       0.610   7.679   0.417  0.00  0.00    +0.030 A 
ATOM     32  C   UNL     1       0.804   6.315   0.514  0.00  0.00    +0.025 A 
BRANCH  30  33
ATOM     33  S   UNL     1       1.259  10.199  -0.404  0.00  0.00    +0.056 S 
ATOM     34  O   UNL     1       1.949  10.629  -1.569  0.00  0.00    -0.153 OA
ATOM     35  O   UNL     1      -0.132  10.422  -0.216  0.00  0.00    -0.153 OA
BRANCH  33  36
ATOM     36  N   UNL     1       2.029  10.897   0.886  0.00  0.00    -0.204 NA
ATOM     37  H   UNL     1       2.501  10.343   1.527  0.00  0.00    +0.144 HD
ATOM     38  H   UNL     1       2.007  11.860   1.000  0.00  0.00    +0.144 HD
ENDBRANCH  33  36
ENDBRANCH  30  33
ENDBRANCH  25  27
ENDBRANCH  22  23
ENDBRANCH  21  22
ENDBRANCH   1  21
TORSDOF 11
