REMARK  Name = ZINC05729554
REMARK  2 active torsions:
REMARK  status: ('A' for Active; 'I' for Inactive)
REMARK    1  A    between atoms: C_4  and  C_7
REMARK    2  A    between atoms: C_17  and  C_20
REMARK                            x       y       z     vdW  Elec       q    Type
REMARK                         _______ _______ _______ _____ _____    ______ ____
ROOT
ATOM      1  C   UNL     1       4.110  -0.544  -0.007  0.00  0.00    +0.051 C 
ATOM      2  N   UNL     1       5.233  -0.004  -0.180  0.00  0.00    -0.243 NA
ATOM      3  C   UNL     1       6.490  -0.421  -0.374  0.00  0.00    +0.168 A 
ATOM      4  C   UNL     1       6.902  -1.748  -0.457  0.00  0.00    +0.152 A 
ATOM      5  N   UNL     1       8.205  -2.021  -0.671  0.00  0.00    -0.221 NA
ATOM      6  C   UNL     1       9.100  -1.084  -0.796  0.00  0.00    +0.201 A 
ATOM      7  N   UNL     1       8.771   0.221  -0.716  0.00  0.00    -0.312 N 
ATOM      8  C   UNL     1       7.494   0.587  -0.510  0.00  0.00    +0.279 A 
ATOM      9  O   UNL     1       7.195   1.767  -0.439  0.00  0.00    -0.265 OA
ATOM     10  N   UNL     1       6.055  -2.813  -0.325  0.00  0.00    -0.320 N 
ATOM     11  C   UNL     1       4.681  -2.841  -0.772  0.00  0.00    +0.108 C 
ATOM     12  C   UNL     1       3.795  -1.992   0.127  0.00  0.00    +0.083 C 
ATOM     13  H   UNL     1       6.403  -3.612   0.101  0.00  0.00    +0.148 HD
ATOM     14  H   UNL     1       9.459   0.899  -0.808  0.00  0.00    +0.170 HD
ENDROOT
BRANCH  11  15
ATOM     15  C   UNL     1       4.609  -2.313  -2.182  0.00  0.00    -0.027 A 
ATOM     16  C   UNL     1       5.682  -2.479  -3.037  0.00  0.00    +0.006 A 
ATOM     17  C   UNL     1       5.616  -1.996  -4.330  0.00  0.00    +0.015 A 
ATOM     18  C   UNL     1       4.477  -1.345  -4.768  0.00  0.00    +0.018 A 
ATOM     19  C   UNL     1       3.404  -1.178  -3.911  0.00  0.00    +0.015 A 
ATOM     20  C   UNL     1       3.468  -1.667  -2.620  0.00  0.00    +0.006 A 
ATOM     21 BR   UNL     1       4.387  -0.682  -6.537  0.00  0.00    -0.050 Br
ENDBRANCH  11  15
BRANCH   1  25
ATOM     22  C   UNL     1       0.802   2.102   0.238  0.00  0.00    +0.000 A 
ATOM     23  C   UNL     1       2.048   2.588  -0.119  0.00  0.00    +0.001 A 
ATOM     24  C   UNL     1       3.128   1.734  -0.201  0.00  0.00    +0.010 A 
ATOM     25  C   UNL     1       2.962   0.374   0.078  0.00  0.00    -0.004 A 
ATOM     26  C   UNL     1       1.701  -0.109   0.439  0.00  0.00    +0.010 A 
ATOM     27  C   UNL     1       0.630   0.757   0.516  0.00  0.00    +0.001 A 
ENDBRANCH   1  25
TORSDOF 2
