REMARK  Name = ZINC38804014
REMARK  5 active torsions:
REMARK  status: ('A' for Active; 'I' for Inactive)
REMARK    1  A    between atoms: C_1  and  C_2
REMARK    2  A    between atoms: C_3  and  C_16
REMARK    3  A    between atoms: C_4  and  C_10
REMARK    4  A    between atoms: C_16  and  C_17
REMARK    5  A    between atoms: C_16  and  C_18
REMARK                            x       y       z     vdW  Elec       q    Type
REMARK                         _______ _______ _______ _____ _____    ______ ____
ROOT
ATOM      1  C   UNL     1       0.607   1.283  -0.455  0.00  0.00    +0.061 C 
ATOM      2  C   UNL     1       0.450  -0.198  -0.228  0.00  0.00    +0.010 C 
ATOM      3  C   UNL     1      -0.762  -0.724  -0.197  0.00  0.00    -0.026 C 
ATOM      4  C   UNL     1      -0.885  -2.216   0.033  0.00  0.00    +0.133 C 
ATOM      5  N   UNL     1       0.364  -2.975   0.206  0.00  0.00    -0.289 N 
ATOM      6  C   UNL     1       1.533  -2.306   0.150  0.00  0.00    +0.304 C 
ATOM      7  O   UNL     1       2.573  -2.919   0.291  0.00  0.00    -0.252 OA
ATOM      8  N   UNL     1       1.579  -0.984  -0.062  0.00  0.00    -0.273 N 
ATOM      9  H   UNL     1       0.346  -3.933   0.357  0.00  0.00    +0.151 HD
ATOM     10  H   UNL     1       2.448  -0.553  -0.096  0.00  0.00    +0.156 HD
ENDROOT
BRANCH   4  11
ATOM     11  C   UNL     1      -1.627  -2.805  -1.140  0.00  0.00    -0.023 A 
ATOM     12  C   UNL     1      -1.019  -2.869  -2.380  0.00  0.00    +0.006 A 
ATOM     13  C   UNL     1      -1.699  -3.410  -3.455  0.00  0.00    +0.000 A 
ATOM     14  C   UNL     1      -2.986  -3.887  -3.290  0.00  0.00    +0.000 A 
ATOM     15  C   UNL     1      -3.593  -3.824  -2.050  0.00  0.00    +0.000 A 
ATOM     16  C   UNL     1      -2.911  -3.287  -0.973  0.00  0.00    +0.006 A 
ENDBRANCH   4  11
BRANCH   3  17
ATOM     17  C   UNL     1      -1.985   0.136  -0.385  0.00  0.00    +0.012 C 
ATOM     18  C   UNL     1      -2.650  -0.207  -1.719  0.00  0.00    +0.012 C 
ATOM     19  C   UNL     1      -2.970  -0.123   0.757  0.00  0.00    +0.012 C 
ENDBRANCH   3  17
TORSDOF 2
