REMARK  Name = ZINC06409939
REMARK  6 active torsions:
REMARK  status: ('A' for Active; 'I' for Inactive)
REMARK    1  A    between atoms: C_1  and  C_2
REMARK    2  A    between atoms: C_7  and  C_14
REMARK    3  A    between atoms: C_17  and  C_26
REMARK    4  A    between atoms: C_20  and  C_22
REMARK    5  A    between atoms: C_22  and  C_23
REMARK    6  A    between atoms: C_23  and  C_24
REMARK                            x       y       z     vdW  Elec       q    Type
REMARK                         _______ _______ _______ _____ _____    ______ ____
ROOT
ATOM      1  C   UNL     1      -0.641  -2.322  -0.005  0.00  0.00    +0.142 C 
ATOM      2  C   UNL     1      -1.221  -0.893   0.009  0.00  0.00    +0.087 C 
ATOM      3  C   UNL     1       0.002  -0.004   0.002  0.00  0.00    +0.069 C 
ATOM      4  N   UNL     1       1.064  -0.733  -0.018  0.00  0.00    -0.181 NA
ATOM      5  N   UNL     1       0.814  -2.104  -0.018  0.00  0.00    -0.185 N 
ATOM      6  C   UNL     1       1.752  -3.072  -0.034  0.00  0.00    +0.236 C 
ATOM      7  O   UNL     1       1.419  -4.238  -0.038  0.00  0.00    -0.274 OA
ENDROOT
BRANCH   1  14
ATOM      8  C   UNL     1      -3.445  -6.823  -5.964  0.00  0.00    +0.044 C 
ATOM      9  C   UNL     1      -3.033  -6.117  -4.697  0.00  0.00    -0.048 A 
ATOM     10  C   UNL     1      -3.481  -6.589  -3.471  0.00  0.00    +0.004 A 
ATOM     11  C   UNL     1      -3.119  -5.965  -2.312  0.00  0.00    +0.010 A 
ATOM     12  C   UNL     1      -2.290  -4.839  -2.360  0.00  0.00    -0.001 A 
ATOM     13  C   UNL     1      -1.883  -4.145  -1.136  0.00  0.00    +0.020 A 
ATOM     14  C   UNL     1      -1.078  -3.059  -1.245  0.00  0.00    +0.040 A 
ATOM     15  C   UNL     1      -0.653  -2.613  -2.515  0.00  0.00    +0.254 A 
ATOM     16  O   UNL     1       0.066  -1.632  -2.590  0.00  0.00    -0.268 OA
ATOM     17  N   UNL     1      -1.017  -3.247  -3.643  0.00  0.00    -0.322 N 
ATOM     18  H   UNL     1      -0.704  -2.917  -4.500  0.00  0.00    +0.169 HD
ATOM     19  C   UNL     1      -1.833  -4.357  -3.601  0.00  0.00    +0.049 A 
ATOM     20  C   UNL     1      -2.215  -5.010  -4.769  0.00  0.00    +0.029 A 
ENDBRANCH   1  14
BRANCH   3  21
ATOM     21  C   UNL     1      -0.018   1.470   0.010  0.00  0.00    -0.002 A 
ATOM     22  C   UNL     1      -1.235   2.156   0.020  0.00  0.00    +0.011 A 
ATOM     23  C   UNL     1      -1.247   3.535   0.032  0.00  0.00    +0.016 A 
ATOM     24  C   UNL     1      -0.056   4.240   0.025  0.00  0.00    +0.018 A 
ATOM     25  C   UNL     1       1.155   3.567   0.010  0.00  0.00    +0.016 A 
ATOM     26  C   UNL     1       1.180   2.188   0.003  0.00  0.00    +0.011 A 
ATOM     27 BR   UNL     1      -0.081   6.131   0.036  0.00  0.00    -0.050 Br
ENDBRANCH   3  21
BRANCH   6  28
ATOM     28  C   UNL     1       3.213  -2.705  -0.046  0.00  0.00    +0.109 C 
BRANCH  28  29
ATOM     29  C   UNL     1       4.059  -3.980  -0.062  0.00  0.00    +0.134 C 
BRANCH  29  30
ATOM     30  C   UNL     1       5.521  -3.613  -0.075  0.00  0.00    +0.356 C 
ATOM     31  O   UNL     1       5.852  -2.451  -0.071  0.00  0.00    -0.246 OA
ATOM     32  O   UNL     1       6.454  -4.577  -0.090  0.00  0.00    -0.246 OA
ENDBRANCH  29  30
ENDBRANCH  28  29
ENDBRANCH   6  28
TORSDOF 5
