REMARK  Name = ZINC13574871
REMARK  4 active torsions:
REMARK  status: ('A' for Active; 'I' for Inactive)
REMARK    1  A    between atoms: C_7  and  O_8
REMARK    2  A    between atoms: C_9  and  C_24
REMARK    3  A    between atoms: C_13  and  C_15
REMARK    4  A    between atoms: C_19  and  N_21
REMARK                            x       y       z     vdW  Elec       q    Type
REMARK                         _______ _______ _______ _____ _____    ______ ____
ROOT
ATOM      1  C   UNL     1       0.009   1.315   0.585  0.00  0.00    +0.001 A 
ATOM      2  C   UNL     1       1.184   2.054   0.601  0.00  0.00    +0.001 A 
ATOM      3  C   UNL     1       2.400   1.424   0.413  0.00  0.00    +0.016 A 
ATOM      4  C   UNL     1       2.423   0.061   0.211  0.00  0.00    +0.025 A 
ATOM      5  C   UNL     1       1.237  -0.708   0.191  0.00  0.00    +0.031 A 
ATOM      6  C   UNL     1       0.019  -0.033   0.386  0.00  0.00    +0.012 A 
ATOM      7  C   UNL     1       1.261  -2.142  -0.022  0.00  0.00    +0.135 A 
ATOM      8  C   UNL     1       2.309  -2.990  -0.230  0.00  0.00    +0.052 A 
ATOM      9  C   UNL     1       3.672  -2.588  -0.278  0.00  0.00    +0.084 A 
ATOM     10  S   UNL     1       3.933  -0.838  -0.041  0.00  0.00    -0.073 S 
ATOM     11  N   UNL     1       4.673  -3.448  -0.483  0.00  0.00    -0.275 N 
ATOM     12  C   UNL     1       5.933  -3.009  -0.517  0.00  0.00    +0.249 C 
ATOM     13  O   UNL     1       6.170  -1.823  -0.361  0.00  0.00    -0.270 OA
ATOM     14  H   UNL     1       4.485  -4.391  -0.607  0.00  0.00    +0.156 HD
ENDROOT
BRANCH   8  15
ATOM     15  C   UNL     1       2.006  -4.427  -0.419  0.00  0.00    -0.012 A 
ATOM     16  C   UNL     1       2.441  -5.363   0.520  0.00  0.00    +0.011 A 
ATOM     17  C   UNL     1       2.156  -6.701   0.340  0.00  0.00    +0.039 A 
ATOM     18  C   UNL     1       1.440  -7.115  -0.772  0.00  0.00    +0.123 A 
ATOM     19  C   UNL     1       1.006  -6.190  -1.707  0.00  0.00    +0.039 A 
ATOM     20  C   UNL     1       1.281  -4.849  -1.533  0.00  0.00    +0.011 A 
ATOM     21  F   UNL     1       1.164  -8.427  -0.944  0.00  0.00    -0.205 F 
ENDBRANCH   8  15
BRANCH  12  22
ATOM     22  C   UNL     1       7.043  -3.963  -0.744  0.00  0.00    +0.039 A 
ATOM     23  C   UNL     1       6.775  -5.319  -0.928  0.00  0.00    +0.013 A 
ATOM     24  C   UNL     1       7.813  -6.203  -1.139  0.00  0.00    +0.003 A 
ATOM     25  C   UNL     1       9.119  -5.746  -1.168  0.00  0.00    +0.033 A 
ATOM     26  C   UNL     1       9.392  -4.402  -0.986  0.00  0.00    +0.127 A 
ATOM     27  C   UNL     1       8.361  -3.508  -0.780  0.00  0.00    +0.045 A 
BRANCH  26  28
ATOM     28  N   UNL     1      10.791  -3.921  -1.018  0.00  0.00    +0.056 N 
ATOM     29  O   UNL     1      11.695  -4.703  -1.203  0.00  0.00    -0.126 OA
ATOM     30  O   UNL     1      11.031  -2.747  -0.858  0.00  0.00    -0.126 OA
ENDBRANCH  26  28
ENDBRANCH  12  22
BRANCH   7  31
ATOM     31  O   UNL     1       0.046  -2.736  -0.014  0.00  0.00    -0.505 OA
ATOM     32  H   UNL     1      -0.265  -2.983   0.867  0.00  0.00    +0.292 HD
ENDBRANCH   7  31
TORSDOF 4
