REMARK  Name = ZINC50792225
REMARK  7 active torsions:
REMARK  status: ('A' for Active; 'I' for Inactive)
REMARK    1  A    between atoms: C_1  and  C_2
REMARK    2  A    between atoms: C_2  and  N_3
REMARK    3  A    between atoms: N_3  and  C_4
REMARK    4  A    between atoms: N_3  and  C_6
REMARK    5  A    between atoms: C_4  and  C_5
REMARK    6  A    between atoms: C_6  and  C_7
REMARK    7  A    between atoms: C_11  and  C_16
REMARK                            x       y       z     vdW  Elec       q    Type
REMARK                         _______ _______ _______ _____ _____    ______ ____
ROOT
ATOM      1  C   UNL     1       1.745  -2.971  -2.461  0.00  0.00    +0.116 A 
ATOM      2  N   UNL     1       1.414  -3.297  -3.697  0.00  0.00    -0.219 NA
ATOM      3  C   UNL     1       2.322  -3.568  -4.621  0.00  0.00    +0.129 A 
ATOM      4  C   UNL     1       3.699  -3.509  -4.278  0.00  0.00    +0.055 A 
ATOM      5  C   UNL     1       4.876  -3.760  -5.104  0.00  0.00    +0.008 A 
ATOM      6  C   UNL     1       6.104  -3.638  -4.543  0.00  0.00    +0.057 A 
ATOM      7  S   UNL     1       5.747  -3.175  -2.858  0.00  0.00    -0.076 S 
ATOM      8  C   UNL     1       3.976  -3.155  -2.941  0.00  0.00    +0.114 A 
ATOM      9  N   UNL     1       3.007  -2.895  -2.084  0.00  0.00    -0.227 NA
ATOM     10  N   UNL     1       1.935  -3.906  -5.905  0.00  0.00    -0.343 N 
ATOM     11  H   UNL     1       1.060  -3.644  -6.233  0.00  0.00    +0.144 HD
ATOM     12  H   UNL     1       2.538  -4.404  -6.478  0.00  0.00    +0.144 HD
ENDROOT
BRANCH   5  13
ATOM     13  C   UNL     1       4.732  -4.140  -6.525  0.00  0.00    +0.021 A 
ATOM     14  C   UNL     1       5.216  -5.243  -7.176  0.00  0.00    +0.016 A 
ATOM     15  C   UNL     1       4.951  -5.387  -8.522  0.00  0.00    +0.008 A 
ATOM     16  C   UNL     1       4.221  -4.436  -9.157  0.00  0.00    +0.046 A 
ATOM     17  S   UNL     1       3.875  -3.285  -7.837  0.00  0.00    -0.097 S 
ENDBRANCH   5  13
BRANCH   1  18
ATOM     18  C   UNL     1       0.658  -2.675  -1.460  0.00  0.00    -0.001 C 
BRANCH  18  19
ATOM     19  N   UNL     1       0.411  -1.227  -1.420  0.00  0.00    +0.384 N 
ATOM     20  H   UNL     1       1.277  -0.743  -1.236  0.00  0.00    -0.081 HD
BRANCH  19  22
ATOM     21  C   UNL     1      -0.271   0.737  -2.715  0.00  0.00    -0.017 C 
ATOM     22  C   UNL     1      -0.131  -0.787  -2.713  0.00  0.00    -0.082 C 
ENDBRANCH  19  22
BRANCH  19  23
ATOM     23  C   UNL     1      -0.555  -0.924  -0.355  0.00  0.00    -0.082 C 
ATOM     24  C   UNL     1       0.069  -1.242   1.005  0.00  0.00    -0.017 C 
ENDBRANCH  19  23
ENDBRANCH  18  19
ENDBRANCH   1  18
TORSDOF 5
