REMARK  Name = ZINC19798960
REMARK  5 active torsions:
REMARK  status: ('A' for Active; 'I' for Inactive)
REMARK    1  A    between atoms: C_5  and  O_21
REMARK    2  A    between atoms: C_6  and  C_7
REMARK    3  A    between atoms: N_8  and  N_9
REMARK    4  A    between atoms: C_10  and  C_12
REMARK    5  A    between atoms: C_12  and  C_13
REMARK                            x       y       z     vdW  Elec       q    Type
REMARK                         _______ _______ _______ _____ _____    ______ ____
ROOT
ATOM      1  N   UNL     1      -2.442  -2.781   0.011  0.00  0.00    -0.207 N 
ATOM      2  C   UNL     1      -2.419  -4.128   0.004  0.00  0.00    +0.234 C 
ATOM      3  O   UNL     1      -1.359  -4.717  -0.010  0.00  0.00    -0.274 OA
ATOM      4  H   UNL     1      -3.289  -2.310   0.022  0.00  0.00    +0.177 HD
ENDROOT
BRANCH   1   6
ATOM      5  C   UNL     1      -1.262  -0.762   0.011  0.00  0.00    +0.142 C 
ATOM      6  N   UNL     1      -1.240  -2.060   0.003  0.00  0.00    -0.188 NA
BRANCH   5  12
ATOM      7  C   UNL     1      -0.017   1.392   0.010  0.00  0.00    +0.028 A 
ATOM      8  C   UNL     1       1.170   2.097   0.002  0.00  0.00    +0.020 A 
ATOM      9  C   UNL     1       2.381   1.424  -0.013  0.00  0.00    +0.034 A 
ATOM     10  C   UNL     1       2.412   0.041  -0.021  0.00  0.00    +0.061 A 
ATOM     11  C   UNL     1       1.229  -0.681  -0.013  0.00  0.00    +0.139 A 
ATOM     12  C   UNL     1       0.002  -0.004   0.002  0.00  0.00    +0.038 A 
ATOM     13 BR   UNL     1       4.072  -0.865  -0.042  0.00  0.00    -0.046 Br
ATOM     14 BR   UNL     1       1.143   3.987   0.012  0.00  0.00    -0.050 Br
BRANCH  11  15
ATOM     15  O   UNL     1       1.259  -2.039  -0.021  0.00  0.00    -0.505 OA
ATOM     16  H   UNL     1       1.277  -2.437   0.860  0.00  0.00    +0.292 HD
ENDBRANCH  11  15
ENDBRANCH   5  12
ENDBRANCH   1   6
BRANCH   2  17
ATOM     17  C   UNL     1      -3.711  -4.903   0.013  0.00  0.00    +0.125 C 
BRANCH  17  18
ATOM     18  C   UNL     1      -3.407  -6.403   0.002  0.00  0.00    +0.149 C 
ATOM     19  C   UNL     1      -4.689  -7.173   0.139  0.00  0.00    +0.231 C 
ATOM     20  O   UNL     1      -5.515  -6.790   0.940  0.00  0.00    -0.274 OA
ATOM     21  N   UNL     1      -4.959  -8.264  -0.586  0.00  0.00    -0.313 N 
ATOM     22  C   UNL     1      -4.050  -8.787  -1.602  0.00  0.00    +0.119 C 
ATOM     23  C   UNL     1      -2.645  -8.219  -1.391  0.00  0.00    +0.100 C 
ATOM     24  N   UNL     1      -2.744  -6.756  -1.261  0.00  0.00    -0.304 NA
ATOM     25  H   UNL     1      -5.796  -8.729  -0.430  0.00  0.00    +0.149 HD
ATOM     26  H   UNL     1      -3.229  -6.354  -2.049  0.00  0.00    +0.123 HD
ENDBRANCH  17  18
ENDBRANCH   2  17
TORSDOF 5
