REMARK  Name = ZINC09242899
REMARK  13 active torsions:
REMARK  status: ('A' for Active; 'I' for Inactive)
REMARK    1  A    between atoms: C_1  and  C_2
REMARK    2  A    between atoms: C_4  and  O_35
REMARK    3  A    between atoms: C_5  and  C_9
REMARK    4  A    between atoms: N_17  and  C_32
REMARK    5  A    between atoms: C_18  and  C_20
REMARK    6  A    between atoms: C_24  and  O_26
REMARK    7  A    between atoms: O_26  and  C_27
REMARK    8  A    between atoms: C_27  and  C_28
REMARK    9  A    between atoms: C_28  and  C_29
REMARK   10  A    between atoms: C_29  and  C_30
REMARK   11  A    between atoms: C_29  and  C_31
REMARK   12  A    between atoms: C_32  and  C_33
REMARK   13  A    between atoms: C_33  and  O_34
REMARK                            x       y       z     vdW  Elec       q    Type
REMARK                         _______ _______ _______ _____ _____    ______ ____
ROOT
ATOM      1  C   UNL     1      -0.008  -4.266  -0.094  0.00  0.00    +0.075 A 
ATOM      2  C   UNL     1       1.073  -5.032  -0.392  0.00  0.00    +0.035 A 
ATOM      3  C   UNL     1       0.585  -6.348  -0.555  0.00  0.00    +0.153 A 
ATOM      4  N   UNL     1      -0.717  -6.302  -0.353  0.00  0.00    -0.168 NA
ATOM      5  N   UNL     1      -1.088  -5.103  -0.077  0.00  0.00    -0.276 N 
ATOM      6  H   UNL     1      -2.000  -4.831   0.113  0.00  0.00    +0.189 HD
ATOM      7  C   UNL     1       1.729  -7.218  -0.882  0.00  0.00    +0.268 C 
ATOM      8  O   UNL     1       1.655  -8.414  -1.086  0.00  0.00    -0.268 OA
ATOM      9  N   UNL     1       2.866  -6.503  -0.923  0.00  0.00    -0.283 N 
ATOM     10  C   UNL     1       2.558  -5.099  -0.626  0.00  0.00    +0.141 C 
ENDROOT
BRANCH   1  15
ATOM     11  C   UNL     1      -0.033   1.403   0.922  0.00  0.00    +0.045 C 
ATOM     12  C   UNL     1      -0.026  -0.081   0.658  0.00  0.00    -0.029 A 
ATOM     13  C   UNL     1       0.613  -0.933   1.540  0.00  0.00    +0.050 A 
ATOM     14  C   UNL     1       0.623  -2.297   1.303  0.00  0.00    +0.126 A 
ATOM     15  C   UNL     1      -0.015  -2.810   0.168  0.00  0.00    +0.043 A 
ATOM     16  C   UNL     1      -0.656  -1.943  -0.715  0.00  0.00    +0.034 A 
ATOM     17  C   UNL     1      -0.663  -0.585  -0.463  0.00  0.00    +0.045 A 
ATOM     18 CL   UNL     1      -1.468   0.495  -1.558  0.00  0.00    -0.083 Cl
BRANCH  14  19
ATOM     19  O   UNL     1       1.252  -3.135   2.169  0.00  0.00    -0.506 OA
ATOM     20  H   UNL     1       0.707  -3.402   2.922  0.00  0.00    +0.292 HD
ENDBRANCH  14  19
ENDBRANCH   1  15
BRANCH  10  21
ATOM     21  C   UNL     1       2.937  -4.227  -1.795  0.00  0.00    -0.019 A 
ATOM     22  C   UNL     1       2.383  -4.461  -3.040  0.00  0.00    +0.006 A 
ATOM     23  C   UNL     1       2.729  -3.662  -4.114  0.00  0.00    +0.004 A 
ATOM     24  C   UNL     1       3.631  -2.628  -3.946  0.00  0.00    +0.045 A 
ATOM     25  C   UNL     1       4.188  -2.392  -2.698  0.00  0.00    +0.121 A 
ATOM     26  C   UNL     1       3.834  -3.191  -1.620  0.00  0.00    +0.051 A 
BRANCH  25  27
ATOM     27  O   UNL     1       5.074  -1.375  -2.530  0.00  0.00    -0.492 OA
BRANCH  27  28
ATOM     28  C   UNL     1       5.387  -0.590  -3.682  0.00  0.00    +0.229 C 
BRANCH  28  29
ATOM     29  C   UNL     1       6.394   0.497  -3.300  0.00  0.00    +0.044 C 
BRANCH  29  30
ATOM     30  C   UNL     1       6.729   1.337  -4.534  0.00  0.00    -0.014 C 
ATOM     31  C   UNL     1       5.478   2.088  -4.995  0.00  0.00    +0.007 C 
ATOM     32  C   UNL     1       7.827   2.343  -4.183  0.00  0.00    +0.007 C 
ENDBRANCH  29  30
ENDBRANCH  28  29
ENDBRANCH  27  28
ENDBRANCH  25  27
ENDBRANCH  10  21
BRANCH   9  33
ATOM     33  C   UNL     1       4.198  -7.037  -1.218  0.00  0.00    +0.137 C 
BRANCH  33  34
ATOM     34  C   UNL     1       4.382  -7.140  -2.733  0.00  0.00    +0.175 C 
BRANCH  34  35
ATOM     35  O   UNL     1       4.473  -5.828  -3.292  0.00  0.00    -0.393 OA
ATOM     36  H   UNL     1       4.592  -5.817  -4.252  0.00  0.00    +0.209 HD
ENDBRANCH  34  35
ENDBRANCH  33  34
ENDBRANCH   9  33
TORSDOF 10
