REMARK  Name = ZINC46810894
REMARK  9 active torsions:
REMARK  status: ('A' for Active; 'I' for Inactive)
REMARK    1  A    between atoms: C_1  and  O_2
REMARK    2  A    between atoms: O_2  and  C_3
REMARK    3  A    between atoms: C_7  and  C_11
REMARK    4  A    between atoms: C_8  and  O_9
REMARK    5  A    between atoms: O_9  and  C_10
REMARK    6  A    between atoms: C_11  and  C_13
REMARK    7  A    between atoms: C_11  and  C_25
REMARK    8  A    between atoms: C_13  and  N_14
REMARK    9  A    between atoms: C_15  and  C_17
REMARK                            x       y       z     vdW  Elec       q    Type
REMARK                         _______ _______ _______ _____ _____    ______ ____
ROOT
ATOM      1  C   UNL     1       1.394  -4.134   2.219  0.00  0.00    +0.072 C 
ENDROOT
BRANCH   1   2
ATOM      2  C   UNL     1       2.837  -4.570   2.229  0.00  0.00    -0.013 A 
ATOM      3  C   UNL     1       3.761  -4.252   3.149  0.00  0.00    +0.088 A 
ATOM      4  N   UNL     1       4.958  -4.830   2.826  0.00  0.00    -0.360 N 
ATOM      5  H   UNL     1       5.776  -4.744   3.342  0.00  0.00    +0.165 HD
ATOM      6  C   UNL     1       4.831  -5.553   1.661  0.00  0.00    +0.047 A 
ATOM      7  C   UNL     1       3.494  -5.427   1.239  0.00  0.00    +0.003 A 
ATOM      8  C   UNL     1       3.069  -6.068   0.074  0.00  0.00    +0.010 A 
ATOM      9  C   UNL     1       3.953  -6.818  -0.649  0.00  0.00    +0.001 A 
ATOM     10  C   UNL     1       5.271  -6.949  -0.235  0.00  0.00    +0.002 A 
ATOM     11  C   UNL     1       5.714  -6.317   0.907  0.00  0.00    +0.026 A 
ENDBRANCH   1   2
BRANCH   1  16
ATOM     12  C   UNL     1       0.626  -0.619   1.042  0.00  0.00    +0.162 A 
ATOM     13  C   UNL     1       1.202   0.137   2.051  0.00  0.00    +0.049 A 
ATOM     14  C   UNL     1       1.836  -0.490   3.108  0.00  0.00    +0.004 A 
ATOM     15  C   UNL     1       1.897  -1.870   3.161  0.00  0.00    +0.008 A 
ATOM     16  C   UNL     1       1.325  -2.630   2.158  0.00  0.00    +0.007 A 
ATOM     17  C   UNL     1       0.683  -2.008   1.099  0.00  0.00    +0.165 A 
BRANCH  12  19
ATOM     18  C   UNL     1      -0.017   1.425   0.010  0.00  0.00    +0.277 C 
ATOM     19  O   UNL     1       0.002  -0.004   0.002  0.00  0.00    -0.491 OA
ENDBRANCH  12  19
BRANCH  17  20
ATOM     20  O   UNL     1       0.115  -2.754   0.114  0.00  0.00    -0.491 OA
ATOM     21  C   UNL     1       0.940  -3.091  -1.003  0.00  0.00    +0.277 C 
ENDBRANCH  17  20
ENDBRANCH   1  16
BRANCH   1  22
ATOM     22  C   UNL     1       0.704  -4.625   3.493  0.00  0.00    +0.117 C 
BRANCH  22  23
ATOM     23  N   UNL     1       0.666  -6.089   3.495  0.00  0.00    -0.310 N 
ATOM     24  C   UNL     1       0.101  -6.747   4.526  0.00  0.00    +0.244 C 
ATOM     25  O   UNL     1      -0.377  -6.126   5.455  0.00  0.00    -0.270 OA
ATOM     26  H   UNL     1       1.048  -6.585   2.753  0.00  0.00    +0.149 HD
BRANCH  24  27
ATOM     27  C   UNL     1       0.063  -8.226   4.528  0.00  0.00    +0.040 A 
ATOM     28  C   UNL     1       0.616  -8.942   3.465  0.00  0.00    +0.051 A 
ATOM     29  C   UNL     1       0.576 -10.323   3.472  0.00  0.00    +0.125 A 
ATOM     30  C   UNL     1      -0.011 -10.996   4.532  0.00  0.00    +0.053 A 
ATOM     31  C   UNL     1      -0.561 -10.290   5.587  0.00  0.00    +0.021 A 
ATOM     32  C   UNL     1      -0.522  -8.910   5.594  0.00  0.00    +0.028 A 
ATOM     33 BR   UNL     1      -1.361 -11.218   7.028  0.00  0.00    -0.050 Br
ATOM     34  F   UNL     1       1.111 -11.018   2.445  0.00  0.00    -0.205 F 
ENDBRANCH  24  27
ENDBRANCH  22  23
ENDBRANCH   1  22
TORSDOF 7
