REMARK  Name = ZINC01114663
REMARK  12 active torsions:
REMARK  status: ('A' for Active; 'I' for Inactive)
REMARK    1  A    between atoms: C_1  and  C_2
REMARK    2  A    between atoms: C_2  and  C_3
REMARK    3  A    between atoms: C_2  and  C_4
REMARK    4  A    between atoms: C_7  and  C_10
REMARK    5  A    between atoms: C_12  and  C_37
REMARK    6  A    between atoms: C_13  and  S_22
REMARK    7  A    between atoms: S_22  and  C_23
REMARK    8  A    between atoms: C_23  and  C_24
REMARK    9  A    between atoms: N_26  and  C_27
REMARK   10  A    between atoms: C_32  and  C_33
REMARK   11  A    between atoms: C_33  and  O_35
REMARK   12  A    between atoms: O_35  and  C_36
REMARK                            x       y       z     vdW  Elec       q    Type
REMARK                         _______ _______ _______ _____ _____    ______ ____
ROOT
ATOM      1  C   UNL     1      -3.645  -1.925   0.054  0.00  0.00    +0.097 C 
ATOM      2  C   UNL     1      -2.177  -1.617   0.035  0.00  0.00    +0.069 C 
ATOM      3  C   UNL     1      -1.730  -0.332   0.039  0.00  0.00    +0.080 C 
ATOM      4  N   UNL     1      -2.627   0.710   0.074  0.00  0.00    -0.311 N 
ATOM      5  C   UNL     1      -3.914   0.510   0.487  0.00  0.00    +0.016 C 
ATOM      6  C   UNL     1      -4.446  -0.731   0.507  0.00  0.00    +0.024 C 
ATOM      7  C   UNL     1      -5.762  -0.948   0.953  0.00  0.00    +0.162 C 
ATOM      8  O   UNL     1      -6.214  -2.076   0.948  0.00  0.00    -0.292 OA
ATOM      9  C   UNL     1      -6.620   0.190   1.433  0.00  0.00    +0.080 C 
ATOM     10  C   UNL     1      -5.718   1.287   2.007  0.00  0.00    +0.014 C 
ATOM     11  C   UNL     1      -4.719   1.708   0.927  0.00  0.00    +0.051 C 
ATOM     12  H   UNL     1      -2.311   1.718  -0.233  0.00  0.00    +0.152 HD
ENDROOT
BRANCH   1  16
ATOM     13  C   UNL     1      -4.893  -3.040  -3.876  0.00  0.00    -0.045 A 
ATOM     14  C   UNL     1      -5.039  -3.928  -2.826  0.00  0.00    +0.004 A 
ATOM     15  C   UNL     1      -4.635  -3.567  -1.554  0.00  0.00    +0.005 A 
ATOM     16  C   UNL     1      -4.085  -2.319  -1.332  0.00  0.00    -0.035 A 
ATOM     17  C   UNL     1      -3.944  -1.429  -2.381  0.00  0.00    +0.005 A 
ATOM     18  C   UNL     1      -4.343  -1.792  -3.653  0.00  0.00    +0.004 A 
BRANCH  13  20
ATOM     19  C   UNL     1      -6.412  -2.463  -5.749  0.00  0.00    +0.012 C 
ATOM     20  C   UNL     1      -5.334  -3.434  -5.262  0.00  0.00    +0.013 C 
ATOM     21  C   UNL     1      -4.135  -3.383  -6.212  0.00  0.00    +0.012 C 
ENDBRANCH  13  20
ENDBRANCH   1  16
BRANCH   2  22
ATOM     22  C   UNL     1      -1.231  -2.692   0.013  0.00  0.00    +0.098 C 
ATOM     23  N   UNL     1      -0.481  -3.544  -0.005  0.00  0.00    -0.191 NA
ENDBRANCH   2  22
BRANCH   3  24
ATOM     24  S   UNL     1       0.001  -0.003   0.006  0.00  0.00    -0.100 S 
BRANCH  24  25
ATOM     25  C   UNL     1      -0.023   1.807   0.025  0.00  0.00    +0.171 C 
BRANCH  25  26
ATOM     26  C   UNL     1       1.391   2.329   0.000  0.00  0.00    +0.227 C 
ATOM     27  O   UNL     1       2.322   1.553  -0.027  0.00  0.00    -0.275 OA
ATOM     28  N   UNL     1       1.619   3.657   0.009  0.00  0.00    -0.284 N 
ATOM     29  H   UNL     1       0.776   4.360  -0.059  0.00  0.00    +0.155 HD
BRANCH  28  30
ATOM     30  C   UNL     1       2.922   4.138   0.103  0.00  0.00    +0.047 A 
ATOM     31  C   UNL     1       3.911   3.364   0.695  0.00  0.00    +0.024 A 
ATOM     32  C   UNL     1       5.202   3.843   0.786  0.00  0.00    +0.002 A 
ATOM     33  C   UNL     1       5.522   5.097   0.291  0.00  0.00    +0.001 A 
ATOM     34  C   UNL     1       4.554   5.880  -0.299  0.00  0.00    +0.017 A 
ATOM     35  C   UNL     1       3.244   5.406  -0.405  0.00  0.00    +0.080 A 
BRANCH  35  36
ATOM     36  C   UNL     1       2.205   6.236  -1.042  0.00  0.00    +0.341 C 
ATOM     37  O   UNL     1       1.048   5.862  -1.048  0.00  0.00    -0.245 OA
BRANCH  36  38
ATOM     38  O   UNL     1       2.537   7.408  -1.616  0.00  0.00    -0.464 OA
ATOM     39  C   UNL     1       1.462   8.172  -2.224  0.00  0.00    +0.280 C 
ENDBRANCH  36  38
ENDBRANCH  35  36
ENDBRANCH  28  30
ENDBRANCH  25  26
ENDBRANCH  24  25
ENDBRANCH   3  24
TORSDOF 9
