REMARK  Name = ZINC00059260
REMARK  10 active torsions:
REMARK  status: ('A' for Active; 'I' for Inactive)
REMARK    1  A    between atoms: C_1  and  C_2
REMARK    2  A    between atoms: C_3  and  C_21
REMARK    3  A    between atoms: C_4  and  C_12
REMARK    4  A    between atoms: C_6  and  C_10
REMARK    5  A    between atoms: C_7  and  N_9
REMARK    6  A    between atoms: C_15  and  C_18
REMARK    7  A    between atoms: C_18  and  C_19
REMARK    8  A    between atoms: C_18  and  C_20
REMARK    9  A    between atoms: C_21  and  O_23
REMARK   10  A    between atoms: O_23  and  C_24
REMARK                            x       y       z     vdW  Elec       q    Type
REMARK                         _______ _______ _______ _____ _____    ______ ____
ROOT
ATOM      1  C   UNL     1      -1.976   3.088   2.578  0.00  0.00    +0.087 C 
ATOM      2  C   UNL     1      -1.458   2.607   1.247  0.00  0.00    +0.115 C 
ATOM      3  C   UNL     1      -0.527   1.645   1.226  0.00  0.00    +0.087 C 
ATOM      4  C   UNL     1       0.025   1.126  -0.074  0.00  0.00    +0.105 C 
ATOM      5  C   UNL     1      -0.880   1.529  -1.207  0.00  0.00    +0.098 C 
ATOM      6  C   UNL     1      -1.801   2.509  -1.044  0.00  0.00    +0.198 C 
ATOM      7  O   UNL     1      -1.946   3.157   0.125  0.00  0.00    -0.445 OA
ENDROOT
BRANCH   4   8
ATOM      8  C   UNL     1       1.399   1.702  -0.301  0.00  0.00    -0.034 A 
ATOM      9  C   UNL     1       1.567   3.071  -0.397  0.00  0.00    +0.005 A 
ATOM     10  C   UNL     1       2.828   3.600  -0.600  0.00  0.00    +0.004 A 
ATOM     11  C   UNL     1       3.919   2.759  -0.718  0.00  0.00    -0.045 A 
ATOM     12  C   UNL     1       3.750   1.390  -0.628  0.00  0.00    +0.004 A 
ATOM     13  C   UNL     1       2.490   0.862  -0.419  0.00  0.00    +0.005 A 
BRANCH  11  14
ATOM     14  C   UNL     1       5.293   3.335  -0.946  0.00  0.00    +0.013 C 
ATOM     15  C   UNL     1       5.301   4.136  -2.249  0.00  0.00    +0.012 C 
ATOM     16  C   UNL     1       5.660   4.255   0.220  0.00  0.00    +0.012 C 
ENDBRANCH  11  14
ENDBRANCH   4   8
BRANCH   6  17
ATOM     17  N   UNL     1      -2.609   2.848  -2.100  0.00  0.00    -0.328 N 
ATOM     18  H   UNL     1      -3.273   3.548  -1.997  0.00  0.00    +0.145 HD
ATOM     19  H   UNL     1      -2.516   2.389  -2.949  0.00  0.00    +0.145 HD
ENDBRANCH   6  17
BRANCH   5  20
ATOM     20  C   UNL     1      -0.766   0.871  -2.473  0.00  0.00    +0.101 C 
ATOM     21  N   UNL     1      -0.675   0.348  -3.478  0.00  0.00    -0.191 NA
ENDBRANCH   5  20
BRANCH   3  22
ATOM     22  C   UNL     1      -0.053   1.108   2.447  0.00  0.00    +0.339 C 
ATOM     23  O   UNL     1      -0.399  -0.004   2.798  0.00  0.00    -0.245 OA
BRANCH  22  24
ATOM     24  O   UNL     1       0.783   1.830   3.223  0.00  0.00    -0.465 OA
ATOM     25  C   UNL     1       1.222   1.226   4.441  0.00  0.00    +0.280 C 
ENDBRANCH  22  24
ENDBRANCH   3  22
TORSDOF 6
