REMARK  Name = ZINC15957998
REMARK  6 active torsions:
REMARK  status: ('A' for Active; 'I' for Inactive)
REMARK    1  A    between atoms: C_1  and  C_2
REMARK    2  A    between atoms: C_5  and  C_8
REMARK    3  A    between atoms: N_26  and  C_29
REMARK    4  A    between atoms: C_34  and  C_35
REMARK    5  A    between atoms: N_37  and  C_38
REMARK    6  A    between atoms: C_38  and  C_39
REMARK                            x       y       z     vdW  Elec       q    Type
REMARK                         _______ _______ _______ _____ _____    ______ ____
ROOT
ATOM      1  C   UNL     1       2.494   1.572   0.064  0.00  0.00    +0.155 C 
ATOM      2  C   UNL     1       3.231   2.497   1.013  0.00  0.00    +0.046 A 
ATOM      3  C   UNL     1       2.692   3.622   1.529  0.00  0.00    -0.015 A 
ATOM      4  C   UNL     1       3.709   4.225   2.369  0.00  0.00    +0.003 A 
ATOM      5  C   UNL     1       3.726   5.387   3.147  0.00  0.00    +0.010 A 
ATOM      6  C   UNL     1       4.885   5.659   3.832  0.00  0.00    +0.001 A 
ATOM      7  C   UNL     1       5.992   4.829   3.762  0.00  0.00    +0.002 A 
ATOM      8  C   UNL     1       6.003   3.674   3.000  0.00  0.00    +0.026 A 
ATOM      9  C   UNL     1       4.840   3.372   2.295  0.00  0.00    +0.047 A 
ATOM     10  N   UNL     1       4.513   2.338   1.466  0.00  0.00    -0.356 N 
ATOM     11  H   UNL     1       5.100   1.601   1.234  0.00  0.00    +0.166 HD
ATOM     12  C   UNL     1       1.296   4.132   1.272  0.00  0.00    +0.069 C 
ATOM     13  C   UNL     1       0.745   3.485  -0.005  0.00  0.00    +0.170 C 
ATOM     14  N   UNL     1       1.107   2.051   0.017  0.00  0.00    -0.260 N 
ATOM     15  C   UNL     1      -0.031   1.354   0.009  0.00  0.00    +0.317 C 
ATOM     16  O   UNL     1      -0.083   0.141  -0.029  0.00  0.00    -0.252 OA
ATOM     17  N   UNL     1      -1.110   2.149   0.040  0.00  0.00    -0.192 N 
ATOM     18  C   UNL     1      -0.769   3.453   0.053  0.00  0.00    +0.248 C 
ATOM     19  O   UNL     1      -1.518   4.405   0.098  0.00  0.00    -0.273 OA
ENDROOT
BRANCH   1  24
ATOM     20  C   UNL     1       4.862   1.837  -5.201  0.00  0.00    +0.044 C 
ATOM     21  C   UNL     1       4.245   1.768  -3.828  0.00  0.00    -0.050 A 
ATOM     22  C   UNL     1       3.618   2.879  -3.296  0.00  0.00    +0.004 A 
ATOM     23  C   UNL     1       3.051   2.815  -2.036  0.00  0.00    +0.006 A 
ATOM     24  C   UNL     1       3.112   1.641  -1.309  0.00  0.00    -0.021 A 
ATOM     25  C   UNL     1       3.744   0.532  -1.839  0.00  0.00    +0.006 A 
ATOM     26  C   UNL     1       4.306   0.594  -3.101  0.00  0.00    +0.004 A 
ENDBRANCH   1  24
BRANCH  17  27
ATOM     27  C   UNL     1      -2.427   1.683   0.060  0.00  0.00    +0.058 A 
ATOM     28  C   UNL     1      -3.060   1.436   1.270  0.00  0.00    +0.025 A 
ATOM     29  C   UNL     1      -4.362   0.975   1.288  0.00  0.00    +0.002 A 
ATOM     30  C   UNL     1      -5.044   0.756   0.102  0.00  0.00    +0.001 A 
ATOM     31  C   UNL     1      -4.430   0.996  -1.108  0.00  0.00    +0.015 A 
ATOM     32  C   UNL     1      -3.116   1.468  -1.142  0.00  0.00    +0.059 A 
BRANCH  32  33
ATOM     33  C   UNL     1      -2.456   1.734  -2.434  0.00  0.00    +0.246 C 
ATOM     34  O   UNL     1      -1.310   2.140  -2.459  0.00  0.00    -0.270 OA
ATOM     35  N   UNL     1      -3.122   1.526  -3.587  0.00  0.00    -0.308 N 
ATOM     36  H   UNL     1      -4.036   1.202  -3.567  0.00  0.00    +0.149 HD
BRANCH  35  37
ATOM     37  C   UNL     1      -2.466   1.789  -4.870  0.00  0.00    +0.131 C 
BRANCH  37  38
ATOM     38  C   UNL     1      -3.420   1.479  -5.995  0.00  0.00    -0.016 C 
ATOM     39  C   UNL     1      -3.690   2.392  -6.895  0.00  0.00    +0.005 C 
ENDBRANCH  37  38
ENDBRANCH  35  37
ENDBRANCH  32  33
ENDBRANCH  17  27
TORSDOF 5
