REMARK  Name = ZINC21082646
REMARK  13 active torsions:
REMARK  status: ('A' for Active; 'I' for Inactive)
REMARK    1  A    between atoms: C_1  and  C_2
REMARK    2  A    between atoms: C_2  and  C_3
REMARK    3  A    between atoms: C_3  and  C_5
REMARK    4  A    between atoms: C_3  and  N_6
REMARK    5  A    between atoms: N_6  and  S_7
REMARK    6  A    between atoms: S_7  and  C_10
REMARK    7  A    between atoms: C_13  and  N_16
REMARK    8  A    between atoms: C_17  and  C_19
REMARK    9  A    between atoms: C_19  and  S_20
REMARK   10  A    between atoms: S_20  and  C_21
REMARK   11  A    between atoms: N_26  and  N_27
REMARK   12  A    between atoms: C_28  and  C_29
REMARK   13  A    between atoms: C_28  and  C_30
REMARK                            x       y       z     vdW  Elec       q    Type
REMARK                         _______ _______ _______ _____ _____    ______ ____
ROOT
ATOM      1  N   UNL     1       5.912   3.733  -0.034  0.00  0.00    -0.285 N 
ATOM      2  C   UNL     1       5.087   2.668  -0.030  0.00  0.00    +0.227 C 
ATOM      3  O   UNL     1       5.546   1.545  -0.031  0.00  0.00    -0.275 OA
ATOM      4  H   UNL     1       5.498   4.749  -0.109  0.00  0.00    +0.155 HD
ENDROOT
BRANCH   1   8
ATOM      5  C   UNL     1      10.032   3.178   0.239  0.00  0.00    +0.105 A 
ATOM      6  C   UNL     1       9.257   2.265  -0.452  0.00  0.00    +0.030 A 
ATOM      7  C   UNL     1       7.891   2.446  -0.544  0.00  0.00    +0.025 A 
ATOM      8  C   UNL     1       7.296   3.547   0.058  0.00  0.00    +0.034 A 
ATOM      9  C   UNL     1       8.078   4.465   0.747  0.00  0.00    +0.025 A 
ATOM     10  C   UNL     1       9.442   4.274   0.841  0.00  0.00    +0.030 A 
BRANCH   5  11
ATOM     11  S   UNL     1      11.774   2.943   0.355  0.00  0.00    +0.059 S 
ATOM     12  O   UNL     1      12.203   3.642   1.516  0.00  0.00    -0.153 OA
ATOM     13  O   UNL     1      12.010   1.553   0.173  0.00  0.00    -0.153 OA
BRANCH  11  14
ATOM     14  N   UNL     1      12.460   3.713  -0.941  0.00  0.00    -0.187 NA
ATOM     15  H   UNL     1      12.837   3.115  -1.784  0.00  0.00    +0.148 HD
BRANCH  14  16
ATOM     16  C   UNL     1      12.365   5.170  -1.061  0.00  0.00    +0.073 C 
ATOM     17  C   UNL     1      13.625   5.813  -0.478  0.00  0.00    +0.025 C 
BRANCH  16  19
ATOM     18  C   UNL     1      10.911   5.015  -3.087  0.00  0.00    +0.005 C 
ATOM     19  C   UNL     1      12.233   5.553  -2.536  0.00  0.00    +0.017 C 
ENDBRANCH  16  19
ENDBRANCH  14  16
ENDBRANCH  11  14
ENDBRANCH   5  11
ENDBRANCH   1   8
BRANCH   2  20
ATOM     20  C   UNL     1       3.594   2.871  -0.023  0.00  0.00    +0.173 C 
BRANCH  20  21
ATOM     21  S   UNL     1       2.765   1.262  -0.019  0.00  0.00    -0.075 S 
BRANCH  21  22
ATOM     22  C   UNL     1       1.083   1.784  -0.012  0.00  0.00    +0.211 A 
ATOM     23  N   UNL     1      -0.011   0.967  -0.007  0.00  0.00    -0.186 NA
ATOM     24  C   UNL     1      -1.128   1.755  -0.008  0.00  0.00    +0.232 A 
ATOM     25  N   UNL     1      -0.740   3.007  -0.005  0.00  0.00    -0.245 N 
ATOM     26  N   UNL     1       0.660   3.026  -0.011  0.00  0.00    -0.144 NA
ATOM     27  N   UNL     1      -2.442   1.308  -0.009  0.00  0.00    -0.205 N 
ATOM     28  H   UNL     1      -2.656   0.229  -0.008  0.00  0.00    +0.177 HD
ATOM     29  H   UNL     1      -1.488   3.815   0.002  0.00  0.00    +0.192 HD
BRANCH  27  30
ATOM     30  N   UNL     1      -3.496   2.232  -0.010  0.00  0.00    -0.183 NA
ATOM     31  C   UNL     1      -4.726   1.813  -0.010  0.00  0.00    +0.081 C 
ATOM     32  C   UNL     1      -5.019   0.335  -0.010  0.00  0.00    +0.069 C 
BRANCH  31  33
ATOM     33  C   UNL     1      -5.834   2.784  -0.011  0.00  0.00    +0.086 A 
ATOM     34  C   UNL     1      -5.557   4.154  -0.006  0.00  0.00    +0.029 A 
ATOM     35  C   UNL     1      -6.608   5.051  -0.012  0.00  0.00    +0.004 A 
ATOM     36  C   UNL     1      -7.905   4.554  -0.012  0.00  0.00    +0.020 A 
ATOM     37  C   UNL     1      -8.109   3.187  -0.013  0.00  0.00    +0.111 A 
ATOM     38  N   UNL     1      -7.091   2.351  -0.012  0.00  0.00    -0.254 NA
ENDBRANCH  31  33
ENDBRANCH  27  30
ENDBRANCH  21  22
ENDBRANCH  20  21
ENDBRANCH   2  20
TORSDOF 10
