REMARK  Name = ZINC39724390
REMARK  9 active torsions:
REMARK  status: ('A' for Active; 'I' for Inactive)
REMARK    1  A    between atoms: C_1  and  C_2
REMARK    2  A    between atoms: C_6  and  C_15
REMARK    3  A    between atoms: C_13  and  C_14
REMARK    4  A    between atoms: C_15  and  C_16
REMARK    5  A    between atoms: C_16  and  N_17
REMARK    6  A    between atoms: N_17  and  C_18
REMARK    7  A    between atoms: C_18  and  N_20
REMARK    8  A    between atoms: N_20  and  C_21
REMARK    9  A    between atoms: C_24  and  N_27
REMARK                            x       y       z     vdW  Elec       q    Type
REMARK                         _______ _______ _______ _____ _____    ______ ____
ROOT
ATOM      1  C   UNL     1      -1.473  -6.401  -2.704  0.00  0.00    +0.104 C 
ENDROOT
BRANCH   1   2
ATOM      2  N   UNL     1      -2.391  -6.897  -3.733  0.00  0.00    -0.326 N 
ATOM      3  H   UNL     1      -2.937  -6.273  -4.237  0.00  0.00    +0.148 HD
BRANCH   2   4
ATOM      4  C   UNL     1      -2.478  -8.219  -3.978  0.00  0.00    +0.135 C 
ATOM      5  S   UNL     1      -1.515  -9.320  -3.087  0.00  0.00    -0.019 S 
BRANCH   4   6
ATOM      6  N   UNL     1      -3.323  -8.675  -4.923  0.00  0.00    -0.297 N 
ATOM      7  H   UNL     1      -3.812  -8.049  -5.480  0.00  0.00    +0.154 HD
BRANCH   6   8
ATOM      8  C   UNL     1      -3.496 -10.052  -5.103  0.00  0.00    +0.033 A 
ATOM      9  C   UNL     1      -3.593 -10.890  -4.000  0.00  0.00    +0.025 A 
ATOM     10  C   UNL     1      -3.763 -12.249  -4.180  0.00  0.00    +0.034 A 
ATOM     11  C   UNL     1      -3.836 -12.775  -5.457  0.00  0.00    +0.126 A 
ATOM     12  C   UNL     1      -3.739 -11.943  -6.557  0.00  0.00    +0.034 A 
ATOM     13  C   UNL     1      -3.575 -10.582  -6.384  0.00  0.00    +0.025 A 
BRANCH  11  14
ATOM     14  N   UNL     1      -4.018 -14.232  -5.646  0.00  0.00    +0.056 N 
ATOM     15  O   UNL     1      -4.103 -14.960  -4.686  0.00  0.00    -0.126 OA
ATOM     16  O   UNL     1      -4.082 -14.693  -6.762  0.00  0.00    -0.126 OA
ENDBRANCH  11  14
ENDBRANCH   6   8
ENDBRANCH   4   6
ENDBRANCH   2   4
ENDBRANCH   1   2
BRANCH   1  17
ATOM     17  C   UNL     1      -1.567  -4.876  -2.628  0.00  0.00    +0.035 C 
BRANCH  17  23
ATOM     18  C   UNL     1       5.296  -2.901  -2.508  0.00  0.00    +0.044 C 
ATOM     19  C   UNL     1       3.835  -2.714  -2.187  0.00  0.00    -0.047 A 
ATOM     20  C   UNL     1       3.017  -3.798  -2.158  0.00  0.00    +0.013 A 
ATOM     21  C   UNL     1       1.601  -3.604  -1.844  0.00  0.00    -0.007 A 
ATOM     22  C   UNL     1       0.743  -4.663  -1.802  0.00  0.00    -0.005 C 
ATOM     23  C   UNL     1      -0.707  -4.369  -1.469  0.00  0.00    +0.100 C 
ATOM     24  C   UNL     1      -1.083  -2.928  -1.210  0.00  0.00    +0.224 C 
ATOM     25  O   UNL     1      -2.232  -2.635  -0.937  0.00  0.00    -0.275 OA
ATOM     26  N   UNL     1      -0.157  -1.986  -1.280  0.00  0.00    -0.284 N 
ATOM     27  C   UNL     1       1.119  -2.239  -1.572  0.00  0.00    +0.041 A 
ATOM     28  C   UNL     1       2.050  -1.186  -1.629  0.00  0.00    +0.027 A 
ATOM     29  C   UNL     1       3.353  -1.433  -1.921  0.00  0.00    -0.046 A 
ATOM     30  C   UNL     1       4.316  -0.274  -1.964  0.00  0.00    +0.044 C 
ATOM     31  H   UNL     1      -0.418  -1.067  -1.110  0.00  0.00    +0.155 HD
ENDBRANCH  17  23
ENDBRANCH   1  17
TORSDOF 7
