REMARK  Name = ZINC18192596
REMARK  1 active torsions:
REMARK  status: ('A' for Active; 'I' for Inactive)
REMARK    1  A    between atoms: N_25  and  C_28
REMARK                            x       y       z     vdW  Elec       q    Type
REMARK                         _______ _______ _______ _____ _____    ______ ____
ROOT
ATOM      1  C   UNL     1      -0.017   1.389   0.010  0.00  0.00    +0.001 A 
ATOM      2  C   UNL     1       0.002  -0.004   0.002  0.00  0.00    +0.002 A 
ATOM      3  C   UNL     1       1.178  -0.690  -0.011  0.00  0.00    +0.026 A 
ATOM      4  C   UNL     1       2.396   0.011  -0.016  0.00  0.00    +0.048 A 
ATOM      5  C   UNL     1       2.373   1.428  -0.014  0.00  0.00    -0.001 A 
ATOM      6  C   UNL     1       1.143   2.103   0.002  0.00  0.00    +0.010 A 
ATOM      7  C   UNL     1       3.595   2.125  -0.031  0.00  0.00    +0.017 A 
ATOM      8  C   UNL     1       4.760   1.410  -0.044  0.00  0.00    -0.007 A 
ATOM      9  C   UNL     1       4.723   0.012  -0.028  0.00  0.00    +0.103 A 
ATOM     10  N   UNL     1       3.564  -0.633  -0.020  0.00  0.00    -0.343 N 
ATOM     11  N   UNL     1       5.871  -0.764  -0.010  0.00  0.00    -0.312 N 
ATOM     12  C   UNL     1       5.670  -2.017  -0.751  0.00  0.00    +0.107 C 
ATOM     13  C   UNL     1       6.864  -2.945  -0.519  0.00  0.00    +0.019 C 
ATOM     14  C   UNL     1       8.144  -2.248  -0.989  0.00  0.00    +0.003 C 
ATOM     15  C   UNL     1       8.304  -0.927  -0.232  0.00  0.00    +0.024 C 
ATOM     16  C   UNL     1       7.066  -0.057  -0.467  0.00  0.00    +0.099 C 
ATOM     17  C   UNL     1       7.210   1.250   0.321  0.00  0.00    +0.146 C 
ATOM     18  C   UNL     1       6.058   2.175  -0.083  0.00  0.00    +0.066 C 
ATOM     19  C   UNL     1       7.131   0.960   1.793  0.00  0.00    +0.238 C 
ATOM     20  O   UNL     1       6.136   0.429   2.235  0.00  0.00    -0.274 OA
ATOM     21  N   UNL     1       8.129   1.274   2.631  0.00  0.00    -0.239 N 
ATOM     22  C   UNL     1       9.257   1.861   2.203  0.00  0.00    +0.315 C 
ATOM     23  O   UNL     1      10.129   2.125   3.006  0.00  0.00    -0.252 OA
ATOM     24  N   UNL     1       9.446   2.165   0.910  0.00  0.00    -0.222 N 
ATOM     25  C   UNL     1       8.520   1.900  -0.023  0.00  0.00    +0.240 C 
ATOM     26  O   UNL     1       8.746   2.194  -1.177  0.00  0.00    -0.274 OA
ATOM     27  H   UNL     1       8.037   1.049   3.704  0.00  0.00    +0.159 HD
ATOM     28  H   UNL     1       3.585  -1.732  -0.017  0.00  0.00    +0.167 HD
ENDROOT
BRANCH  24  29
ATOM     29  C   UNL     1      10.700   2.803   0.505  0.00  0.00    +0.086 C 
ATOM     30  C   UNL     1      11.875   1.890   0.860  0.00  0.00    +0.023 C 
ATOM     31  C   UNL     1      13.186   2.557   0.437  0.00  0.00    +0.002 C 
ATOM     32  C   UNL     1      13.338   3.891   1.170  0.00  0.00    +0.000 C 
ATOM     33  C   UNL     1      12.163   4.805   0.815  0.00  0.00    +0.002 C 
ATOM     34  C   UNL     1      10.853   4.138   1.238  0.00  0.00    +0.023 C 
ENDBRANCH  24  29
TORSDOF 1
