REMARK  Name = ZINC02552876
REMARK  8 active torsions:
REMARK  status: ('A' for Active; 'I' for Inactive)
REMARK    1  A    between atoms: C_1  and  C_2
REMARK    2  A    between atoms: C_5  and  N_8
REMARK    3  A    between atoms: C_9  and  C_11
REMARK    4  A    between atoms: N_13  and  N_14
REMARK    5  A    between atoms: C_15  and  C_16
REMARK    6  A    between atoms: C_19  and  O_22
REMARK    7  A    between atoms: O_22  and  C_23
REMARK    8  A    between atoms: C_23  and  C_25
REMARK                            x       y       z     vdW  Elec       q    Type
REMARK                         _______ _______ _______ _____ _____    ______ ____
ROOT
ATOM      1  N   UNL     1       0.645  -8.907  -0.262  0.00  0.00    -0.187 NA
ATOM      2  C   UNL     1       1.834  -8.384  -0.222  0.00  0.00    +0.138 C 
ENDROOT
BRANCH   2   3
ATOM      3  C   UNL     1       1.994  -6.921  -0.161  0.00  0.00    -0.005 A 
ATOM      4  C   UNL     1       3.272  -6.356  -0.117  0.00  0.00    +0.013 A 
ATOM      5  C   UNL     1       3.417  -4.987  -0.060  0.00  0.00    +0.047 A 
ATOM      6  C   UNL     1       2.295  -4.168  -0.046  0.00  0.00    +0.132 A 
ATOM      7  C   UNL     1       1.022  -4.725  -0.083  0.00  0.00    +0.047 A 
ATOM      8  C   UNL     1       0.868  -6.093  -0.145  0.00  0.00    +0.013 A 
BRANCH   6   9
ATOM      9  O   UNL     1       2.442  -2.819   0.011  0.00  0.00    -0.422 OA
BRANCH   9  10
ATOM     10  C   UNL     1       2.834  -2.199  -1.119  0.00  0.00    +0.344 C 
ATOM     11  O   UNL     1       3.126  -2.852  -2.101  0.00  0.00    -0.245 OA
BRANCH  10  12
ATOM     12  C   UNL     1       2.908  -0.725  -1.164  0.00  0.00    +0.059 A 
ATOM     13  C   UNL     1       3.314  -0.079  -2.334  0.00  0.00    +0.016 A 
ATOM     14  C   UNL     1       3.381   1.298  -2.370  0.00  0.00    +0.016 A 
ATOM     15  C   UNL     1       3.047   2.040  -1.249  0.00  0.00    +0.018 A 
ATOM     16  C   UNL     1       2.644   1.406  -0.086  0.00  0.00    +0.016 A 
ATOM     17  C   UNL     1       2.573   0.029  -0.037  0.00  0.00    +0.016 A 
ATOM     18 BR   UNL     1       3.142   3.928  -1.307  0.00  0.00    -0.050 Br
ENDBRANCH  10  12
ENDBRANCH   9  10
ENDBRANCH   6   9
ENDBRANCH   2   3
BRANCH   1  21
ATOM     19  C   UNL     1      -0.740 -10.840  -0.362  0.00  0.00    +0.318 C 
ATOM     20  O   UNL     1      -1.720 -10.122  -0.349  0.00  0.00    -0.263 OA
ATOM     21  N   UNL     1       0.493 -10.298  -0.321  0.00  0.00    -0.199 N 
ATOM     22  H   UNL     1       1.275 -10.871  -0.332  0.00  0.00    +0.178 HD
BRANCH  19  24
ATOM     23  N   UNL     1      -2.135 -12.863  -0.467  0.00  0.00    -0.278 N 
ATOM     24  C   UNL     1      -0.902 -12.321  -0.425  0.00  0.00    +0.305 C 
ATOM     25  O   UNL     1       0.077 -13.039  -0.439  0.00  0.00    -0.265 OA
ATOM     26  H   UNL     1      -2.914 -12.290  -0.541  0.00  0.00    +0.155 HD
BRANCH  23  31
ATOM     27  C   UNL     1      -2.768 -18.493  -0.206  0.00  0.00    +0.044 C 
ATOM     28  C   UNL     1      -2.600 -16.997  -0.275  0.00  0.00    -0.050 A 
ATOM     29  C   UNL     1      -1.484 -16.402   0.284  0.00  0.00    +0.005 A 
ATOM     30  C   UNL     1      -1.327 -15.031   0.222  0.00  0.00    +0.023 A 
ATOM     31  C   UNL     1      -2.291 -14.250  -0.402  0.00  0.00    +0.034 A 
ATOM     32  C   UNL     1      -3.414 -14.851  -0.958  0.00  0.00    +0.023 A 
ATOM     33  C   UNL     1      -3.562 -16.223  -0.897  0.00  0.00    +0.005 A 
ENDBRANCH  23  31
ENDBRANCH  19  24
ENDBRANCH   1  21
TORSDOF 7
