REMARK  Name = ZINC15967858
REMARK  8 active torsions:
REMARK  status: ('A' for Active; 'I' for Inactive)
REMARK    1  A    between atoms: C_1  and  C_2
REMARK    2  A    between atoms: C_2  and  C_3
REMARK    3  A    between atoms: C_2  and  C_4
REMARK    4  A    between atoms: C_4  and  C_5
REMARK    5  A    between atoms: C_5  and  N_6
REMARK    6  A    between atoms: C_7  and  C_9
REMARK    7  A    between atoms: C_14  and  N_15
REMARK    8  A    between atoms: C_31  and  C_36
REMARK                            x       y       z     vdW  Elec       q    Type
REMARK                         _______ _______ _______ _____ _____    ______ ____
ROOT
ATOM      1  N   UNL     1      -4.841   4.419  -0.765  0.00  0.00    -0.192 N 
ATOM      2  C   UNL     1      -4.743   3.315   0.004  0.00  0.00    +0.248 C 
ATOM      3  O   UNL     1      -5.609   2.493   0.215  0.00  0.00    -0.273 OA
ATOM      4  C   UNL     1      -3.330   3.315   0.550  0.00  0.00    +0.170 C 
ATOM      5  C   UNL     1      -2.581   2.077   0.041  0.00  0.00    +0.069 C 
ATOM      6  C   UNL     1      -1.100   2.360   0.031  0.00  0.00    -0.015 A 
ATOM      7  C   UNL     1      -0.017   1.394   0.010  0.00  0.00    +0.003 A 
ATOM      8  C   UNL     1       0.002  -0.004   0.002  0.00  0.00    +0.010 A 
ATOM      9  C   UNL     1       1.236  -0.607  -0.012  0.00  0.00    +0.001 A 
ATOM     10  C   UNL     1       2.412   0.124  -0.019  0.00  0.00    +0.002 A 
ATOM     11  C   UNL     1       2.422   1.508  -0.012  0.00  0.00    +0.026 A 
ATOM     12  C   UNL     1       1.184   2.147   0.002  0.00  0.00    +0.047 A 
ATOM     13  N   UNL     1       0.835   3.467   0.011  0.00  0.00    -0.356 N 
ATOM     14  H   UNL     1       1.459   4.210   0.005  0.00  0.00    +0.166 HD
ATOM     15  C   UNL     1      -0.529   3.583   0.030  0.00  0.00    +0.046 A 
ATOM     16  C   UNL     1      -1.317   4.878   0.063  0.00  0.00    +0.155 C 
ATOM     17  N   UNL     1      -2.729   4.506  -0.089  0.00  0.00    -0.260 N 
ATOM     18  C   UNL     1      -3.688   5.102  -0.800  0.00  0.00    +0.317 C 
ATOM     19  O   UNL     1      -3.534   6.142  -1.409  0.00  0.00    -0.252 OA
ENDROOT
BRANCH   1  25
ATOM     20  C   UNL     1      -6.940   5.634  -0.815  0.00  0.00    +0.059 A 
ATOM     21  C   UNL     1      -8.092   6.016  -1.505  0.00  0.00    +0.015 A 
ATOM     22  C   UNL     1      -8.306   5.566  -2.790  0.00  0.00    +0.001 A 
ATOM     23  C   UNL     1      -7.378   4.740  -3.404  0.00  0.00    +0.002 A 
ATOM     24  C   UNL     1      -6.232   4.359  -2.736  0.00  0.00    +0.025 A 
ATOM     25  C   UNL     1      -6.001   4.803  -1.442  0.00  0.00    +0.058 A 
BRANCH  20  27
ATOM     26  N   UNL     1      -7.613   6.907   1.162  0.00  0.00    -0.311 N 
ATOM     27  C   UNL     1      -6.708   6.108   0.563  0.00  0.00    +0.246 C 
ATOM     28  O   UNL     1      -5.701   5.777   1.159  0.00  0.00    -0.270 OA
ATOM     29  H   UNL     1      -8.417   7.170   0.688  0.00  0.00    +0.149 HD
BRANCH  26  30
ATOM     30  C   UNL     1      -7.383   7.377   2.531  0.00  0.00    +0.105 C 
BRANCH  30  31
ATOM     31  C   UNL     1      -8.553   8.261   2.969  0.00  0.00    +0.022 C 
BRANCH  31  33
ATOM     32  C   UNL     1      -7.084   9.664   4.425  0.00  0.00    +0.007 C 
ATOM     33  C   UNL     1      -8.313   8.752   4.398  0.00  0.00    -0.016 C 
ATOM     34  C   UNL     1      -9.537   9.532   4.882  0.00  0.00    +0.007 C 
ENDBRANCH  31  33
ENDBRANCH  30  31
ENDBRANCH  26  30
ENDBRANCH  20  27
ENDBRANCH   1  25
BRANCH  16  35
ATOM     35  C   UNL     1      -0.882   5.777  -1.065  0.00  0.00    -0.021 A 
ATOM     36  C   UNL     1      -1.361   5.562  -2.344  0.00  0.00    +0.006 A 
ATOM     37  C   UNL     1      -0.965   6.391  -3.378  0.00  0.00    +0.000 A 
ATOM     38  C   UNL     1      -0.085   7.428  -3.134  0.00  0.00    +0.000 A 
ATOM     39  C   UNL     1       0.398   7.640  -1.856  0.00  0.00    +0.000 A 
ATOM     40  C   UNL     1      -0.001   6.814  -0.821  0.00  0.00    +0.006 A 
ENDBRANCH  16  35
TORSDOF 6
