REMARK  Name = ZINC45348331
REMARK  6 active torsions:
REMARK  status: ('A' for Active; 'I' for Inactive)
REMARK    1  A    between atoms: C_1  and  N_2
REMARK    2  A    between atoms: N_2  and  C_3
REMARK    3  A    between atoms: C_3  and  C_4
REMARK    4  A    between atoms: N_15  and  C_16
REMARK    5  A    between atoms: C_16  and  C_18
REMARK    6  A    between atoms: C_16  and  C_24
REMARK                            x       y       z     vdW  Elec       q    Type
REMARK                         _______ _______ _______ _____ _____    ______ ____
ROOT
ATOM      1  C   UNL     1      -0.018   1.461   0.010  0.00  0.00    +0.134 C 
ATOM      2  N   UNL     1       0.002  -0.004   0.002  0.00  0.00    -0.284 N 
ATOM      3  C   UNL     1       0.000  -0.672  -1.169  0.00  0.00    +0.303 C 
ATOM      4  O   UNL     1       0.017  -1.887  -1.175  0.00  0.00    -0.253 OA
ATOM      5  N   UNL     1      -0.020   0.009  -2.332  0.00  0.00    -0.292 N 
ATOM      6  H   UNL     1      -0.033   0.978  -2.327  0.00  0.00    +0.151 HD
ENDROOT
BRANCH   2   7
ATOM      7  C   UNL     1       0.024  -0.743   1.267  0.00  0.00    +0.144 C 
BRANCH   7   8
ATOM      8  C   UNL     1      -1.389  -1.016   1.714  0.00  0.00    -0.026 A 
ATOM      9  C   UNL     1      -2.046  -0.104   2.518  0.00  0.00    +0.009 A 
ATOM     10  C   UNL     1      -3.342  -0.349   2.931  0.00  0.00    +0.050 A 
ATOM     11  C   UNL     1      -3.986  -1.512   2.538  0.00  0.00    +0.166 A 
ATOM     12  C   UNL     1      -3.325  -2.431   1.728  0.00  0.00    +0.167 A 
ATOM     13  C   UNL     1      -2.027  -2.175   1.314  0.00  0.00    +0.054 A 
ATOM     14  O   UNL     1      -4.163  -3.480   1.483  0.00  0.00    -0.453 OA
ATOM     15  C   UNL     1      -5.194  -3.389   2.483  0.00  0.00    +0.466 C 
ATOM     16  O   UNL     1      -5.239  -1.985   2.802  0.00  0.00    -0.453 OA
ENDBRANCH   7   8
ENDBRANCH   2   7
BRANCH   5  17
ATOM     17  C   UNL     1      -0.022  -0.717  -3.605  0.00  0.00    +0.108 C 
BRANCH  17  18
ATOM     18  C   UNL     1      -0.645   0.144  -4.673  0.00  0.00    -0.027 A 
ATOM     19  C   UNL     1      -0.366   1.498  -4.719  0.00  0.00    +0.005 A 
ATOM     20  C   UNL     1      -0.937   2.288  -5.699  0.00  0.00    +0.000 A 
ATOM     21  C   UNL     1      -1.786   1.725  -6.634  0.00  0.00    +0.000 A 
ATOM     22  C   UNL     1      -2.064   0.371  -6.588  0.00  0.00    +0.000 A 
ATOM     23  C   UNL     1      -1.490  -0.420  -5.611  0.00  0.00    +0.005 A 
ENDBRANCH  17  18
BRANCH  17  24
ATOM     24  C   UNL     1       1.416  -1.059  -3.999  0.00  0.00    +0.014 C 
ATOM     25  C   UNL     1       1.722  -2.514  -4.361  0.00  0.00    +0.006 C 
ATOM     26  C   UNL     1       2.223  -1.933  -3.037  0.00  0.00    +0.006 C 
ENDBRANCH  17  24
ENDBRANCH   5  17
TORSDOF 5
