REMARK  Name = ZINC12936540
REMARK  3 active torsions:
REMARK  status: ('A' for Active; 'I' for Inactive)
REMARK    1  A    between atoms: C_8  and  C_24
REMARK    2  A    between atoms: N_9  and  C_11
REMARK    3  A    between atoms: C_11  and  N_12
REMARK                            x       y       z     vdW  Elec       q    Type
REMARK                         _______ _______ _______ _____ _____    ______ ____
ROOT
ATOM      1  C   UNL     1       0.587   1.562   0.889  0.00  0.00    +0.000 A 
ATOM      2  C   UNL     1       1.783   2.186   0.585  0.00  0.00    +0.000 A 
ATOM      3  C   UNL     1       2.865   1.434   0.175  0.00  0.00    +0.005 A 
ATOM      4  C   UNL     1       2.761   0.055   0.068  0.00  0.00    -0.030 A 
ATOM      5  C   UNL     1       1.569  -0.567   0.374  0.00  0.00    -0.041 A 
ATOM      6  C   UNL     1       0.481   0.190   0.783  0.00  0.00    +0.004 A 
ATOM      7  C   UNL     1       1.411  -2.063   0.283  0.00  0.00    +0.063 C 
ATOM      8  C   UNL     1       2.540  -2.657  -0.558  0.00  0.00    +0.149 C 
ATOM      9  N   UNL     1       3.822  -2.142  -0.051  0.00  0.00    -0.271 NA
ATOM     10  C   UNL     1       3.968  -0.722  -0.389  0.00  0.00    +0.122 C 
ENDROOT
BRANCH   8  11
ATOM     11  C   UNL     1       2.519  -4.160  -0.446  0.00  0.00    +0.228 C 
ATOM     12  O   UNL     1       3.087  -4.707   0.475  0.00  0.00    -0.274 OA
ATOM     13  N   UNL     1       1.868  -4.895  -1.369  0.00  0.00    -0.328 N 
ATOM     14  H   UNL     1       1.413  -4.457  -2.106  0.00  0.00    +0.145 HD
ATOM     15  H   UNL     1       1.854  -5.862  -1.296  0.00  0.00    +0.145 HD
ENDBRANCH   8  11
BRANCH   9  16
ATOM     16  C   UNL     1       4.949  -2.925  -0.575  0.00  0.00    +0.206 C 
BRANCH  16  17
ATOM     17  N   UNL     1       6.092  -2.805   0.333  0.00  0.00    -0.210 N 
ATOM     18  C   UNL     1       7.037  -1.847   0.239  0.00  0.00    +0.248 C 
ATOM     19  O   UNL     1       7.101  -0.957  -0.581  0.00  0.00    -0.273 OA
ATOM     20  C   UNL     1       8.000  -2.118   1.373  0.00  0.00    +0.113 C 
ATOM     21  C   UNL     1       9.392  -2.417   0.827  0.00  0.00    +0.035 C 
ATOM     22  C   UNL     1      10.344  -2.718   1.988  0.00  0.00    +0.003 C 
ATOM     23  C   UNL     1      10.394  -1.513   2.930  0.00  0.00    +0.000 C 
ATOM     24  C   UNL     1       8.995  -1.240   3.487  0.00  0.00    +0.003 C 
ATOM     25  C   UNL     1       8.039  -0.933   2.332  0.00  0.00    +0.035 C 
ATOM     26  N   UNL     1       7.443  -3.302   2.039  0.00  0.00    -0.285 N 
ATOM     27  C   UNL     1       6.324  -3.628   1.363  0.00  0.00    +0.310 C 
ATOM     28  O   UNL     1       5.608  -4.566   1.654  0.00  0.00    -0.252 OA
ATOM     29  H   UNL     1       7.806  -3.757   2.814  0.00  0.00    +0.151 HD
ENDBRANCH  16  17
ENDBRANCH   9  16
TORSDOF 3
