REMARK  Name = ZINC64664320
REMARK  4 active torsions:
REMARK  status: ('A' for Active; 'I' for Inactive)
REMARK    1  A    between atoms: C_3  and  N_8
REMARK    2  A    between atoms: C_9  and  N_25
REMARK    3  A    between atoms: C_10  and  C_13
REMARK    4  A    between atoms: C_15  and  C_18
REMARK                            x       y       z     vdW  Elec       q    Type
REMARK                         _______ _______ _______ _____ _____    ______ ____
ROOT
ATOM      1  N   UNL     1       3.586   2.129  -0.021  0.00  0.00    -0.198 N 
ATOM      2  C   UNL     1       4.752   1.770   0.589  0.00  0.00    +0.150 A 
ATOM      3  C   UNL     1       5.661   2.776   0.310  0.00  0.00    +0.159 A 
ATOM      4  N   UNL     1       5.046   3.702  -0.444  0.00  0.00    -0.125 NA
ATOM      5  N   UNL     1       3.827   3.352  -0.663  0.00  0.00    -0.058 NA
ENDROOT
BRANCH   1   8
ATOM      6  C   UNL     1      -0.017   1.378   0.010  0.00  0.00    +0.005 A 
ATOM      7  C   UNL     1       1.169   2.087   0.002  0.00  0.00    +0.028 A 
ATOM      8  C   UNL     1       2.381   1.411  -0.013  0.00  0.00    +0.072 A 
ATOM      9  C   UNL     1       2.400   0.023  -0.021  0.00  0.00    +0.066 A 
ATOM     10  C   UNL     1       1.210  -0.682  -0.013  0.00  0.00    +0.125 A 
ATOM     11  C   UNL     1       0.002  -0.004   0.002  0.00  0.00    +0.038 A 
ATOM     12  F   UNL     1       1.225  -2.033  -0.021  0.00  0.00    -0.205 F 
ENDBRANCH   1   8
BRANCH   3  13
ATOM     13  C   UNL     1       7.065   2.824   0.763  0.00  0.00    +0.132 A 
ATOM     14  N   UNL     1       7.986   3.750   0.542  0.00  0.00    -0.237 NA
ATOM     15  C   UNL     1       9.209   3.630   1.032  0.00  0.00    +0.079 A 
ATOM     16  C   UNL     1       9.529   2.530   1.780  0.00  0.00    +0.075 A 
ATOM     17  S   UNL     1       7.971   1.652   1.763  0.00  0.00    -0.073 S 
BRANCH  15  18
ATOM     18  C   UNL     1      10.225   4.679   0.771  0.00  0.00    +0.001 A 
ATOM     19  C   UNL     1      11.514   4.546   1.284  0.00  0.00    +0.011 A 
ATOM     20  C   UNL     1      12.456   5.525   1.039  0.00  0.00    +0.016 A 
ATOM     21  C   UNL     1      12.121   6.637   0.286  0.00  0.00    +0.018 A 
ATOM     22  C   UNL     1      10.842   6.774  -0.225  0.00  0.00    +0.016 A 
ATOM     23  C   UNL     1       9.895   5.798   0.009  0.00  0.00    +0.011 A 
ATOM     24 BR   UNL     1      13.416   7.975  -0.045  0.00  0.00    -0.050 Br
ENDBRANCH  15  18
ENDBRANCH   3  13
BRANCH   2  25
ATOM     25  N   UNL     1       4.981   0.627   1.338  0.00  0.00    -0.341 N 
ATOM     26  H   UNL     1       4.268  -0.017   1.472  0.00  0.00    +0.144 HD
ATOM     27  H   UNL     1       5.855   0.470   1.730  0.00  0.00    +0.144 HD
ENDBRANCH   2  25
TORSDOF 4
