REMARK  Name = ZINC06149881
REMARK  15 active torsions:
REMARK  status: ('A' for Active; 'I' for Inactive)
REMARK    1  A    between atoms: C_1  and  C_2
REMARK    2  A    between atoms: C_2  and  C_3
REMARK    3  A    between atoms: C_3  and  C_4
REMARK    4  A    between atoms: C_4  and  O_5
REMARK    5  A    between atoms: O_5  and  C_6
REMARK    6  A    between atoms: C_6  and  C_8
REMARK    7  A    between atoms: C_9  and  C_39
REMARK    8  A    between atoms: C_13  and  C_15
REMARK    9  A    between atoms: C_18  and  S_21
REMARK   10  A    between atoms: S_21  and  C_22
REMARK   11  A    between atoms: C_26  and  C_29
REMARK   12  A    between atoms: C_32  and  O_37
REMARK   13  A    between atoms: C_33  and  O_35
REMARK   14  A    between atoms: O_35  and  C_36
REMARK   15  A    between atoms: O_37  and  C_38
REMARK                            x       y       z     vdW  Elec       q    Type
REMARK                         _______ _______ _______ _____ _____    ______ ____
ROOT
ATOM      1  C   UNL     1       5.830  -2.505  -1.404  0.00  0.00    +0.154 C 
ATOM      2  C   UNL     1       5.408  -1.920  -2.539  0.00  0.00    +0.031 C 
ATOM      3  N   UNL     1       4.665  -0.773  -2.492  0.00  0.00    -0.260 NA
ATOM      4  C   UNL     1       4.005  -0.417  -1.347  0.00  0.00    +0.049 C 
ATOM      5  C   UNL     1       4.368  -0.938  -0.156  0.00  0.00    +0.025 C 
ATOM      6  C   UNL     1       5.507  -1.922  -0.061  0.00  0.00    +0.073 C 
ATOM      7  C   UNL     1       3.699  -0.580   1.028  0.00  0.00    +0.162 C 
ATOM      8  O   UNL     1       4.040  -1.081   2.081  0.00  0.00    -0.292 OA
ATOM      9  C   UNL     1       2.568   0.412   1.013  0.00  0.00    +0.088 C 
ATOM     10  C   UNL     1       2.769   1.379  -0.158  0.00  0.00    +0.032 C 
ATOM     11  C   UNL     1       2.867   0.568  -1.449  0.00  0.00    +0.064 C 
ATOM     12  C   UNL     1       5.756  -2.532  -3.871  0.00  0.00    +0.061 C 
ENDROOT
BRANCH   6  13
ATOM     13  C   UNL     1       6.728  -1.217   0.472  0.00  0.00    -0.039 A 
ATOM     14  C   UNL     1       7.265  -0.149  -0.223  0.00  0.00    +0.005 A 
ATOM     15  C   UNL     1       8.381   0.502   0.265  0.00  0.00    +0.015 A 
ATOM     16  C   UNL     1       8.969   0.077   1.450  0.00  0.00    +0.008 A 
ATOM     17  C   UNL     1       8.429  -1.000   2.142  0.00  0.00    +0.015 A 
ATOM     18  C   UNL     1       7.311  -1.644   1.651  0.00  0.00    +0.005 A 
BRANCH  16  19
ATOM     19  S   UNL     1      10.397   0.901   2.072  0.00  0.00    -0.129 S 
ATOM     20  C   UNL     1      10.717   2.205   0.853  0.00  0.00    +0.090 C 
ENDBRANCH  16  19
ENDBRANCH   6  13
BRANCH  10  21
ATOM     21  C   UNL     1       1.598   2.325  -0.241  0.00  0.00    -0.040 A 
ATOM     22  C   UNL     1       0.320   1.826  -0.414  0.00  0.00    +0.008 A 
ATOM     23  C   UNL     1      -0.757   2.689  -0.495  0.00  0.00    +0.049 A 
ATOM     24  C   UNL     1      -0.558   4.057  -0.393  0.00  0.00    +0.161 A 
ATOM     25  C   UNL     1       0.728   4.558  -0.219  0.00  0.00    +0.162 A 
ATOM     26  C   UNL     1       1.804   3.688  -0.143  0.00  0.00    +0.053 A 
BRANCH  25  27
ATOM     27  O   UNL     1       0.929   5.900  -0.123  0.00  0.00    -0.491 OA
ATOM     28  C   UNL     1       2.276   6.343   0.055  0.00  0.00    +0.277 C 
ENDBRANCH  25  27
BRANCH  24  29
ATOM     29  O   UNL     1      -1.617   4.907  -0.468  0.00  0.00    -0.491 OA
ATOM     30  C   UNL     1      -2.908   4.321  -0.647  0.00  0.00    +0.277 C 
ENDBRANCH  24  29
ENDBRANCH  10  21
BRANCH   1  31
ATOM     31  C   UNL     1       6.591  -3.695  -1.479  0.00  0.00    +0.317 C 
ATOM     32  O   UNL     1       6.755  -4.246  -2.551  0.00  0.00    -0.250 OA
BRANCH  31  33
ATOM     33  O   UNL     1       7.136  -4.218  -0.361  0.00  0.00    -0.464 OA
BRANCH  33  34
ATOM     34  C   UNL     1       7.892  -5.421  -0.510  0.00  0.00    +0.232 C 
BRANCH  34  35
ATOM     35  C   UNL     1       8.427  -5.860   0.855  0.00  0.00    +0.041 C 
BRANCH  35  37
ATOM     36  C   UNL     1       9.771  -7.588   2.060  0.00  0.00    +0.004 C 
ATOM     37  C   UNL     1       9.237  -7.149   0.696  0.00  0.00    -0.000 C 
ENDBRANCH  35  37
ENDBRANCH  34  35
ENDBRANCH  33  34
ENDBRANCH  31  33
ENDBRANCH   1  31
TORSDOF 10
