REMARK  Name = ZINC15675591
REMARK  4 active torsions:
REMARK  status: ('A' for Active; 'I' for Inactive)
REMARK    1  A    between atoms: C_1  and  C_2
REMARK    2  A    between atoms: C_2  and  C_20
REMARK    3  A    between atoms: N_14  and  C_15
REMARK    4  A    between atoms: N_22  and  C_23
REMARK                            x       y       z     vdW  Elec       q    Type
REMARK                         _______ _______ _______ _____ _____    ______ ____
ROOT
ATOM      1  C   UNL     1      -0.298   1.029  -0.168  0.00  0.00    +0.043 C 
ATOM      2  C   UNL     1      -0.756   1.656   1.151  0.00  0.00    +0.129 C 
ATOM      3  C   UNL     1      -2.227   1.312   1.377  0.00  0.00    +0.157 C 
ATOM      4  N   UNL     1      -3.054   2.112   0.469  0.00  0.00    -0.331 N 
ATOM      5  C   UNL     1      -4.266   1.832  -0.086  0.00  0.00    +0.088 A 
ATOM      6  C   UNL     1      -5.312   0.886  -0.207  0.00  0.00    +0.067 A 
ATOM      7  C   UNL     1      -6.245   1.421  -1.012  0.00  0.00    +0.198 A 
ATOM      8  O   UNL     1      -5.849   2.644  -1.405  0.00  0.00    -0.461 OA
ATOM      9  C   UNL     1      -4.645   2.927  -0.863  0.00  0.00    +0.153 A 
ATOM     10  C   UNL     1      -3.625   3.886  -0.771  0.00  0.00    +0.079 A 
ATOM     11  C   UNL     1      -2.654   3.375   0.039  0.00  0.00    +0.109 A 
ATOM     12  C   UNL     1      -1.363   3.936   0.454  0.00  0.00    +0.264 C 
ATOM     13  O   UNL     1      -1.067   5.096   0.234  0.00  0.00    -0.268 OA
ATOM     14  N   UNL     1      -0.521   3.095   1.095  0.00  0.00    -0.278 N 
ENDROOT
BRANCH  14  15
ATOM     15  C   UNL     1       0.666   3.647   1.753  0.00  0.00    +0.078 C 
ATOM     16  C   UNL     1       0.247   4.690   2.810  0.00  0.00    +0.022 C 
ATOM     17  C   UNL     1       1.339   5.785   2.716  0.00  0.00    +0.002 C 
ATOM     18  C   UNL     1       1.624   5.855   1.194  0.00  0.00    +0.002 C 
ATOM     19  C   UNL     1       1.541   4.387   0.727  0.00  0.00    +0.022 C 
ENDBRANCH  14  15
BRANCH   2  20
ATOM     20  C   UNL     1       0.060   1.073   2.276  0.00  0.00    +0.238 C 
ATOM     21  O   UNL     1       0.670   0.038   2.109  0.00  0.00    -0.273 OA
ATOM     22  N   UNL     1       0.112   1.701   3.467  0.00  0.00    -0.311 N 
ATOM     23  H   UNL     1      -0.428   2.492   3.622  0.00  0.00    +0.149 HD
BRANCH  22  24
ATOM     24  C   UNL     1       0.984   1.190   4.527  0.00  0.00    +0.073 C 
ATOM     25  C   UNL     1       0.254   0.093   5.303  0.00  0.00    +0.022 C 
ATOM     26  C   UNL     1       1.264  -0.707   6.128  0.00  0.00    +0.002 C 
ATOM     27  C   UNL     1       2.498  -1.006   5.275  0.00  0.00    +0.000 C 
ATOM     28  C   UNL     1       3.702  -0.246   5.835  0.00  0.00    +0.000 C 
ATOM     29  C   UNL     1       3.595   1.231   5.451  0.00  0.00    +0.000 C 
ATOM     30  C   UNL     1       2.550   1.914   6.335  0.00  0.00    +0.002 C 
ATOM     31  C   UNL     1       1.351   2.330   5.479  0.00  0.00    +0.022 C 
ENDBRANCH  22  24
ENDBRANCH   2  20
TORSDOF 3
