REMARK  Name = ZINC38974707
REMARK  7 active torsions:
REMARK  status: ('A' for Active; 'I' for Inactive)
REMARK    1  A    between atoms: C_1  and  C_2
REMARK    2  A    between atoms: C_4  and  C_8
REMARK    3  A    between atoms: C_12  and  S_26
REMARK    4  A    between atoms: N_14  and  N_15
REMARK    5  A    between atoms: C_16  and  C_17
REMARK    6  A    between atoms: C_17  and  C_25
REMARK    7  A    between atoms: C_18  and  C_19
REMARK                            x       y       z     vdW  Elec       q    Type
REMARK                         _______ _______ _______ _____ _____    ______ ____
ROOT
ATOM      1  C   UNL     1      -0.901  -2.768   0.815  0.00  0.00    +0.206 C 
ATOM      2  N   UNL     1      -0.144  -1.920   1.763  0.00  0.00    -0.231 NA
ATOM      3  N   UNL     1       0.475  -2.876   2.695  0.00  0.00    -0.225 NA
ATOM      4  C   UNL     1       0.843  -4.013   1.810  0.00  0.00    +0.231 C 
ATOM      5  N   UNL     1      -0.273  -4.100   0.845  0.00  0.00    -0.207 N 
ATOM      6  H   UNL     1      -0.758  -1.285   2.251  0.00  0.00    +0.143 HD
ATOM      7  H   UNL     1      -0.182  -3.167   3.403  0.00  0.00    +0.143 HD
ENDROOT
BRANCH   1  11
ATOM      8  C   UNL     1      -0.554   1.491  -1.185  0.00  0.00    +0.067 C 
ATOM      9  C   UNL     1      -0.439   0.000  -1.000  0.00  0.00    +0.058 C 
ATOM     10  C   UNL     1      -1.446  -0.799  -0.641  0.00  0.00    +0.029 C 
ATOM     11  C   UNL     1      -0.817  -2.181  -0.596  0.00  0.00    +0.190 C 
ATOM     12  N   UNL     1       0.583  -1.920  -0.973  0.00  0.00    -0.177 NA
ATOM     13  N   UNL     1       0.697  -0.710  -1.180  0.00  0.00    -0.159 NA
ENDBRANCH   1  11
BRANCH   5  14
ATOM     14  N   UNL     1      -0.658  -5.226   0.106  0.00  0.00    -0.189 NA
ATOM     15  C   UNL     1      -0.005  -6.345   0.236  0.00  0.00    +0.133 C 
BRANCH  15  16
ATOM     16  C   UNL     1      -0.394  -7.485  -0.512  0.00  0.00    -0.030 C 
ATOM     17  C   UNL     1       0.282  -8.644  -0.377  0.00  0.00    +0.012 C 
ATOM     18  C   UNL     1      -1.564  -7.401  -1.459  0.00  0.00    +0.045 C 
BRANCH  17  19
ATOM     19  C   UNL     1      -0.016  -9.778  -1.267  0.00  0.00    -0.025 A 
ATOM     20  C   UNL     1      -0.256  -9.560  -2.627  0.00  0.00    +0.008 A 
ATOM     21  C   UNL     1      -0.534 -10.627  -3.454  0.00  0.00    +0.001 A 
ATOM     22  C   UNL     1      -0.577 -11.912  -2.941  0.00  0.00    +0.000 A 
ATOM     23  C   UNL     1      -0.340 -12.136  -1.596  0.00  0.00    +0.001 A 
ATOM     24  C   UNL     1      -0.055 -11.079  -0.757  0.00  0.00    +0.008 A 
ENDBRANCH  17  19
ENDBRANCH  15  16
ENDBRANCH   5  14
BRANCH   4  25
ATOM     25  S   UNL     1       2.404  -3.669   0.952  0.00  0.00    -0.138 S 
ATOM     26  H   UNL     1       3.300  -3.537   1.946  0.00  0.00    +0.105 HD
ENDBRANCH   4  25
TORSDOF 5
