REMARK  Name = ZINC36525528
REMARK  13 active torsions:
REMARK  status: ('A' for Active; 'I' for Inactive)
REMARK    1  A    between atoms: C_1  and  C_2
REMARK    2  A    between atoms: C_5  and  S_8
REMARK    3  A    between atoms: S_8  and  C_11
REMARK    4  A    between atoms: C_11  and  N_12
REMARK    5  A    between atoms: C_13  and  C_15
REMARK    6  A    between atoms: C_15  and  C_17
REMARK    7  A    between atoms: C_15  and  N_24
REMARK    8  A    between atoms: C_20  and  O_23
REMARK    9  A    between atoms: N_24  and  C_25
REMARK   10  A    between atoms: C_26  and  C_28
REMARK   11  A    between atoms: C_36  and  C_38
REMARK   12  A    between atoms: C_39  and  C_40
REMARK   13  A    between atoms: C_39  and  C_41
REMARK                            x       y       z     vdW  Elec       q    Type
REMARK                         _______ _______ _______ _____ _____    ______ ____
ROOT
ATOM      1  C   UNL     1       3.212  -4.726   3.918  0.00  0.00    +0.192 C 
ENDROOT
BRANCH   1   2
ATOM      2  C   UNL     1       4.516  -4.027   3.627  0.00  0.00    -0.018 A 
ATOM      3  C   UNL     1       5.632  -4.765   3.281  0.00  0.00    +0.009 A 
ATOM      4  C   UNL     1       6.828  -4.127   3.015  0.00  0.00    +0.046 A 
ATOM      5  C   UNL     1       6.908  -2.744   3.095  0.00  0.00    +0.117 A 
ATOM      6  C   UNL     1       5.786  -2.006   3.443  0.00  0.00    +0.046 A 
ATOM      7  C   UNL     1       4.591  -2.648   3.703  0.00  0.00    +0.009 A 
BRANCH   5   8
ATOM      8  O   UNL     1       8.084  -2.114   2.834  0.00  0.00    -0.507 OA
ATOM      9  H   UNL     1       8.201  -1.869   1.906  0.00  0.00    +0.292 HD
ENDBRANCH   5   8
ENDBRANCH   1   2
BRANCH   1  11
ATOM     10  N   UNL     1       2.419  -4.599   1.578  0.00  0.00    -0.294 N 
ATOM     11  C   UNL     1       2.691  -5.362   2.655  0.00  0.00    +0.239 C 
ATOM     12  O   UNL     1       2.518  -6.562   2.608  0.00  0.00    -0.273 OA
ATOM     13  H   UNL     1       2.558  -3.640   1.616  0.00  0.00    +0.150 HD
BRANCH  10  14
ATOM     14  C   UNL     1       1.913  -5.218   0.351  0.00  0.00    +0.278 C 
BRANCH  14  15
ATOM     15  S   UNL     1       0.101  -5.130   0.332  0.00  0.00    +0.013 S 
ATOM     16  O   UNL     1      -0.423  -5.551   1.584  0.00  0.00    -0.168 OA
ATOM     17  O   UNL     1      -0.403  -5.670  -0.882  0.00  0.00    -0.168 OA
BRANCH  15  22
ATOM     18  C   UNL     1      -1.165   0.762   0.038  0.00  0.00    +0.044 C 
ATOM     19  C   UNL     1      -0.849  -0.709   0.111  0.00  0.00    -0.050 A 
ATOM     20  C   UNL     1      -0.693  -1.442  -1.051  0.00  0.00    +0.005 A 
ATOM     21  C   UNL     1      -0.403  -2.792  -0.984  0.00  0.00    +0.027 A 
ATOM     22  C   UNL     1      -0.268  -3.409   0.246  0.00  0.00    +0.090 A 
ATOM     23  C   UNL     1      -0.423  -2.676   1.408  0.00  0.00    +0.027 A 
ATOM     24  C   UNL     1      -0.709  -1.325   1.341  0.00  0.00    +0.005 A 
ENDBRANCH  15  22
ENDBRANCH  14  15
ENDBRANCH  10  14
ENDBRANCH   1  11
BRANCH   1  25
ATOM     25  N   UNL     1       3.428  -5.760   4.933  0.00  0.00    -0.289 N 
ATOM     26  C   UNL     1       4.365  -6.856   4.674  0.00  0.00    +0.133 C 
ATOM     27  C   UNL     1       2.764  -5.702   6.105  0.00  0.00    +0.220 C 
ATOM     28  O   UNL     1       2.898  -6.589   6.921  0.00  0.00    -0.275 OA
BRANCH  27  29
ATOM     29  C   UNL     1       1.850  -4.528   6.402  0.00  0.00    +0.079 C 
ATOM     30  C   UNL     1       2.694  -3.263   6.505  0.00  0.00    +0.017 C 
ATOM     31  C   UNL     1       2.191  -2.304   7.582  0.00  0.00    -0.004 C 
ATOM     32  C   UNL     1       2.180  -2.975   8.972  0.00  0.00    +0.008 C 
ATOM     33  C   UNL     1       0.823  -3.560   8.506  0.00  0.00    -0.001 C 
ATOM     34  C   UNL     1       1.075  -4.821   7.681  0.00  0.00    +0.001 C 
ATOM     35  C   UNL     1      -0.242  -5.536   7.364  0.00  0.00    +0.008 C 
ATOM     36  C   UNL     1       0.662  -2.261   7.714  0.00  0.00    -0.029 C 
ATOM     37  C   UNL     1       0.165  -1.082   8.574  0.00  0.00    +0.011 C 
ATOM     38  C   UNL     1      -0.113  -2.338   6.402  0.00  0.00    +0.011 C 
ENDBRANCH  27  29
ENDBRANCH   1  25
TORSDOF 8
