REMARK  Name = ZINC20908070
REMARK  8 active torsions:
REMARK  status: ('A' for Active; 'I' for Inactive)
REMARK    1  A    between atoms: C_1  and  C_2
REMARK    2  A    between atoms: C_5  and  C_8
REMARK    3  A    between atoms: N_9  and  N_10
REMARK    4  A    between atoms: C_13  and  S_16
REMARK    5  A    between atoms: S_16  and  C_17
REMARK    6  A    between atoms: C_17  and  C_18
REMARK    7  A    between atoms: C_18  and  C_19
REMARK    8  A    between atoms: N_21  and  C_22
REMARK                            x       y       z     vdW  Elec       q    Type
REMARK                         _______ _______ _______ _____ _____    ______ ____
ROOT
ATOM      1  N   UNL     1      -4.839   0.936   0.023  0.00  0.00    -0.205 N 
ATOM      2  C   UNL     1      -6.046   1.619   0.034  0.00  0.00    +0.232 A 
ATOM      3  N   UNL     1      -7.290   1.051   0.030  0.00  0.00    -0.186 NA
ATOM      4  C   UNL     1      -8.214   2.058   0.045  0.00  0.00    +0.210 A 
ATOM      5  N   UNL     1      -7.569   3.200   0.058  0.00  0.00    -0.144 NA
ATOM      6  N   UNL     1      -6.196   2.921   0.057  0.00  0.00    -0.245 N 
ATOM      7  H   UNL     1      -4.829  -0.164   0.009  0.00  0.00    +0.177 HD
ATOM      8  H   UNL     1      -5.312   3.576   0.070  0.00  0.00    +0.192 HD
ENDROOT
BRANCH   1  10
ATOM      9  C   UNL     1      -2.501   1.009   0.019  0.00  0.00    +0.138 C 
ATOM     10  N   UNL     1      -3.632   1.648   0.029  0.00  0.00    -0.188 NA
BRANCH   9  15
ATOM     11  C   UNL     1       2.452   3.931   0.031  0.00  0.00    +0.044 C 
ATOM     12  C   UNL     1       1.154   3.165   0.031  0.00  0.00    -0.050 A 
ATOM     13  C   UNL     1       1.171   1.782   0.015  0.00  0.00    +0.004 A 
ATOM     14  C   UNL     1      -0.013   1.074   0.014  0.00  0.00    +0.010 A 
ATOM     15  C   UNL     1      -1.231   1.758   0.025  0.00  0.00    -0.005 A 
ATOM     16  C   UNL     1      -1.240   3.155   0.049  0.00  0.00    +0.010 A 
ATOM     17  C   UNL     1      -0.048   3.849   0.048  0.00  0.00    +0.004 A 
ENDBRANCH   9  15
ENDBRANCH   1  10
BRANCH   4  18
ATOM     18  S   UNL     1      -9.964   1.857   0.047  0.00  0.00    -0.084 S 
BRANCH  18  19
ATOM     19  C   UNL     1     -10.601   3.555   0.070  0.00  0.00    +0.086 C 
BRANCH  19  20
ATOM     20  C   UNL     1     -12.130   3.527   0.073  0.00  0.00    +0.107 C 
BRANCH  20  21
ATOM     21  C   UNL     1     -12.659   4.938   0.093  0.00  0.00    +0.218 C 
ATOM     22  O   UNL     1     -11.888   5.874   0.103  0.00  0.00    -0.275 OA
ATOM     23  N   UNL     1     -13.989   5.160   0.099  0.00  0.00    -0.285 N 
ATOM     24  H   UNL     1     -14.687   4.314   0.013  0.00  0.00    +0.155 HD
BRANCH  23  25
ATOM     25  C   UNL     1     -14.480   6.465   0.214  0.00  0.00    +0.033 A 
ATOM     26  C   UNL     1     -15.656   6.706   0.913  0.00  0.00    +0.024 A 
ATOM     27  C   UNL     1     -16.134   7.996   1.031  0.00  0.00    +0.016 A 
ATOM     28  C   UNL     1     -15.451   9.046   0.443  0.00  0.00    +0.013 A 
ATOM     29  C   UNL     1     -14.283   8.807  -0.258  0.00  0.00    +0.016 A 
ATOM     30  C   UNL     1     -13.796   7.520  -0.374  0.00  0.00    +0.024 A 
ATOM     31  I   UNL     1     -16.186  11.000   0.617  0.00  0.00    -0.044 I 
ENDBRANCH  23  25
ENDBRANCH  20  21
ENDBRANCH  19  20
ENDBRANCH  18  19
ENDBRANCH   4  18
TORSDOF 7
