REMARK  Name = ZINC17720850
REMARK  3 active torsions:
REMARK  status: ('A' for Active; 'I' for Inactive)
REMARK    1  A    between atoms: C_7  and  C_11
REMARK    2  A    between atoms: C_11  and  C_13
REMARK    3  A    between atoms: N_15  and  C_16
REMARK                            x       y       z     vdW  Elec       q    Type
REMARK                         _______ _______ _______ _____ _____    ______ ____
ROOT
ATOM      1  C   UNL     1       0.740  -3.205  -0.185  0.00  0.00    +0.253 C 
ATOM      2  O   UNL     1      -0.435  -3.026   0.077  0.00  0.00    -0.282 OA
ENDROOT
BRANCH   1   9
ATOM      3  C   UNL     1       3.199  -0.613   2.786  0.00  0.00    +0.001 A 
ATOM      4  C   UNL     1       3.910   0.384   2.135  0.00  0.00    +0.002 A 
ATOM      5  C   UNL     1       3.837   0.517   0.764  0.00  0.00    +0.026 A 
ATOM      6  C   UNL     1       3.046  -0.352   0.022  0.00  0.00    +0.050 A 
ATOM      7  C   UNL     1       2.328  -1.360   0.683  0.00  0.00    +0.015 A 
ATOM      8  C   UNL     1       2.409  -1.484   2.067  0.00  0.00    +0.011 A 
ATOM      9  C   UNL     1       1.599  -2.100  -0.366  0.00  0.00    +0.100 A 
ATOM     10  C   UNL     1       1.931  -1.485  -1.575  0.00  0.00    +0.261 A 
ATOM     11  O   UNL     1       1.477  -1.855  -2.791  0.00  0.00    -0.267 OA
ATOM     12  N   UNL     1       2.782  -0.459  -1.333  0.00  0.00    -0.321 N 
ATOM     13  H   UNL     1       3.156   0.120  -2.015  0.00  0.00    +0.169 HD
ENDBRANCH   1   9
BRANCH   1  14
ATOM     14  C   UNL     1       1.272  -4.590  -0.313  0.00  0.00    +0.289 C 
ATOM     15  O   UNL     1       2.462  -4.771  -0.478  0.00  0.00    -0.266 OA
ATOM     16  N   UNL     1       0.433  -5.643  -0.247  0.00  0.00    -0.279 N 
ATOM     17  H   UNL     1      -0.524  -5.498  -0.191  0.00  0.00    +0.155 HD
BRANCH  16  18
ATOM     18  C   UNL     1       0.943  -6.945  -0.260  0.00  0.00    +0.034 A 
ATOM     19  C   UNL     1       0.223  -7.968  -0.864  0.00  0.00    +0.026 A 
ATOM     20  C   UNL     1       0.729  -9.253  -0.876  0.00  0.00    +0.040 A 
ATOM     21  C   UNL     1       1.952  -9.523  -0.286  0.00  0.00    +0.124 A 
ATOM     22  C   UNL     1       2.671  -8.505   0.318  0.00  0.00    +0.040 A 
ATOM     23  C   UNL     1       2.172  -7.217   0.327  0.00  0.00    +0.026 A 
ATOM     24  F   UNL     1       2.444 -10.781  -0.298  0.00  0.00    -0.205 F 
ENDBRANCH  16  18
ENDBRANCH   1  14
TORSDOF 3
