REMARK  Name = ZINC08295942
REMARK  9 active torsions:
REMARK  status: ('A' for Active; 'I' for Inactive)
REMARK    1  A    between atoms: C_1  and  C_2
REMARK    2  A    between atoms: C_2  and  C_3
REMARK    3  A    between atoms: C_2  and  C_4
REMARK    4  A    between atoms: C_4  and  N_5
REMARK    5  A    between atoms: N_7  and  C_25
REMARK    6  A    between atoms: C_10  and  O_24
REMARK    7  A    between atoms: C_12  and  O_23
REMARK    8  A    between atoms: C_15  and  C_20
REMARK    9  A    between atoms: C_25  and  C_26
REMARK                            x       y       z     vdW  Elec       q    Type
REMARK                         _______ _______ _______ _____ _____    ______ ____
ROOT
ATOM      1  N   UNL     1      -2.075   1.358   1.416  0.00  0.00    -0.263 NA
ATOM      2  C   UNL     1      -2.673   0.557   2.254  0.00  0.00    +0.153 C 
ATOM      3  N   UNL     1      -3.999   0.195   2.256  0.00  0.00    -0.303 N 
ATOM      4  C   UNL     1      -4.488  -0.648   3.313  0.00  0.00    +0.120 C 
ATOM      5  C   UNL     1      -5.625  -1.550   2.943  0.00  0.00    +0.164 C 
ATOM      6  C   UNL     1      -5.199  -2.992   2.736  0.00  0.00    +0.146 C 
ATOM      7  C   UNL     1      -4.473  -3.471   3.998  0.00  0.00    +0.048 C 
ATOM      8  C   UNL     1      -3.180  -2.679   4.146  0.00  0.00    +0.092 C 
ATOM      9  C   UNL     1      -3.429  -1.186   4.253  0.00  0.00    +0.089 C 
ATOM     10  S   UNL     1      -1.940  -0.305   3.631  0.00  0.00    -0.085 S 
ENDROOT
BRANCH   8  11
ATOM     11  C   UNL     1      -2.461  -3.145   5.386  0.00  0.00    +0.215 C 
ATOM     12  O   UNL     1      -2.182  -2.352   6.259  0.00  0.00    -0.276 OA
ATOM     13  N   UNL     1      -2.128  -4.444   5.524  0.00  0.00    -0.329 N 
ATOM     14  H   UNL     1      -2.352  -5.079   4.825  0.00  0.00    +0.145 HD
ATOM     15  H   UNL     1      -1.666  -4.744   6.321  0.00  0.00    +0.145 HD
ENDBRANCH   8  11
BRANCH   6  16
ATOM     16  O   UNL     1      -6.348  -3.809   2.502  0.00  0.00    -0.389 OA
ATOM     17  H   UNL     1      -6.145  -4.746   2.373  0.00  0.00    +0.210 HD
ENDBRANCH   6  16
BRANCH   5  18
ATOM     18  O   UNL     1      -6.232  -1.060   1.746  0.00  0.00    -0.387 OA
ATOM     19  H   UNL     1      -6.980  -1.591   1.438  0.00  0.00    +0.210 HD
ENDBRANCH   5  18
BRANCH   1  20
ATOM     20  C   UNL     1      -0.643   1.635   1.562  0.00  0.00    +0.147 C 
BRANCH  20  22
ATOM     21  C   UNL     1      -0.008  -0.444   0.330  0.00  0.00    +0.009 C 
ATOM     22  C   UNL     1       0.109   1.081   0.350  0.00  0.00    +0.004 C 
ATOM     23  C   UNL     1       1.584   1.478   0.441  0.00  0.00    +0.009 C 
ENDBRANCH  20  22
ENDBRANCH   1  20
BRANCH   3  24
ATOM     24  C   UNL     1      -4.900   0.662   1.199  0.00  0.00    +0.111 C 
BRANCH  24  25
ATOM     25  C   UNL     1      -4.799  -0.274  -0.007  0.00  0.00    +0.006 C 
ATOM     26  C   UNL     1      -3.405  -0.160  -0.627  0.00  0.00    +0.005 C 
ATOM     27  C   UNL     1      -3.305  -1.096  -1.833  0.00  0.00    +0.000 C 
ATOM     28  C   UNL     1      -4.358  -0.705  -2.871  0.00  0.00    +0.000 C 
ATOM     29  C   UNL     1      -5.753  -0.820  -2.251  0.00  0.00    +0.000 C 
ATOM     30  C   UNL     1      -5.853   0.117  -1.045  0.00  0.00    +0.005 C 
ENDBRANCH  24  25
ENDBRANCH   3  24
TORSDOF 7
