REMARK  Name = ZINC14578946
REMARK  12 active torsions:
REMARK  status: ('A' for Active; 'I' for Inactive)
REMARK    1  A    between atoms: C_1  and  C_2
REMARK    2  A    between atoms: C_2  and  C_3
REMARK    3  A    between atoms: C_2  and  C_4
REMARK    4  A    between atoms: C_4  and  C_5
REMARK    5  A    between atoms: C_5  and  N_6
REMARK    6  A    between atoms: N_6  and  C_7
REMARK    7  A    between atoms: C_8  and  N_23
REMARK    8  A    between atoms: N_9  and  C_16
REMARK    9  A    between atoms: C_16  and  C_17
REMARK   10  A    between atoms: C_24  and  C_26
REMARK   11  A    between atoms: C_31  and  S_32
REMARK   12  A    between atoms: S_32  and  C_33
REMARK                            x       y       z     vdW  Elec       q    Type
REMARK                         _______ _______ _______ _____ _____    ______ ____
ROOT
ATOM      1  C   UNL     1      -4.101   6.525  -2.836  0.00  0.00    +0.140 A 
ATOM      2  C   UNL     1      -4.608   5.263  -3.070  0.00  0.00    +0.128 A 
ATOM      3  N   UNL     1      -5.396   4.667  -2.113  0.00  0.00    -0.276 N 
ATOM      4  C   UNL     1      -5.661   5.303  -0.957  0.00  0.00    +0.331 A 
ATOM      5  O   UNL     1      -6.356   4.758  -0.121  0.00  0.00    -0.246 OA
ATOM      6  N   UNL     1      -5.171   6.531  -0.709  0.00  0.00    -0.273 N 
ATOM      7  H   UNL     1      -5.384   6.982   0.158  0.00  0.00    +0.173 HD
ATOM      8  C   UNL     1      -4.399   7.160  -1.616  0.00  0.00    +0.277 A 
ATOM      9  O   UNL     1      -3.960   8.274  -1.381  0.00  0.00    -0.266 OA
ENDROOT
BRANCH   1  10
ATOM     10  N   UNL     1      -3.294   7.164  -3.800  0.00  0.00    -0.260 N 
ATOM     11  C   UNL     1      -2.070   7.617  -3.461  0.00  0.00    +0.252 C 
ATOM     12  O   UNL     1      -1.391   8.206  -4.281  0.00  0.00    -0.270 OA
BRANCH  11  13
ATOM     13  C   UNL     1      -1.555   7.398  -2.098  0.00  0.00    +0.051 A 
ATOM     14  C   UNL     1      -1.995   6.304  -1.347  0.00  0.00    +0.014 A 
ATOM     15  C   UNL     1      -1.506   6.102  -0.075  0.00  0.00    +0.001 A 
ATOM     16  C   UNL     1      -0.586   6.985   0.470  0.00  0.00    +0.001 A 
ATOM     17  C   UNL     1      -0.145   8.072  -0.256  0.00  0.00    +0.015 A 
ATOM     18  C   UNL     1      -0.623   8.290  -1.543  0.00  0.00    +0.020 A 
BRANCH  18  19
ATOM     19  S   UNL     1      -0.064   9.678  -2.472  0.00  0.00    -0.128 S 
ATOM     20  C   UNL     1       1.101  10.511  -1.359  0.00  0.00    +0.090 C 
ENDBRANCH  18  19
ENDBRANCH  11  13
BRANCH  10  21
ATOM     21  C   UNL     1      -3.785   7.336  -5.169  0.00  0.00    +0.114 C 
BRANCH  21  22
ATOM     22  C   UNL     1      -4.411   8.725  -5.316  0.00  0.00    +0.022 C 
BRANCH  22  24
ATOM     23  C   UNL     1      -5.796  10.183  -6.798  0.00  0.00    +0.007 C 
ATOM     24  C   UNL     1      -5.039   8.857  -6.705  0.00  0.00    -0.016 C 
ATOM     25  C   UNL     1      -3.939   8.822  -7.768  0.00  0.00    +0.007 C 
ENDBRANCH  22  24
ENDBRANCH  21  22
ENDBRANCH  10  21
ENDBRANCH   1  10
BRANCH   2  26
ATOM     26  N   UNL     1      -4.333   4.611  -4.248  0.00  0.00    -0.343 N 
ATOM     27  H   UNL     1      -4.758   3.761  -4.443  0.00  0.00    +0.144 HD
ATOM     28  H   UNL     1      -3.713   5.000  -4.885  0.00  0.00    +0.144 HD
ENDBRANCH   2  26
BRANCH   3  29
ATOM     29  C   UNL     1      -5.945   3.330  -2.350  0.00  0.00    +0.163 C 
BRANCH  29  30
ATOM     30  C   UNL     1      -7.292   3.451  -3.016  0.00  0.00    -0.028 A 
ATOM     31  C   UNL     1      -8.438   3.538  -2.248  0.00  0.00    +0.005 A 
ATOM     32  C   UNL     1      -9.673   3.645  -2.859  0.00  0.00    +0.000 A 
ATOM     33  C   UNL     1      -9.762   3.674  -4.238  0.00  0.00    +0.000 A 
ATOM     34  C   UNL     1      -8.616   3.592  -5.006  0.00  0.00    +0.000 A 
ATOM     35  C   UNL     1      -7.381   3.480  -4.396  0.00  0.00    +0.005 A 
ENDBRANCH  29  30
ENDBRANCH   3  29
TORSDOF 9
