REMARK  Name = ZINC15015590
REMARK  5 active torsions:
REMARK  status: ('A' for Active; 'I' for Inactive)
REMARK    1  A    between atoms: C_1  and  C_2
REMARK    2  A    between atoms: N_12  and  N_13
REMARK    3  A    between atoms: C_14  and  C_16
REMARK    4  A    between atoms: C_16  and  O_17
REMARK    5  A    between atoms: O_17  and  C_18
REMARK                            x       y       z     vdW  Elec       q    Type
REMARK                         _______ _______ _______ _____ _____    ______ ____
ROOT
ATOM      1  C   UNL     1      -0.018   1.503   0.010  0.00  0.00    +0.047 C 
ATOM      2  C   UNL     1       0.002  -0.004   0.002  0.00  0.00    -0.010 A 
ATOM      3  C   UNL     1       0.006  -0.687  -1.199  0.00  0.00    +0.046 A 
ATOM      4  C   UNL     1       0.025  -2.072  -1.223  0.00  0.00    +0.021 A 
ATOM      5  C   UNL     1       0.040  -2.784  -0.039  0.00  0.00    +0.013 A 
ATOM      6  C   UNL     1       0.036  -2.105   1.174  0.00  0.00    +0.029 A 
ATOM      7  C   UNL     1       0.023  -0.704   1.203  0.00  0.00    +0.047 A 
ATOM      8  N   UNL     1       0.029  -0.271   2.524  0.00  0.00    -0.279 N 
ATOM      9  C   UNL     1       0.052  -1.307   3.381  0.00  0.00    +0.269 C 
ATOM     10  O   UNL     1       0.062  -1.232   4.595  0.00  0.00    -0.268 OA
ATOM     11  C   UNL     1       0.049  -2.552   2.586  0.00  0.00    +0.153 C 
ATOM     12  N   UNL     1       0.067  -3.784   3.033  0.00  0.00    -0.174 NA
ATOM     13 CL   UNL     1      -0.014   0.198  -2.692  0.00  0.00    -0.083 Cl
ATOM     14  H   UNL     1       0.019   0.660   2.794  0.00  0.00    +0.155 HD
ENDROOT
BRANCH  12  15
ATOM     15  N   UNL     1       0.077  -4.029   4.413  0.00  0.00    -0.203 N 
ATOM     16  C   UNL     1       0.096  -5.295   4.872  0.00  0.00    +0.270 C 
ATOM     17  O   UNL     1       0.103  -6.224   4.092  0.00  0.00    -0.270 OA
ATOM     18  H   UNL     1       0.071  -3.286   5.037  0.00  0.00    +0.177 HD
BRANCH  16  19
ATOM     19  C   UNL     1       0.106  -5.559   6.356  0.00  0.00    +0.326 C 
BRANCH  19  20
ATOM     20  O   UNL     1       0.126  -6.968   6.590  0.00  0.00    -0.483 OA
BRANCH  20  21
ATOM     21  C   UNL     1       0.137  -7.379   7.886  0.00  0.00    +0.122 A 
ATOM     22  C   UNL     1       0.125  -6.444   8.911  0.00  0.00    +0.046 A 
ATOM     23  C   UNL     1       0.137  -6.863  10.227  0.00  0.00    +0.005 A 
ATOM     24  C   UNL     1       0.161  -8.213  10.524  0.00  0.00    +0.015 A 
ATOM     25  C   UNL     1       0.174  -9.148   9.504  0.00  0.00    +0.021 A 
ATOM     26  C   UNL     1       0.156  -8.733   8.185  0.00  0.00    +0.061 A 
ATOM     27 BR   UNL     1       0.209 -10.993   9.914  0.00  0.00    -0.050 Br
ENDBRANCH  20  21
ENDBRANCH  19  20
ENDBRANCH  16  19
ENDBRANCH  12  15
TORSDOF 4
