REMARK  Name = ZINC43041105
REMARK  8 active torsions:
REMARK  status: ('A' for Active; 'I' for Inactive)
REMARK    1  A    between atoms: C_1  and  C_2
REMARK    2  A    between atoms: C_7  and  C_8
REMARK    3  A    between atoms: C_8  and  C_10
REMARK    4  A    between atoms: C_8  and  S_14
REMARK    5  A    between atoms: C_10  and  C_12
REMARK    6  A    between atoms: C_10  and  N_13
REMARK    7  A    between atoms: S_14  and  C_15
REMARK    8  A    between atoms: C_17  and  C_22
REMARK                            x       y       z     vdW  Elec       q    Type
REMARK                         _______ _______ _______ _____ _____    ______ ____
ROOT
ATOM      1  C   UNL     1       0.046   0.215   2.220  0.00  0.00    +0.101 C 
ENDROOT
BRANCH   1   8
ATOM      2  C   UNL     1      -0.053   1.506  -0.363  0.00  0.00    +0.044 C 
ATOM      3  C   UNL     1       0.203   0.023  -0.271  0.00  0.00    -0.046 A 
ATOM      4  C   UNL     1       0.396  -0.718  -1.422  0.00  0.00    +0.003 A 
ATOM      5  C   UNL     1       0.630  -2.077  -1.337  0.00  0.00    +0.000 A 
ATOM      6  C   UNL     1       0.673  -2.696  -0.102  0.00  0.00    +0.000 A 
ATOM      7  C   UNL     1       0.481  -1.955   1.049  0.00  0.00    +0.005 A 
ATOM      8  C   UNL     1       0.250  -0.594   0.965  0.00  0.00    -0.030 A 
ENDBRANCH   1   8
BRANCH   1   9
ATOM      9  C   UNL     1       1.376   0.841   2.645  0.00  0.00    +0.065 C 
ATOM     10  C   UNL     1       1.143   1.775   3.834  0.00  0.00    +0.025 C 
BRANCH   9  11
ATOM     11  N   UNL     1       1.938   1.605   1.524  0.00  0.00    -0.326 NA
ATOM     12  H   UNL     1       2.784   2.081   1.799  0.00  0.00    +0.119 HD
ATOM     13  H   UNL     1       2.101   1.010   0.726  0.00  0.00    +0.119 HD
ENDBRANCH   9  11
ENDBRANCH   1   9
BRANCH   1  14
ATOM     14  S   UNL     1      -0.564  -0.866   3.543  0.00  0.00    -0.076 S 
BRANCH  14  15
ATOM     15  C   UNL     1      -2.184  -1.314   3.014  0.00  0.00    +0.192 A 
ATOM     16  N   UNL     1      -2.875  -2.195   3.723  0.00  0.00    -0.227 NA
ATOM     17  C   UNL     1      -4.095  -2.556   3.356  0.00  0.00    +0.046 A 
ATOM     18  C   UNL     1      -4.651  -2.002   2.218  0.00  0.00    +0.095 A 
ATOM     19  C   UNL     1      -3.899  -1.078   1.493  0.00  0.00    +0.274 A 
ATOM     20  O   UNL     1      -4.405  -0.510   0.371  0.00  0.00    -0.266 OA
ATOM     21  N   UNL     1      -2.684  -0.757   1.920  0.00  0.00    -0.183 NA
ATOM     22  C   UNL     1      -4.870  -3.559   4.171  0.00  0.00    +0.066 C 
ENDBRANCH  14  15
ENDBRANCH   1  14
TORSDOF 5
