REMARK  Name = ZINC39710923
REMARK  9 active torsions:
REMARK  status: ('A' for Active; 'I' for Inactive)
REMARK    1  A    between atoms: C_1  and  C_2
REMARK    2  A    between atoms: C_8  and  C_14
REMARK    3  A    between atoms: C_14  and  C_16
REMARK    4  A    between atoms: C_14  and  N_27
REMARK    5  A    between atoms: N_21  and  C_22
REMARK    6  A    between atoms: N_27  and  C_28
REMARK    7  A    between atoms: N_27  and  C_34
REMARK    8  A    between atoms: C_28  and  C_29
REMARK    9  A    between atoms: C_34  and  C_35
REMARK                            x       y       z     vdW  Elec       q    Type
REMARK                         _______ _______ _______ _____ _____    ______ ____
ROOT
ATOM      1  C   UNL     1       0.203  -2.291   4.877  0.00  0.00    -0.009 C 
ENDROOT
BRANCH   1   9
ATOM      2  C   UNL     1      -3.169  -3.473   9.867  0.00  0.00    +0.045 C 
ATOM      3  C   UNL     1      -2.941  -2.198   9.097  0.00  0.00    -0.029 A 
ATOM      4  C   UNL     1      -3.270  -1.004   9.656  0.00  0.00    +0.005 A 
ATOM      5  C   UNL     1      -3.084   0.212   8.998  0.00  0.00    +0.001 A 
ATOM      6  C   UNL     1      -2.557   0.266   7.748  0.00  0.00    +0.009 A 
ATOM      7  C   UNL     1      -2.180  -0.983   7.086  0.00  0.00    -0.007 A 
ATOM      8  C   UNL     1      -1.648  -0.977   5.831  0.00  0.00    -0.006 C 
ATOM      9  C   UNL     1      -1.287  -2.318   5.223  0.00  0.00    +0.088 C 
ATOM     10  C   UNL     1      -1.547  -3.553   6.057  0.00  0.00    +0.223 C 
ATOM     11  O   UNL     1      -1.275  -4.654   5.618  0.00  0.00    -0.275 OA
ATOM     12  N   UNL     1      -2.069  -3.429   7.266  0.00  0.00    -0.284 N 
ATOM     13  C   UNL     1      -2.383  -2.252   7.807  0.00  0.00    +0.043 A 
ATOM     14  H   UNL     1      -2.228  -4.234   7.785  0.00  0.00    +0.155 HD
ENDBRANCH   1   9
BRANCH   1  15
ATOM     15  C   UNL     1       0.694  -3.718   4.625  0.00  0.00    +0.205 C 
ATOM     16  N   UNL     1       2.160  -3.777   4.704  0.00  0.00    -0.152 NA
ATOM     17  N   UNL     1       2.604  -4.145   3.614  0.00  0.00    -0.070 NA
ATOM     18  N   UNL     1       1.602  -4.384   2.673  0.00  0.00    -0.179 N 
ATOM     19  N   UNL     1       0.378  -4.136   3.243  0.00  0.00    -0.185 NA
ATOM     20  H   UNL     1       1.747  -4.678   1.761  0.00  0.00    +0.191 HD
BRANCH  19  21
ATOM     21  C   UNL     1      -0.335  -3.073   2.522  0.00  0.00    +0.080 C 
ATOM     22  C   UNL     1      -0.953  -3.636   1.226  0.00  0.00    +0.021 C 
ATOM     23  C   UNL     1      -0.788  -2.490   0.197  0.00  0.00    +0.002 C 
ATOM     24  C   UNL     1       0.600  -1.905   0.556  0.00  0.00    +0.002 C 
ATOM     25  C   UNL     1       0.653  -1.972   2.096  0.00  0.00    +0.021 C 
ENDBRANCH  19  21
ENDBRANCH   1  15
BRANCH   1  26
ATOM     26  N   UNL     1       0.955  -1.705   5.995  0.00  0.00    +0.391 N 
ATOM     27  H   UNL     1       1.922  -1.986   5.935  0.00  0.00    -0.080 HD
BRANCH  26  28
ATOM     28  C   UNL     1       0.865  -0.240   5.931  0.00  0.00    -0.002 C 
BRANCH  28  29
ATOM     29  C   UNL     1       2.014   0.298   5.118  0.00  0.00    +0.089 A 
ATOM     30  C   UNL     1       1.978   0.598   3.808  0.00  0.00    +0.042 A 
ATOM     31  C   UNL     1       3.266   1.067   3.459  0.00  0.00    +0.041 A 
ATOM     32  C   UNL     1       4.011   1.026   4.578  0.00  0.00    +0.195 A 
ATOM     33  O   UNL     1       3.246   0.565   5.581  0.00  0.00    -0.470 OA
ENDBRANCH  28  29
ENDBRANCH  26  28
BRANCH  26  34
ATOM     34  C   UNL     1       0.387  -2.175   7.266  0.00  0.00    -0.046 C 
BRANCH  34  35
ATOM     35  C   UNL     1       1.006  -3.526   7.633  0.00  0.00    +0.102 C 
ATOM     36  C   UNL     1       0.400  -4.038   8.957  0.00  0.00    +0.032 C 
ATOM     37  C   UNL     1       1.633  -4.661   9.665  0.00  0.00    +0.030 C 
ATOM     38  C   UNL     1       2.759  -3.710   9.187  0.00  0.00    +0.160 C 
ATOM     39  O   UNL     1       2.417  -3.376   7.831  0.00  0.00    -0.378 OA
ENDBRANCH  34  35
ENDBRANCH  26  34
ENDBRANCH   1  26
TORSDOF 8
