REMARK  Name = ZINC59791589
REMARK  8 active torsions:
REMARK  status: ('A' for Active; 'I' for Inactive)
REMARK    1  A    between atoms: C_4  and  N_7
REMARK    2  A    between atoms: C_8  and  C_29
REMARK    3  A    between atoms: C_11  and  S_12
REMARK    4  A    between atoms: S_12  and  C_13
REMARK    5  A    between atoms: C_13  and  C_14
REMARK    6  A    between atoms: C_14  and  C_15
REMARK    7  A    between atoms: N_17  and  C_18
REMARK    8  A    between atoms: C_32  and  N_35
REMARK                            x       y       z     vdW  Elec       q    Type
REMARK                         _______ _______ _______ _____ _____    ______ ____
ROOT
ATOM      1  N   UNL     1       3.775  -0.660  -0.148  0.00  0.00    -0.270 N 
ATOM      2  C   UNL     1       4.246  -1.550  -1.089  0.00  0.00    +0.169 A 
ATOM      3  N   UNL     1       5.421  -1.963  -0.673  0.00  0.00    -0.128 NA
ATOM      4  N   UNL     1       5.713  -1.403   0.446  0.00  0.00    -0.122 NA
ATOM      5  C   UNL     1       4.746  -0.591   0.812  0.00  0.00    +0.196 A 
ENDROOT
BRANCH   1   9
ATOM      6  C   UNL     1       0.154   1.404  -0.225  0.00  0.00    +0.000 A 
ATOM      7  C   UNL     1       1.344   2.094  -0.366  0.00  0.00    +0.002 A 
ATOM      8  C   UNL     1       2.546   1.412  -0.342  0.00  0.00    +0.026 A 
ATOM      9  C   UNL     1       2.557   0.034  -0.174  0.00  0.00    +0.051 A 
ATOM     10  C   UNL     1       1.361  -0.655  -0.032  0.00  0.00    +0.026 A 
ATOM     11  C   UNL     1       0.162   0.032  -0.057  0.00  0.00    +0.002 A 
ENDBRANCH   1   9
BRANCH   2  12
ATOM     12  C   UNL     1       3.559  -1.962  -2.331  0.00  0.00    +0.020 A 
ATOM     13  C   UNL     1       2.516  -1.189  -2.844  0.00  0.00    +0.014 A 
ATOM     14  C   UNL     1       1.879  -1.579  -4.004  0.00  0.00    +0.033 A 
ATOM     15  C   UNL     1       2.272  -2.733  -4.658  0.00  0.00    +0.126 A 
ATOM     16  C   UNL     1       3.304  -3.504  -4.155  0.00  0.00    +0.033 A 
ATOM     17  C   UNL     1       3.954  -3.122  -2.999  0.00  0.00    +0.014 A 
BRANCH  15  18
ATOM     18  N   UNL     1       1.583  -3.146  -5.902  0.00  0.00    +0.056 N 
ATOM     19  O   UNL     1       0.680  -2.475  -6.345  0.00  0.00    -0.126 OA
ATOM     20  O   UNL     1       1.924  -4.154  -6.476  0.00  0.00    -0.126 OA
ENDBRANCH  15  18
ENDBRANCH   2  12
BRANCH   5  21
ATOM     21  S   UNL     1       4.707   0.397   2.270  0.00  0.00    -0.085 S 
BRANCH  21  22
ATOM     22  C   UNL     1       6.279   0.025   3.095  0.00  0.00    +0.086 C 
BRANCH  22  23
ATOM     23  C   UNL     1       6.376   0.828   4.394  0.00  0.00    +0.107 C 
BRANCH  23  24
ATOM     24  C   UNL     1       7.682   0.519   5.079  0.00  0.00    +0.218 C 
ATOM     25  O   UNL     1       8.459  -0.266   4.578  0.00  0.00    -0.275 OA
ATOM     26  N   UNL     1       7.987   1.115   6.249  0.00  0.00    -0.285 N 
ATOM     27  H   UNL     1       7.338   1.690   6.684  0.00  0.00    +0.155 HD
BRANCH  26  28
ATOM     28  C   UNL     1       9.236   0.906   6.834  0.00  0.00    +0.034 A 
ATOM     29  C   UNL     1       9.849  -0.337   6.728  0.00  0.00    +0.024 A 
ATOM     30  C   UNL     1      11.087  -0.557   7.304  0.00  0.00    +0.015 A 
ATOM     31  C   UNL     1      11.721   0.469   7.991  0.00  0.00    +0.049 A 
ATOM     32  C   UNL     1      11.101   1.731   8.100  0.00  0.00    +0.051 A 
ATOM     33  C   UNL     1       9.866   1.945   7.517  0.00  0.00    +0.037 A 
ATOM     34  C   UNL     1      12.034   2.572   8.881  0.00  0.00    +0.251 C 
ATOM     35  O   UNL     1      11.854   3.734   9.187  0.00  0.00    -0.270 OA
ATOM     36  N   UNL     1      13.114   1.835   9.195  0.00  0.00    -0.248 N 
ATOM     37  C   UNL     1      13.006   0.586   8.708  0.00  0.00    +0.251 C 
ATOM     38  O   UNL     1      13.829  -0.299   8.836  0.00  0.00    -0.270 OA
ATOM     39  H   UNL     1      13.871   2.160   9.707  0.00  0.00    +0.158 HD
ENDBRANCH  26  28
ENDBRANCH  23  24
ENDBRANCH  22  23
ENDBRANCH  21  22
ENDBRANCH   5  21
TORSDOF 8
