REMARK  Name = ZINC02134736
REMARK  7 active torsions:
REMARK  status: ('A' for Active; 'I' for Inactive)
REMARK    1  A    between atoms: C_1  and  C_2
REMARK    2  A    between atoms: C_4  and  C_32
REMARK    3  A    between atoms: C_13  and  C_15
REMARK    4  A    between atoms: C_15  and  C_16
REMARK    5  A    between atoms: C_16  and  S_17
REMARK    6  A    between atoms: S_17  and  C_18
REMARK    7  A    between atoms: N_21  and  C_24
REMARK                            x       y       z     vdW  Elec       q    Type
REMARK                         _______ _______ _______ _____ _____    ______ ____
ROOT
ATOM      1  C   UNL     1      -1.832   4.805   0.046  0.00  0.00    +0.044 C 
ATOM      2  C   UNL     1      -0.726   3.782   0.029  0.00  0.00    -0.050 A 
ATOM      3  C   UNL     1       0.596   4.190   0.018  0.00  0.00    +0.008 A 
ATOM      4  C   UNL     1       1.612   3.258   0.003  0.00  0.00    -0.029 A 
ATOM      5  C   UNL     1       1.315   1.897  -0.000  0.00  0.00    +0.039 A 
ATOM      6  C   UNL     1      -0.018   1.498   0.010  0.00  0.00    -0.027 A 
ATOM      7  C   UNL     1      -1.030   2.432   0.020  0.00  0.00    +0.008 A 
ATOM      8  C   UNL     1       0.002  -0.004   0.002  0.00  0.00    +0.050 C 
ATOM      9  C   UNL     1      -0.713  -0.583   1.229  0.00  0.00    +0.088 C 
ATOM     10  C   UNL     1      -2.136  -0.943   0.718  0.00  0.00    +0.073 C 
ATOM     11  C   UNL     1      -2.138  -0.535  -0.771  0.00  0.00    -0.057 C 
ATOM     12  C   UNL     1      -2.173  -2.451   0.822  0.00  0.00    +0.224 C 
ATOM     13  O   UNL     1      -3.113  -3.151   0.513  0.00  0.00    -0.275 OA
ATOM     14  N   UNL     1      -1.008  -2.891   1.310  0.00  0.00    -0.239 N 
ATOM     15  C   UNL     1      -0.117  -1.929   1.575  0.00  0.00    +0.225 C 
ATOM     16  O   UNL     1       0.995  -2.108   2.024  0.00  0.00    -0.275 OA
ATOM     17  C   UNL     1       1.459  -0.376  -0.013  0.00  0.00    +0.211 C 
ATOM     18  O   UNL     1       1.921  -1.497  -0.023  0.00  0.00    -0.277 OA
ATOM     19  N   UNL     1       2.152   0.779  -0.014  0.00  0.00    -0.286 N 
ATOM     20  C   UNL     1       3.048   3.713  -0.008  0.00  0.00    +0.045 C 
ATOM     21  H   UNL     1       3.121   0.829  -0.023  0.00  0.00    +0.155 HD
ATOM     22  N   UNL     1      -0.720  -0.536  -1.140  0.00  0.00    +0.394 N 
ATOM     23  H   UNL     1      -0.407  -1.493  -1.344  0.00  0.00    -0.083 HD
ATOM     24  H   UNL     1      -0.568   0.057  -1.964  0.00  0.00    -0.083 HD
ENDROOT
BRANCH  14  25
ATOM     25  C   UNL     1      -0.730  -4.312   1.535  0.00  0.00    +0.084 C 
ATOM     26  C   UNL     1      -0.890  -5.097   0.217  0.00  0.00    +0.023 C 
ATOM     27  C   UNL     1      -1.518  -6.445   0.653  0.00  0.00    +0.002 C 
ATOM     28  C   UNL     1      -2.498  -6.020   1.774  0.00  0.00    +0.002 C 
ATOM     29  C   UNL     1      -1.751  -4.899   2.525  0.00  0.00    +0.023 C 
ENDBRANCH  14  25
BRANCH  11  30
ATOM     30  C   UNL     1      -2.931  -1.547  -1.599  0.00  0.00    -0.004 C 
BRANCH  30  31
ATOM     31  C   UNL     1      -2.960  -1.098  -3.062  0.00  0.00    +0.067 C 
BRANCH  31  32
ATOM     32  S   UNL     1      -3.901  -2.298  -4.044  0.00  0.00    -0.164 S 
ATOM     33  C   UNL     1      -3.842  -1.629  -5.729  0.00  0.00    +0.084 C 
ENDBRANCH  31  32
ENDBRANCH  30  31
ENDBRANCH  11  30
TORSDOF 4
