REMARK  Name = ZINC00669286
REMARK  7 active torsions:
REMARK  status: ('A' for Active; 'I' for Inactive)
REMARK    1  A    between atoms: C_1  and  C_2
REMARK    2  A    between atoms: C_2  and  C_27
REMARK    3  A    between atoms: C_6  and  C_14
REMARK    4  A    between atoms: C_8  and  C_12
REMARK    5  A    between atoms: C_9  and  N_11
REMARK    6  A    between atoms: C_19  and  O_20
REMARK    7  A    between atoms: O_20  and  C_21
REMARK                            x       y       z     vdW  Elec       q    Type
REMARK                         _______ _______ _______ _____ _____    ______ ____
ROOT
ATOM      1  C   UNL     1       3.527   3.488  -3.266  0.00  0.00    +0.012 C 
ATOM      2  C   UNL     1       4.654   3.748  -2.264  0.00  0.00    -0.021 C 
ATOM      3  C   UNL     1       4.203   4.795  -1.243  0.00  0.00    +0.081 C 
ATOM      4  C   UNL     1       3.001   4.281  -0.485  0.00  0.00    +0.115 C 
ATOM      5  C   UNL     1       2.843   2.963  -0.260  0.00  0.00    +0.046 C 
ATOM      6  C   UNL     1       1.645   2.453   0.502  0.00  0.00    +0.105 C 
ATOM      7  C   UNL     1       0.561   3.494   0.518  0.00  0.00    +0.098 C 
ATOM      8  C   UNL     1       0.850   4.788   0.238  0.00  0.00    +0.198 C 
ATOM      9  O   UNL     1       2.103   5.180  -0.042  0.00  0.00    -0.445 OA
ATOM     10  C   UNL     1       3.783   2.023  -0.726  0.00  0.00    +0.164 C 
ATOM     11  O   UNL     1       3.616   0.844  -0.486  0.00  0.00    -0.292 OA
ATOM     12  C   UNL     1       4.989   2.453  -1.516  0.00  0.00    +0.086 C 
ATOM     13  C   UNL     1       5.894   4.254  -3.005  0.00  0.00    +0.012 C 
ENDROOT
BRANCH   6  14
ATOM     14  C   UNL     1       2.052   2.133   1.918  0.00  0.00    +0.010 A 
ATOM     15  C   UNL     1       2.659   3.100   2.697  0.00  0.00    +0.028 A 
ATOM     16  C   UNL     1       3.027   2.809   3.998  0.00  0.00    +0.043 A 
ATOM     17  C   UNL     1       2.800   1.548   4.519  0.00  0.00    +0.039 A 
ATOM     18  C   UNL     1       2.199   0.576   3.741  0.00  0.00    +0.061 A 
ATOM     19  C   UNL     1       1.823   0.868   2.437  0.00  0.00    +0.138 A 
ATOM     20 BR   UNL     1       1.890  -1.148   4.452  0.00  0.00    -0.046 Br
ATOM     21 CL   UNL     1       3.782   4.028   4.978  0.00  0.00    -0.083 Cl
BRANCH  19  22
ATOM     22  O   UNL     1       1.232  -0.086   1.669  0.00  0.00    -0.494 OA
ATOM     23  C   UNL     1       2.092  -1.047   1.053  0.00  0.00    +0.277 C 
ENDBRANCH  19  22
ENDBRANCH   6  14
BRANCH   8  24
ATOM     24  N   UNL     1      -0.159   5.719   0.248  0.00  0.00    -0.328 N 
ATOM     25  H   UNL     1      -1.067   5.448   0.454  0.00  0.00    +0.145 HD
ATOM     26  H   UNL     1       0.036   6.648   0.050  0.00  0.00    +0.145 HD
ENDBRANCH   8  24
BRANCH   7  27
ATOM     27  C   UNL     1      -0.786   3.115   0.825  0.00  0.00    +0.101 C 
ATOM     28  N   UNL     1      -1.854   2.815   1.068  0.00  0.00    -0.191 NA
ENDBRANCH   7  27
TORSDOF 4
