REMARK  Name = ZINC09528443
REMARK  11 active torsions:
REMARK  status: ('A' for Active; 'I' for Inactive)
REMARK    1  A    between atoms: C_1  and  C_2
REMARK    2  A    between atoms: C_2  and  C_3
REMARK    3  A    between atoms: C_2  and  C_4
REMARK    4  A    between atoms: C_4  and  C_6
REMARK    5  A    between atoms: C_4  and  N_23
REMARK    6  A    between atoms: N_8  and  C_9
REMARK    7  A    between atoms: C_9  and  C_10
REMARK    8  A    between atoms: C_15  and  C_16
REMARK    9  A    between atoms: C_15  and  N_61
REMARK   10  A    between atoms: N_23  and  S_24
REMARK   11  A    between atoms: S_24  and  C_27
REMARK                            x       y       z     vdW  Elec       q    Type
REMARK                         _______ _______ _______ _____ _____    ______ ____
ROOT
ATOM      1  C   UNL     1      -0.202  -0.326   2.552  0.00  0.00    +0.232 C 
ATOM      2  O   UNL     1       0.765  -1.056   2.602  0.00  0.00    -0.274 OA
ATOM      3  N   UNL     1      -1.444  -0.848   2.584  0.00  0.00    -0.314 N 
ATOM      4  H   UNL     1      -2.217  -0.264   2.545  0.00  0.00    +0.149 HD
ENDROOT
BRANCH   1   5
ATOM      5  C   UNL     1      -0.015   1.167   2.455  0.00  0.00    +0.165 C 
BRANCH   5   7
ATOM      6  C   UNL     1       0.075   1.105  -0.041  0.00  0.00    +0.009 C 
ATOM      7  C   UNL     1      -0.665   1.679   1.169  0.00  0.00    +0.010 C 
ATOM      8  C   UNL     1      -0.590   3.207   1.134  0.00  0.00    +0.009 C 
ENDBRANCH   5   7
BRANCH   5   9
ATOM      9  N   UNL     1       1.417   1.479   2.437  0.00  0.00    -0.177 NA
ATOM     10  H   UNL     1       1.968   1.184   1.696  0.00  0.00    +0.149 HD
BRANCH   9  11
ATOM     11  S   UNL     1       2.093   2.336   3.683  0.00  0.00    +0.065 S 
ATOM     12  O   UNL     1       3.478   2.452   3.391  0.00  0.00    -0.153 OA
ATOM     13  O   UNL     1       1.262   3.469   3.894  0.00  0.00    -0.153 OA
BRANCH  11  14
ATOM     14  C   UNL     1       1.964   1.340   5.131  0.00  0.00    +0.142 A 
ATOM     15  C   UNL     1       2.839   0.428   5.619  0.00  0.00    +0.036 A 
ATOM     16  C   UNL     1       2.526  -0.243   6.787  0.00  0.00    +0.010 A 
ATOM     17  C   UNL     1       1.353   0.032   7.409  0.00  0.00    +0.047 A 
ATOM     18  S   UNL     1       0.651   1.277   6.339  0.00  0.00    -0.077 S 
ENDBRANCH  11  14
ENDBRANCH   9  11
ENDBRANCH   5   9
ENDBRANCH   1   5
BRANCH   3  19
ATOM     19  C   UNL     1      -1.626  -2.299   2.679  0.00  0.00    +0.107 C 
BRANCH  19  20
ATOM     20  C   UNL     1      -3.120  -2.625   2.697  0.00  0.00    +0.003 C 
ATOM     21  C   UNL     1      -3.751  -2.062   3.974  0.00  0.00    -0.014 C 
ATOM     22  C   UNL     1      -5.232  -2.443   4.016  0.00  0.00    -0.078 C 
ATOM     23  C   UNL     1      -4.807  -4.466   2.751  0.00  0.00    -0.078 C 
ATOM     24  C   UNL     1      -3.313  -4.144   2.670  0.00  0.00    -0.014 C 
ATOM     25  N   UNL     1      -5.348  -3.917   4.012  0.00  0.00    +0.382 N 
ATOM     26  H   UNL     1      -4.808  -4.296   4.799  0.00  0.00    -0.081 HD
BRANCH  25  27
ATOM     27  C   UNL     1      -6.764  -4.312   4.168  0.00  0.00    -0.043 C 
BRANCH  27  28
ATOM     28  C   UNL     1      -7.224  -3.932   5.551  0.00  0.00    -0.064 A 
ATOM     29  C   UNL     1      -7.079  -4.823   6.598  0.00  0.00    +0.003 A 
ATOM     30  C   UNL     1      -7.496  -4.473   7.868  0.00  0.00    +0.020 A 
ATOM     31  C   UNL     1      -8.070  -3.233   8.089  0.00  0.00    +0.041 A 
ATOM     32  C   UNL     1      -8.220  -2.344   7.041  0.00  0.00    +0.020 A 
ATOM     33  C   UNL     1      -7.798  -2.693   5.772  0.00  0.00    +0.003 A 
ATOM     34 CL   UNL     1      -8.600  -2.794   9.683  0.00  0.00    -0.084 Cl
ENDBRANCH  27  28
ENDBRANCH  25  27
ENDBRANCH  19  20
ENDBRANCH   3  19
TORSDOF 9
