REMARK  Name = ZINC39633521
REMARK  4 active torsions:
REMARK  status: ('A' for Active; 'I' for Inactive)
REMARK    1  A    between atoms: C_1  and  C_2
REMARK    2  A    between atoms: C_2  and  C_8
REMARK    3  A    between atoms: C_12  and  C_21
REMARK    4  A    between atoms: N_23  and  C_24
REMARK                            x       y       z     vdW  Elec       q    Type
REMARK                         _______ _______ _______ _____ _____    ______ ____
ROOT
ATOM      1  C   UNL     1       0.616  -0.531  -1.336  0.00  0.00    +0.222 C 
ATOM      2  O   UNL     1       1.574  -1.275  -1.332  0.00  0.00    -0.275 OA
ATOM      3  N   UNL     1       0.096  -0.107  -2.505  0.00  0.00    -0.300 N 
ATOM      4  C   UNL     1      -0.993   0.876  -2.712  0.00  0.00    +0.121 C 
ATOM      5  C   UNL     1      -0.547   1.700  -3.941  0.00  0.00    +0.100 C 
ATOM      6  C   UNL     1       0.421   0.778  -4.701  0.00  0.00    -0.004 C 
ATOM      7  C   UNL     1       0.489  -0.515  -3.875  0.00  0.00    +0.115 C 
ATOM      8  C   UNL     1      -0.116   0.485  -6.099  0.00  0.00    -0.010 C 
ATOM      9  C   UNL     1       0.891  -0.386  -6.855  0.00  0.00    -0.082 C 
ATOM     10  N   UNL     1       2.179   0.313  -6.940  0.00  0.00    +0.379 N 
ATOM     11  C   UNL     1       2.733   0.508  -5.595  0.00  0.00    -0.082 C 
ATOM     12  C   UNL     1       1.804   1.417  -4.785  0.00  0.00    -0.010 C 
ATOM     13  H   UNL     1       2.822  -0.235  -7.491  0.00  0.00    -0.086 HD
ATOM     14  H   UNL     1       2.045   1.211  -7.380  0.00  0.00    -0.086 HD
ENDROOT
BRANCH   1  16
ATOM     15  C   UNL     1       0.249   1.419   0.152  0.00  0.00    +0.021 C 
ATOM     16  C   UNL     1       0.006  -0.081  -0.033  0.00  0.00    +0.044 C 
ATOM     17  C   UNL     1      -1.499  -0.355  -0.052  0.00  0.00    +0.016 C 
ATOM     18  C   UNL     1      -1.741  -1.855  -0.237  0.00  0.00    +0.001 C 
ATOM     19  C   UNL     1      -1.097  -2.622   0.919  0.00  0.00    +0.000 C 
ATOM     20  C   UNL     1       0.408  -2.347   0.938  0.00  0.00    +0.001 C 
ATOM     21  C   UNL     1       0.650  -0.848   1.123  0.00  0.00    +0.016 C 
ENDBRANCH   1  16
BRANCH   5  22
ATOM     22  C   UNL     1      -1.735   2.042  -4.802  0.00  0.00    +0.218 C 
ATOM     23  O   UNL     1      -2.663   1.267  -4.890  0.00  0.00    -0.275 OA
ATOM     24  N   UNL     1      -1.766   3.210  -5.474  0.00  0.00    -0.312 N 
ATOM     25  H   UNL     1      -1.023   3.830  -5.404  0.00  0.00    +0.149 HD
BRANCH  24  26
ATOM     26  C   UNL     1      -2.921   3.542  -6.312  0.00  0.00    +0.073 C 
ATOM     27  C   UNL     1      -2.763   2.847  -7.679  0.00  0.00    +0.022 C 
ATOM     28  C   UNL     1      -4.118   2.753  -8.327  0.00  0.00    +0.002 C 
ATOM     29  C   UNL     1      -4.399   3.930  -9.280  0.00  0.00    +0.000 C 
ATOM     30  C   UNL     1      -3.932   5.284  -8.711  0.00  0.00    +0.000 C 
ATOM     31  C   UNL     1      -4.247   5.433  -7.247  0.00  0.00    +0.002 C 
ATOM     32  C   UNL     1      -3.014   4.990  -6.433  0.00  0.00    +0.022 C 
ENDBRANCH  24  26
ENDBRANCH   5  22
TORSDOF 3
