REMARK  Name = ZINC35703270
REMARK  17 active torsions:
REMARK  status: ('A' for Active; 'I' for Inactive)
REMARK    1  A    between atoms: C_1  and  C_2
REMARK    2  A    between atoms: C_2  and  C_3
REMARK    3  A    between atoms: C_3  and  C_4
REMARK    4  A    between atoms: C_4  and  S_5
REMARK    5  A    between atoms: S_5  and  O_8
REMARK    6  A    between atoms: O_8  and  C_9
REMARK    7  A    between atoms: C_13  and  C_15
REMARK    8  A    between atoms: C_16  and  N_25
REMARK    9  A    between atoms: C_21  and  C_24
REMARK   10  A    between atoms: N_25  and  C_26
REMARK   11  A    between atoms: C_26  and  C_27
REMARK   12  A    between atoms: C_26  and  C_28
REMARK   13  A    between atoms: C_26  and  C_29
REMARK   14  A    between atoms: C_29  and  C_30
REMARK   15  A    between atoms: C_30  and  C_31
REMARK   16  A    between atoms: C_30  and  C_32
REMARK   17  A    between atoms: C_30  and  C_33
REMARK                            x       y       z     vdW  Elec       q    Type
REMARK                         _______ _______ _______ _____ _____    ______ ____
ROOT
ATOM      1  C   UNL     1      -4.417  -6.482  -7.055  0.00  0.00    +0.087 A 
ATOM      2  C   UNL     1      -4.368  -7.853  -6.916  0.00  0.00    +0.129 A 
ATOM      3  N   UNL     1      -4.497  -8.383  -8.170  0.00  0.00    -0.289 N 
ATOM      4  C   UNL     1      -4.517  -9.673  -8.628  0.00  0.00    +0.094 A 
ATOM      5  C   UNL     1      -4.659  -9.932  -9.943  0.00  0.00    +0.018 A 
ATOM      6  C   UNL     1      -4.788  -8.877 -10.865  0.00  0.00    +0.008 A 
ATOM      7  C   UNL     1      -4.771  -7.591 -10.427  0.00  0.00    -0.009 A 
ATOM      8  C   UNL     1      -4.622  -7.330  -9.048  0.00  0.00    +0.120 A 
ATOM      9  N   UNL     1      -4.577  -6.201  -8.361  0.00  0.00    -0.338 N 
ATOM     10  C   UNL     1      -4.908  -6.453 -11.405  0.00  0.00    +0.047 C 
ATOM     11  H   UNL     1      -4.647  -5.311  -8.740  0.00  0.00    +0.167 HD
ENDROOT
BRANCH   1  16
ATOM     12  C   UNL     1      -3.419  -3.445  -5.072  0.00  0.00    +0.157 A 
ATOM     13  C   UNL     1      -4.136  -3.642  -3.900  0.00  0.00    +0.048 A 
ATOM     14  C   UNL     1      -4.940  -4.757  -3.755  0.00  0.00    +0.004 A 
ATOM     15  C   UNL     1      -5.035  -5.681  -4.776  0.00  0.00    +0.010 A 
ATOM     16  C   UNL     1      -4.318  -5.491  -5.957  0.00  0.00    +0.005 A 
ATOM     17  C   UNL     1      -3.512  -4.363  -6.104  0.00  0.00    +0.058 A 
BRANCH  12  18
ATOM     18  O   UNL     1      -2.630  -2.347  -5.209  0.00  0.00    -0.346 OA
BRANCH  18  19
ATOM     19  S   UNL     1      -3.344  -1.141  -5.803  0.00  0.00    +0.121 S 
ATOM     20  O   UNL     1      -4.158  -1.675  -6.838  0.00  0.00    -0.137 OA
ATOM     21  O   UNL     1      -2.308  -0.216  -6.100  0.00  0.00    -0.137 OA
BRANCH  19  22
ATOM     22  C   UNL     1      -4.382  -0.506  -4.458  0.00  0.00    +0.210 C 
BRANCH  22  23
ATOM     23  C   UNL     1      -5.155   0.721  -4.946  0.00  0.00    +0.026 C 
BRANCH  23  25
ATOM     24  C   UNL     1      -6.804   2.484  -4.300  0.00  0.00    +0.004 C 
ATOM     25  C   UNL     1      -6.031   1.257  -3.812  0.00  0.00    -0.002 C 
ENDBRANCH  23  25
ENDBRANCH  22  23
ENDBRANCH  19  22
ENDBRANCH  18  19
ENDBRANCH  12  18
ENDBRANCH   1  16
BRANCH   2  26
ATOM     26  N   UNL     1      -4.215  -8.563  -5.725  0.00  0.00    -0.323 N 
ATOM     27  H   UNL     1      -4.239  -8.095  -4.875  0.00  0.00    +0.148 HD
BRANCH  26  28
ATOM     28  C   UNL     1      -4.020 -10.014  -5.757  0.00  0.00    +0.028 C 
ATOM     29  C   UNL     1      -5.310 -10.692  -6.222  0.00  0.00    +0.031 C 
ATOM     30  C   UNL     1      -2.887 -10.355  -6.727  0.00  0.00    +0.031 C 
BRANCH  28  31
ATOM     31  C   UNL     1      -3.659 -10.511  -4.356  0.00  0.00    +0.031 C 
BRANCH  31  32
ATOM     32  C   UNL     1      -2.428  -9.758  -3.849  0.00  0.00    -0.036 C 
ATOM     33  C   UNL     1      -2.519  -8.290  -4.271  0.00  0.00    +0.010 C 
ATOM     34  C   UNL     1      -2.369  -9.846  -2.322  0.00  0.00    +0.010 C 
ATOM     35  C   UNL     1      -1.165 -10.383  -4.445  0.00  0.00    +0.010 C 
ENDBRANCH  31  32
ENDBRANCH  28  31
ENDBRANCH  26  28
ENDBRANCH   2  26
TORSDOF 10
