REMARK  Name = ZINC35292716
REMARK  9 active torsions:
REMARK  status: ('A' for Active; 'I' for Inactive)
REMARK    1  A    between atoms: C_1  and  C_2
REMARK    2  A    between atoms: C_2  and  C_30
REMARK    3  A    between atoms: C_8  and  C_21
REMARK    4  A    between atoms: N_13  and  C_17
REMARK    5  A    between atoms: C_14  and  O_16
REMARK    6  A    between atoms: C_17  and  C_18
REMARK    7  A    between atoms: C_17  and  C_19
REMARK    8  A    between atoms: C_17  and  C_20
REMARK    9  A    between atoms: C_24  and  N_27
REMARK                            x       y       z     vdW  Elec       q    Type
REMARK                         _______ _______ _______ _____ _____    ______ ____
ROOT
ATOM      1  C   UNL     1      -0.503   3.364   2.157  0.00  0.00    +0.011 C 
ATOM      2  C   UNL     1      -0.562   2.302   1.059  0.00  0.00    -0.024 C 
ATOM      3  C   UNL     1      -1.976   1.716   0.992  0.00  0.00    +0.081 C 
ATOM      4  C   UNL     1      -2.173   0.846   2.218  0.00  0.00    +0.143 C 
ATOM      5  O   UNL     1      -3.058   1.084   2.998  0.00  0.00    -0.297 OA
ATOM      6  C   UNL     1      -1.202  -0.296   2.397  0.00  0.00    +0.130 C 
ATOM      7  C   UNL     1      -1.479  -1.032   3.709  0.00  0.00    +0.119 C 
ATOM      8  N   UNL     1      -1.417  -0.042   4.791  0.00  0.00    -0.292 N 
ATOM      9  C   UNL     1      -0.433   0.874   4.756  0.00  0.00    +0.305 C 
ATOM     10  O   UNL     1      -0.346   1.680   5.658  0.00  0.00    -0.253 OA
ATOM     11  N   UNL     1       0.452   0.925   3.746  0.00  0.00    -0.252 N 
ATOM     12  C   UNL     1       0.218   0.286   2.456  0.00  0.00    +0.149 C 
ATOM     13  C   UNL     1       0.475   1.216   1.283  0.00  0.00    +0.063 C 
ATOM     14  C   UNL     1      -0.267   2.990  -0.287  0.00  0.00    +0.011 C 
ATOM     15  H   UNL     1      -2.062  -0.051   5.503  0.00  0.00    +0.151 HD
ENDROOT
BRANCH   7  16
ATOM     16  C   UNL     1      -2.824  -1.709   3.679  0.00  0.00    -0.026 A 
ATOM     17  C   UNL     1      -2.944  -2.986   3.164  0.00  0.00    +0.008 A 
ATOM     18  C   UNL     1      -4.178  -3.608   3.136  0.00  0.00    +0.033 A 
ATOM     19  C   UNL     1      -5.293  -2.953   3.625  0.00  0.00    +0.126 A 
ATOM     20  C   UNL     1      -5.173  -1.676   4.141  0.00  0.00    +0.033 A 
ATOM     21  C   UNL     1      -3.938  -1.056   4.172  0.00  0.00    +0.008 A 
BRANCH  19  22
ATOM     22  N   UNL     1      -6.615  -3.618   3.595  0.00  0.00    +0.056 N 
ATOM     23  O   UNL     1      -6.719  -4.735   3.143  0.00  0.00    -0.126 OA
ATOM     24  O   UNL     1      -7.590  -3.045   4.022  0.00  0.00    -0.126 OA
ENDBRANCH  19  22
ENDBRANCH   7  16
BRANCH  11  25
ATOM     25  C   UNL     1       1.728   1.607   3.998  0.00  0.00    +0.033 C 
ATOM     26  C   UNL     1       2.048   1.556   5.493  0.00  0.00    +0.031 C 
ATOM     27  C   UNL     1       2.843   0.911   3.214  0.00  0.00    +0.031 C 
ATOM     28  C   UNL     1       1.624   3.066   3.549  0.00  0.00    +0.031 C 
ENDBRANCH  11  25
BRANCH  12  29
ATOM     29  O   UNL     1       1.139  -0.823   2.351  0.00  0.00    -0.371 OA
ATOM     30  H   UNL     1       2.027  -0.571   2.062  0.00  0.00    +0.212 HD
ENDBRANCH  12  29
TORSDOF 4
