REMARK  Name = ZINC44713853
REMARK  8 active torsions:
REMARK  status: ('A' for Active; 'I' for Inactive)
REMARK    1  A    between atoms: C_1  and  C_2
REMARK    2  A    between atoms: C_5  and  C_9
REMARK    3  A    between atoms: C_13  and  C_22
REMARK    4  A    between atoms: N_24  and  C_25
REMARK    5  A    between atoms: C_25  and  C_27
REMARK    6  A    between atoms: C_25  and  C_28
REMARK    7  A    between atoms: C_29  and  C_35
REMARK    8  A    between atoms: C_33  and  C_34
REMARK                            x       y       z     vdW  Elec       q    Type
REMARK                         _______ _______ _______ _____ _____    ______ ____
ROOT
ATOM      1  C   UNL     1       0.048  -4.253  -0.031  0.00  0.00    +0.247 C 
ATOM      2  O   UNL     1      -0.069  -4.855  -1.081  0.00  0.00    -0.270 OA
ATOM      3  N   UNL     1       0.163  -4.934   1.126  0.00  0.00    -0.296 N 
ATOM      4  C   UNL     1       0.182  -4.387   2.504  0.00  0.00    +0.121 C 
ATOM      5  C   UNL     1      -0.642  -5.396   3.335  0.00  0.00    +0.100 C 
ATOM      6  C   UNL     1      -0.559  -6.714   2.547  0.00  0.00    -0.004 C 
ATOM      7  C   UNL     1       0.293  -6.399   1.310  0.00  0.00    +0.115 C 
ATOM      8  C   UNL     1      -1.953  -7.163   2.120  0.00  0.00    -0.010 C 
ATOM      9  C   UNL     1      -1.851  -8.504   1.389  0.00  0.00    -0.082 C 
ATOM     10  N   UNL     1      -1.244  -9.503   2.277  0.00  0.00    +0.379 N 
ATOM     11  C   UNL     1       0.131  -9.109   2.609  0.00  0.00    -0.082 C 
ATOM     12  C   UNL     1       0.112  -7.793   3.392  0.00  0.00    -0.010 C 
ATOM     13  H   UNL     1      -1.787  -9.571   3.125  0.00  0.00    -0.086 HD
ATOM     14  H   UNL     1      -1.233 -10.399   1.815  0.00  0.00    -0.086 HD
ENDROOT
BRANCH   1  19
ATOM     15  C   UNL     1       0.110   1.503  -0.000  0.00  0.00    +0.047 C 
ATOM     16  C   UNL     1       0.093  -0.004  -0.009  0.00  0.00    -0.015 A 
ATOM     17  C   UNL     1       0.694  -0.706   1.021  0.00  0.00    +0.007 A 
ATOM     18  C   UNL     1       0.682  -2.085   1.019  0.00  0.00    +0.013 A 
ATOM     19  C   UNL     1       0.063  -2.775  -0.024  0.00  0.00    +0.040 A 
ATOM     20  C   UNL     1      -0.542  -2.063  -1.061  0.00  0.00    +0.051 A 
ATOM     21  C   UNL     1      -0.529  -0.681  -1.045  0.00  0.00    +0.127 A 
ATOM     22  F   UNL     1      -1.119   0.011  -2.045  0.00  0.00    -0.205 F 
ENDBRANCH   1  19
BRANCH   5  23
ATOM     23  C   UNL     1      -0.038  -5.562   4.706  0.00  0.00    +0.219 C 
ATOM     24  O   UNL     1       1.141  -5.338   4.881  0.00  0.00    -0.275 OA
ATOM     25  N   UNL     1      -0.809  -5.959   5.738  0.00  0.00    -0.308 N 
ATOM     26  H   UNL     1      -1.752  -6.138   5.598  0.00  0.00    +0.149 HD
BRANCH  25  27
ATOM     27  C   UNL     1      -0.222  -6.121   7.071  0.00  0.00    +0.104 C 
ATOM     28  C   UNL     1       0.300  -7.550   7.228  0.00  0.00    +0.033 C 
BRANCH  27  29
ATOM     29  C   UNL     1      -1.272  -5.852   8.118  0.00  0.00    +0.015 A 
ATOM     30  C   UNL     1      -1.145  -5.020   9.177  0.00  0.00    +0.038 A 
ATOM     31  N   UNL     1      -2.302  -5.059   9.871  0.00  0.00    -0.281 N 
ATOM     32  H   UNL     1      -2.498  -4.561  10.680  0.00  0.00    +0.189 HD
ATOM     33  N   UNL     1      -3.168  -5.944   9.217  0.00  0.00    -0.179 NA
ATOM     34  C   UNL     1      -2.552  -6.414   8.163  0.00  0.00    +0.065 A 
ATOM     35  C   UNL     1      -3.122  -7.396   7.171  0.00  0.00    +0.068 C 
ATOM     36  C   UNL     1       0.070  -4.197   9.520  0.00  0.00    +0.065 C 
ENDBRANCH  27  29
ENDBRANCH  25  27
ENDBRANCH   5  23
TORSDOF 4
