REMARK  Name = ZINC06402401
REMARK  4 active torsions:
REMARK  status: ('A' for Active; 'I' for Inactive)
REMARK    1  A    between atoms: C_3  and  C_19
REMARK    2  A    between atoms: C_5  and  C_7
REMARK    3  A    between atoms: C_19  and  O_20
REMARK    4  A    between atoms: O_20  and  C_21
REMARK                            x       y       z     vdW  Elec       q    Type
REMARK                         _______ _______ _______ _____ _____    ______ ____
ROOT
ATOM      1  C   UNL     1      -0.017   1.376   0.010  0.00  0.00    +0.001 A 
ATOM      2  C   UNL     1       1.170   2.086   0.002  0.00  0.00    +0.007 A 
ATOM      3  C   UNL     1       2.382   1.419  -0.013  0.00  0.00    -0.010 A 
ATOM      4  C   UNL     1       2.412   0.039  -0.021  0.00  0.00    +0.018 A 
ATOM      5  C   UNL     1       1.220  -0.682  -0.013  0.00  0.00    +0.021 A 
ATOM      6  C   UNL     1       0.002  -0.004   0.002  0.00  0.00    +0.011 A 
ENDROOT
BRANCH   5   7
ATOM      7  C   UNL     1       1.246  -2.165  -0.022  0.00  0.00    +0.182 A 
ATOM      8  N   UNL     1       2.333  -2.909  -0.031  0.00  0.00    -0.143 NA
ATOM      9  N   UNL     1       1.917  -4.248  -0.037  0.00  0.00    -0.201 N 
ATOM     10  C   UNL     1       2.590  -5.435  -0.046  0.00  0.00    +0.227 A 
ATOM     11  N   UNL     1       2.013  -6.594  -0.050  0.00  0.00    -0.214 NA
ATOM     12  C   UNL     1       0.660  -6.725  -0.045  0.00  0.00    +0.186 A 
ATOM     13  N   UNL     1      -0.175  -7.739  -0.047  0.00  0.00    -0.154 NA
ATOM     14  N   UNL     1      -1.487  -7.251  -0.038  0.00  0.00    -0.282 N 
ATOM     15  C   UNL     1      -1.470  -5.907  -0.030  0.00  0.00    +0.118 A 
ATOM     16  C   UNL     1      -0.160  -5.503  -0.034  0.00  0.00    +0.082 A 
ATOM     17  C   UNL     1       0.548  -4.218  -0.030  0.00  0.00    +0.170 A 
ATOM     18  N   UNL     1       0.169  -2.959  -0.016  0.00  0.00    -0.206 NA
ATOM     19  H   UNL     1      -2.287  -7.799  -0.038  0.00  0.00    +0.188 HD
ENDBRANCH   5   7
BRANCH   3  20
ATOM     20  C   UNL     1       3.671   2.200  -0.022  0.00  0.00    +0.264 C 
BRANCH  20  21
ATOM     21  O   UNL     1       4.091   2.440   1.323  0.00  0.00    -0.487 OA
BRANCH  21  22
ATOM     22  C   UNL     1       5.245   3.137   1.493  0.00  0.00    +0.122 A 
ATOM     23  C   UNL     1       5.955   3.586   0.389  0.00  0.00    +0.046 A 
ATOM     24  C   UNL     1       7.128   4.295   0.564  0.00  0.00    +0.005 A 
ATOM     25  C   UNL     1       7.595   4.557   1.838  0.00  0.00    +0.020 A 
ATOM     26  C   UNL     1       6.889   4.111   2.942  0.00  0.00    +0.044 A 
ATOM     27  C   UNL     1       5.712   3.405   2.771  0.00  0.00    +0.065 A 
ATOM     28 CL   UNL     1       7.479   4.441   4.541  0.00  0.00    -0.083 Cl
ENDBRANCH  21  22
ENDBRANCH  20  21
ENDBRANCH   3  20
TORSDOF 4
