REMARK  Name = ZINC00635857
REMARK  5 active torsions:
REMARK  status: ('A' for Active; 'I' for Inactive)
REMARK    1  A    between atoms: C_1  and  C_2
REMARK    2  A    between atoms: C_5  and  C_8
REMARK    3  A    between atoms: C_19  and  C_21
REMARK    4  A    between atoms: C_25  and  O_27
REMARK    5  A    between atoms: O_27  and  C_28
REMARK                            x       y       z     vdW  Elec       q    Type
REMARK                         _______ _______ _______ _____ _____    ______ ____
ROOT
ATOM      1  C   UNL     1       0.059  -4.275  -0.021  0.00  0.00    +0.159 C 
ATOM      2  C   UNL     1      -1.360  -4.767   0.157  0.00  0.00    +0.027 C 
ATOM      3  C   UNL     1      -1.627  -5.565   1.210  0.00  0.00    +0.083 C 
ATOM      4  C   UNL     1      -3.027  -6.032   1.378  0.00  0.00    +0.042 A 
ATOM      5  C   UNL     1      -3.342  -7.091   2.218  0.00  0.00    +0.013 A 
ATOM      6  C   UNL     1      -4.658  -7.494   2.343  0.00  0.00    +0.001 A 
ATOM      7  C   UNL     1      -5.656  -6.847   1.634  0.00  0.00    +0.004 A 
ATOM      8  C   UNL     1      -5.349  -5.791   0.795  0.00  0.00    +0.046 A 
ATOM      9  C   UNL     1      -4.036  -5.375   0.662  0.00  0.00    +0.131 A 
ATOM     10  O   UNL     1      -3.708  -4.338  -0.149  0.00  0.00    -0.479 OA
ATOM     11  C   UNL     1      -2.443  -4.389  -0.811  0.00  0.00    +0.234 C 
ATOM     12  N   UNL     1      -0.660  -5.930   2.087  0.00  0.00    -0.213 NA
ATOM     13  C   UNL     1       0.594  -5.550   2.006  0.00  0.00    +0.237 C 
ATOM     14  N   UNL     1       1.024  -4.727   0.989  0.00  0.00    -0.208 N 
ATOM     15  N   UNL     1       2.388  -4.515   1.199  0.00  0.00    -0.251 N 
ATOM     16  C   UNL     1       2.719  -5.213   2.320  0.00  0.00    +0.203 C 
ATOM     17  N   UNL     1       1.669  -5.816   2.781  0.00  0.00    -0.205 NA
ATOM     18  H   UNL     1       2.983  -3.977   0.653  0.00  0.00    +0.171 HD
ENDROOT
BRANCH   1  23
ATOM     19  C   UNL     1      -0.018   1.503   0.010  0.00  0.00    +0.044 C 
ATOM     20  C   UNL     1       0.002  -0.004   0.002  0.00  0.00    -0.050 A 
ATOM     21  C   UNL     1       0.006  -0.689  -1.199  0.00  0.00    +0.004 A 
ATOM     22  C   UNL     1       0.025  -2.071  -1.206  0.00  0.00    +0.006 A 
ATOM     23  C   UNL     1       0.040  -2.768  -0.013  0.00  0.00    -0.021 A 
ATOM     24  C   UNL     1       0.037  -2.084   1.188  0.00  0.00    +0.006 A 
ATOM     25  C   UNL     1       0.023  -0.702   1.195  0.00  0.00    +0.004 A 
ENDBRANCH   1  23
BRANCH  11  26
ATOM     26  C   UNL     1      -2.501  -5.411  -1.917  0.00  0.00    +0.000 A 
ATOM     27  C   UNL     1      -3.240  -6.568  -1.751  0.00  0.00    +0.008 A 
ATOM     28  C   UNL     1      -3.296  -7.507  -2.764  0.00  0.00    +0.004 A 
ATOM     29  C   UNL     1      -2.612  -7.292  -3.945  0.00  0.00    +0.045 A 
ATOM     30  C   UNL     1      -1.870  -6.132  -4.114  0.00  0.00    +0.120 A 
ATOM     31  C   UNL     1      -1.821  -5.189  -3.099  0.00  0.00    +0.053 A 
BRANCH  30  32
ATOM     32  O   UNL     1      -1.196  -5.919  -5.275  0.00  0.00    -0.495 OA
ATOM     33  C   UNL     1      -1.297  -6.930  -6.279  0.00  0.00    +0.277 C 
ENDBRANCH  30  32
ENDBRANCH  11  26
TORSDOF 3
