REMARK  Name = ZINC11814428
REMARK  12 active torsions:
REMARK  status: ('A' for Active; 'I' for Inactive)
REMARK    1  A    between atoms: C_1  and  C_2
REMARK    2  A    between atoms: C_2  and  C_3
REMARK    3  A    between atoms: C_3  and  N_64
REMARK    4  A    between atoms: C_9  and  C_13
REMARK    5  A    between atoms: C_13  and  C_15
REMARK    6  A    between atoms: C_13  and  N_19
REMARK    7  A    between atoms: C_15  and  C_16
REMARK    8  A    between atoms: C_16  and  C_17
REMARK    9  A    between atoms: C_16  and  C_18
REMARK   10  A    between atoms: C_20  and  C_22
REMARK   11  A    between atoms: C_24  and  C_29
REMARK   12  A    between atoms: C_26  and  C_28
REMARK                            x       y       z     vdW  Elec       q    Type
REMARK                         _______ _______ _______ _____ _____    ______ ____
ROOT
ATOM      1  C   UNL     1      -0.143   0.990   2.346  0.00  0.00    +0.142 C 
ENDROOT
BRANCH   1   7
ATOM      2  C   UNL     1      -3.296  -1.169   6.212  0.00  0.00    -0.071 C 
ATOM      3  C   UNL     1      -3.690   0.267   5.851  0.00  0.00    +0.058 C 
ATOM      4  C   UNL     1      -2.583   0.885   5.037  0.00  0.00    +0.132 A 
ATOM      5  N   UNL     1      -2.057   2.066   5.177  0.00  0.00    -0.134 NA
ATOM      6  N   UNL     1      -1.153   2.244   4.276  0.00  0.00    -0.132 NA
ATOM      7  C   UNL     1      -1.069   1.182   3.520  0.00  0.00    +0.154 A 
ATOM      8  N   UNL     1      -1.962   0.286   3.991  0.00  0.00    -0.315 N 
ATOM      9  C   UNL     1      -2.214  -1.069   3.502  0.00  0.00    +0.106 C 
ATOM     10  C   UNL     1      -3.660  -1.459   3.823  0.00  0.00    -0.057 C 
ATOM     11  N   UNL     1      -3.708  -2.114   5.150  0.00  0.00    +0.381 N 
ATOM     12  H   UNL     1      -3.062  -2.911   5.148  0.00  0.00    -0.082 HD
BRANCH  11  13
ATOM     13  C   UNL     1      -5.072  -2.605   5.420  0.00  0.00    -0.079 C 
BRANCH  13  15
ATOM     14  C   UNL     1      -6.435  -4.036   6.948  0.00  0.00    +0.002 C 
ATOM     15  C   UNL     1      -5.034  -3.490   6.667  0.00  0.00    -0.022 C 
ENDBRANCH  13  15
ENDBRANCH  11  13
ENDBRANCH   1   7
BRANCH   1  16
ATOM     16  N   UNL     1       1.228   1.312   2.747  0.00  0.00    -0.301 N 
ATOM     17  C   UNL     1       2.269   0.778   2.078  0.00  0.00    +0.245 C 
ATOM     18  O   UNL     1       2.072   0.101   1.088  0.00  0.00    -0.270 OA
ATOM     19  H   UNL     1       1.387   1.909   3.495  0.00  0.00    +0.150 HD
BRANCH  17  20
ATOM     20  C   UNL     1       3.651   1.016   2.548  0.00  0.00    +0.037 A 
ATOM     21  C   UNL     1       3.881   1.798   3.681  0.00  0.00    +0.016 A 
ATOM     22  C   UNL     1       5.172   2.012   4.117  0.00  0.00    -0.049 A 
ATOM     23  C   UNL     1       6.238   1.462   3.428  0.00  0.00    +0.006 A 
ATOM     24  C   UNL     1       6.017   0.691   2.300  0.00  0.00    -0.049 A 
ATOM     25  C   UNL     1       4.731   0.465   1.857  0.00  0.00    +0.016 A 
ATOM     26  C   UNL     1       7.185   0.096   1.556  0.00  0.00    +0.044 C 
ATOM     27  C   UNL     1       5.422   2.850   5.344  0.00  0.00    +0.044 C 
ENDBRANCH  17  20
ENDBRANCH   1  16
BRANCH   1  28
ATOM     28  C   UNL     1      -0.571   1.914   1.204  0.00  0.00    +0.033 C 
BRANCH  28  29
ATOM     29  C   UNL     1      -1.949   1.490   0.693  0.00  0.00    -0.015 C 
ATOM     30  C   UNL     1      -1.850   0.107   0.045  0.00  0.00    +0.007 C 
ATOM     31  C   UNL     1      -2.443   2.503  -0.342  0.00  0.00    +0.007 C 
ENDBRANCH  28  29
ENDBRANCH   1  28
TORSDOF 7
