REMARK  Name = ZINC13495876
REMARK  13 active torsions:
REMARK  status: ('A' for Active; 'I' for Inactive)
REMARK    1  A    between atoms: C_1  and  C_2
REMARK    2  A    between atoms: C_2  and  C_3
REMARK    3  A    between atoms: C_3  and  C_5
REMARK    4  A    between atoms: C_3  and  N_72
REMARK    5  A    between atoms: N_9  and  C_10
REMARK    6  A    between atoms: C_10  and  C_11
REMARK    7  A    between atoms: C_17  and  C_18
REMARK    8  A    between atoms: C_17  and  N_72
REMARK    9  A    between atoms: C_18  and  C_19
REMARK   10  A    between atoms: C_24  and  C_25
REMARK   11  A    between atoms: C_26  and  C_27
REMARK   12  A    between atoms: C_26  and  N_72
REMARK   13  A    between atoms: C_33  and  C_39
REMARK                            x       y       z     vdW  Elec       q    Type
REMARK                         _______ _______ _______ _____ _____    ______ ____
ROOT
ATOM      1  N   UNL     1       5.765   2.051  -2.027  0.00  0.00    +0.389 N 
ATOM      2  H   UNL     1       6.493   2.651  -1.621  0.00  0.00    -0.080 HD
ENDROOT
BRANCH   1   3
ATOM      3  C   UNL     1       4.497   2.275  -1.301  0.00  0.00    +0.003 C 
BRANCH   3   4
ATOM      4  C   UNL     1       3.438   1.315  -1.779  0.00  0.00    +0.138 A 
ATOM      5  N   UNL     1       3.561   0.017  -1.911  0.00  0.00    -0.115 NA
ATOM      6  N   UNL     1       2.441  -0.446  -2.349  0.00  0.00    -0.023 NA
ATOM      7  N   UNL     1       1.606   0.522  -2.494  0.00  0.00    -0.044 NA
ATOM      8  N   UNL     1       2.182   1.624  -2.150  0.00  0.00    -0.226 N 
BRANCH   8   9
ATOM      9  C   UNL     1       1.583   2.961  -2.165  0.00  0.00    +0.182 C 
BRANCH   9  10
ATOM     10  C   UNL     1       0.932   3.236  -0.834  0.00  0.00    -0.026 A 
ATOM     11  C   UNL     1       1.660   3.826   0.182  0.00  0.00    +0.005 A 
ATOM     12  C   UNL     1       1.063   4.078   1.403  0.00  0.00    +0.000 A 
ATOM     13  C   UNL     1      -0.260   3.735   1.610  0.00  0.00    +0.000 A 
ATOM     14  C   UNL     1      -0.989   3.149   0.591  0.00  0.00    +0.000 A 
ATOM     15  C   UNL     1      -0.392   2.898  -0.630  0.00  0.00    +0.005 A 
ENDBRANCH   9  10
ENDBRANCH   8   9
ENDBRANCH   3   4
BRANCH   3  17
ATOM     16  C   UNL     1       5.710   3.128   0.710  0.00  0.00    +0.002 C 
ATOM     17  C   UNL     1       4.740   2.063   0.195  0.00  0.00    -0.011 C 
ENDBRANCH   3  17
ENDBRANCH   1   3
BRANCH   1  18
ATOM     18  C   UNL     1       5.598   2.399  -3.454  0.00  0.00    -0.073 C 
BRANCH  18  19
ATOM     19  C   UNL     1       5.469   3.918  -3.579  0.00  0.00    +0.017 C 
BRANCH  19  20
ATOM     20  C   UNL     1       5.469   4.304  -5.036  0.00  0.00    -0.046 A 
ATOM     21  C   UNL     1       6.640   4.724  -5.639  0.00  0.00    +0.004 A 
ATOM     22  C   UNL     1       6.641   5.073  -6.977  0.00  0.00    +0.000 A 
ATOM     23  C   UNL     1       5.470   5.013  -7.708  0.00  0.00    +0.000 A 
ATOM     24  C   UNL     1       4.298   4.598  -7.104  0.00  0.00    +0.003 A 
ATOM     25  C   UNL     1       4.298   4.243  -5.767  0.00  0.00    -0.047 A 
ATOM     26  C   UNL     1       3.021   3.791  -5.108  0.00  0.00    +0.044 C 
ENDBRANCH  19  20
ENDBRANCH  18  19
ENDBRANCH   1  18
BRANCH   1  27
ATOM     27  C   UNL     1       6.180   0.639  -1.896  0.00  0.00    -0.037 C 
BRANCH  27  28
ATOM     28  C   UNL     1       7.614   0.512  -2.340  0.00  0.00    +0.001 A 
ATOM     29  C   UNL     1       8.614   0.593  -1.428  0.00  0.00    +0.017 A 
ATOM     30  C   UNL     1       9.996   0.461  -1.891  0.00  0.00    -0.001 A 
ATOM     31  C   UNL     1      11.069   0.530  -0.996  0.00  0.00    +0.010 A 
ATOM     32  C   UNL     1      12.348   0.408  -1.461  0.00  0.00    +0.001 A 
ATOM     33  C   UNL     1      12.592   0.216  -2.814  0.00  0.00    +0.005 A 
ATOM     34  C   UNL     1      11.551   0.145  -3.714  0.00  0.00    -0.026 A 
ATOM     35  C   UNL     1      10.241   0.266  -3.263  0.00  0.00    +0.052 A 
ATOM     36  N   UNL     1       9.180   0.199  -4.141  0.00  0.00    -0.322 N 
ATOM     37  H   UNL     1       9.350   0.065  -5.087  0.00  0.00    +0.169 HD
ATOM     38  C   UNL     1       7.913   0.315  -3.706  0.00  0.00    +0.251 A 
ATOM     39  O   UNL     1       7.000   0.250  -4.510  0.00  0.00    -0.268 OA
ATOM     40  C   UNL     1      11.831  -0.063  -5.180  0.00  0.00    +0.046 C 
ENDBRANCH  27  28
ENDBRANCH   1  27
TORSDOF 10
