REMARK  Name = ZINC43287129
REMARK  12 active torsions:
REMARK  status: ('A' for Active; 'I' for Inactive)
REMARK    1  A    between atoms: C_1  and  C_2
REMARK    2  A    between atoms: C_2  and  C_3
REMARK    3  A    between atoms: C_3  and  N_4
REMARK    4  A    between atoms: N_4  and  C_5
REMARK    5  A    between atoms: N_4  and  C_10
REMARK    6  A    between atoms: C_5  and  C_6
REMARK    7  A    between atoms: N_8  and  C_9
REMARK    8  A    between atoms: C_10  and  C_12
REMARK    9  A    between atoms: C_10  and  C_18
REMARK   10  A    between atoms: C_18  and  C_20
REMARK   11  A    between atoms: C_18  and  N_22
REMARK   12  A    between atoms: C_20  and  C_21
REMARK                            x       y       z     vdW  Elec       q    Type
REMARK                         _______ _______ _______ _____ _____    ______ ____
ROOT
ATOM      1  C   UNL     1      -0.754  -2.390   1.372  0.00  0.00    -0.045 C 
ENDROOT
BRANCH   1   2
ATOM      2  C   UNL     1       0.551  -1.670   1.596  0.00  0.00    -0.024 A 
ATOM      3  C   UNL     1       1.000  -1.044   2.711  0.00  0.00    +0.024 A 
ATOM      4  C   UNL     1       2.245  -0.444   2.688  0.00  0.00    +0.025 A 
ATOM      5  C   UNL     1       2.980  -0.499   1.550  0.00  0.00    +0.060 A 
ATOM      6  S   UNL     1       1.910  -1.428   0.464  0.00  0.00    -0.102 S 
ATOM      7 BR   UNL     1       2.913   0.442   4.220  0.00  0.00    -0.050 Br
ENDBRANCH   1   2
BRANCH   1   8
ATOM      8  N   UNL     1      -1.248  -2.099   0.019  0.00  0.00    +0.389 N 
ATOM      9  H   UNL     1      -0.583  -2.436  -0.661  0.00  0.00    -0.080 HD
BRANCH   8  10
ATOM     10  C   UNL     1      -1.417  -0.648  -0.138  0.00  0.00    -0.078 C 
BRANCH  10  12
ATOM     11  C   UNL     1      -2.550   1.383   0.774  0.00  0.00    +0.002 C 
ATOM     12  C   UNL     1      -2.423  -0.137   0.895  0.00  0.00    -0.022 C 
ENDBRANCH  10  12
ENDBRANCH   8  10
BRANCH   8  13
ATOM     13  C   UNL     1      -2.539  -2.768  -0.185  0.00  0.00    +0.019 C 
BRANCH  13  14
ATOM     14  C   UNL     1      -2.987  -2.571  -1.610  0.00  0.00    +0.196 C 
ATOM     15  O   UNL     1      -2.298  -1.936  -2.380  0.00  0.00    -0.278 OA
ATOM     16  N   UNL     1      -4.153  -3.101  -2.030  0.00  0.00    -0.320 N 
ATOM     17  C   UNL     1      -4.589  -2.910  -3.415  0.00  0.00    +0.128 C 
ATOM     18  H   UNL     1      -4.705  -3.608  -1.414  0.00  0.00    +0.148 HD
ENDBRANCH  13  14
ENDBRANCH   8  13
ENDBRANCH   1   8
BRANCH   1  19
ATOM     19  C   UNL     1      -0.537  -3.897   1.522  0.00  0.00    -0.085 C 
BRANCH  19  20
ATOM     20  N   UNL     1       0.069  -4.177   2.831  0.00  0.00    +0.379 N 
ATOM     21  H   UNL     1      -0.545  -3.850   3.562  0.00  0.00    -0.090 HD
ATOM     22  H   UNL     1       0.211  -5.171   2.930  0.00  0.00    -0.090 HD
ATOM     23  H   UNL     1       0.956  -3.701   2.899  0.00  0.00    -0.090 HD
ENDBRANCH  19  20
BRANCH  19  24
ATOM     24  C   UNL     1       0.394  -4.392   0.413  0.00  0.00    -0.021 C 
ATOM     25  C   UNL     1       0.511  -5.915   0.488  0.00  0.00    +0.002 C 
ENDBRANCH  19  24
ENDBRANCH   1  19
TORSDOF 9
