REMARK  Name = ZINC54643358
REMARK  7 active torsions:
REMARK  status: ('A' for Active; 'I' for Inactive)
REMARK    1  A    between atoms: C_1  and  C_2
REMARK    2  A    between atoms: C_3  and  C_31
REMARK    3  A    between atoms: C_4  and  C_21
REMARK    4  A    between atoms: C_9  and  S_11
REMARK    5  A    between atoms: S_11  and  C_12
REMARK    6  A    between atoms: C_12  and  C_13
REMARK    7  A    between atoms: N_33  and  C_34
REMARK                            x       y       z     vdW  Elec       q    Type
REMARK                         _______ _______ _______ _____ _____    ______ ____
ROOT
ATOM      1  C   UNL     1      -0.060   1.509  -0.514  0.00  0.00    +0.061 C 
ATOM      2  C   UNL     1      -0.017   0.014  -0.332  0.00  0.00    +0.018 C 
ATOM      3  C   UNL     1      -1.168  -0.652  -0.159  0.00  0.00    +0.060 C 
ATOM      4  C   UNL     1      -1.233  -2.142   0.042  0.00  0.00    +0.179 C 
ATOM      5  N   UNL     1       0.066  -2.732  -0.271  0.00  0.00    -0.220 N 
ATOM      6  C   UNL     1       1.197  -2.006  -0.446  0.00  0.00    +0.219 A 
ATOM      7  N   UNL     1       2.174  -2.833  -0.704  0.00  0.00    -0.187 NA
ATOM      8  C   UNL     1       1.708  -4.090  -0.708  0.00  0.00    +0.211 A 
ATOM      9  N   UNL     1       0.418  -4.070  -0.448  0.00  0.00    -0.141 NA
ATOM     10  N   UNL     1       1.200  -0.622  -0.354  0.00  0.00    -0.287 N 
ATOM     11  H   UNL     1       2.031  -0.123  -0.305  0.00  0.00    +0.155 HD
ENDROOT
BRANCH   4  12
ATOM     12  C   UNL     1      -1.587  -2.441   1.476  0.00  0.00    +0.007 A 
ATOM     13  C   UNL     1      -0.891  -2.074   2.564  0.00  0.00    +0.089 A 
ATOM     14  N   UNL     1      -1.519  -2.523   3.693  0.00  0.00    -0.360 N 
ATOM     15  H   UNL     1      -1.204  -2.381   4.600  0.00  0.00    +0.165 HD
ATOM     16  C   UNL     1      -2.664  -3.207   3.352  0.00  0.00    +0.047 A 
ATOM     17  C   UNL     1      -2.761  -3.180   1.948  0.00  0.00    +0.005 A 
ATOM     18  C   UNL     1      -3.839  -3.797   1.312  0.00  0.00    +0.010 A 
ATOM     19  C   UNL     1      -4.799  -4.423   2.057  0.00  0.00    +0.001 A 
ATOM     20  C   UNL     1      -4.710  -4.449   3.442  0.00  0.00    +0.002 A 
ATOM     21  C   UNL     1      -3.650  -3.854   4.090  0.00  0.00    +0.026 A 
ENDBRANCH   4  12
BRANCH   3  22
ATOM     22  C   UNL     1      -2.378   0.081  -0.166  0.00  0.00    +0.248 C 
ATOM     23  O   UNL     1      -2.358   1.288  -0.326  0.00  0.00    -0.270 OA
ATOM     24  N   UNL     1      -3.553  -0.557   0.005  0.00  0.00    -0.282 N 
ATOM     25  H   UNL     1      -3.576  -1.525   0.056  0.00  0.00    +0.155 HD
BRANCH  24  26
ATOM     26  C   UNL     1      -4.739   0.177   0.110  0.00  0.00    +0.034 A 
ATOM     27  C   UNL     1      -5.927  -0.345  -0.385  0.00  0.00    +0.023 A 
ATOM     28  C   UNL     1      -7.096   0.383  -0.280  0.00  0.00    +0.002 A 
ATOM     29  C   UNL     1      -7.084   1.631   0.316  0.00  0.00    +0.000 A 
ATOM     30  C   UNL     1      -5.903   2.154   0.809  0.00  0.00    +0.002 A 
ATOM     31  C   UNL     1      -4.731   1.429   0.713  0.00  0.00    +0.023 A 
ENDBRANCH  24  26
ENDBRANCH   3  22
BRANCH   8  32
ATOM     32  S   UNL     1       2.667  -5.536  -1.012  0.00  0.00    -0.080 S 
BRANCH  32  33
ATOM     33  C   UNL     1       4.341  -4.900  -1.298  0.00  0.00    +0.115 C 
BRANCH  33  34
ATOM     34  C   UNL     1       5.276  -6.050  -1.575  0.00  0.00    -0.002 A 
ATOM     35  C   UNL     1       5.934  -6.672  -0.531  0.00  0.00    +0.007 A 
ATOM     36  C   UNL     1       6.791  -7.727  -0.784  0.00  0.00    +0.000 A 
ATOM     37  C   UNL     1       6.990  -8.161  -2.082  0.00  0.00    +0.003 A 
ATOM     38  C   UNL     1       6.332  -7.541  -3.127  0.00  0.00    +0.038 A 
ATOM     39  C   UNL     1       5.470  -6.487  -2.874  0.00  0.00    +0.127 A 
ATOM     40  F   UNL     1       4.823  -5.883  -3.894  0.00  0.00    -0.205 F 
ENDBRANCH  33  34
ENDBRANCH  32  33
ENDBRANCH   8  32
TORSDOF 6
