REMARK  Name = ZINC61823987
REMARK  3 active torsions:
REMARK  status: ('A' for Active; 'I' for Inactive)
REMARK    1  A    between atoms: C_1  and  C_2
REMARK    2  A    between atoms: C_3  and  S_8
REMARK    3  A    between atoms: S_8  and  N_11
REMARK                            x       y       z     vdW  Elec       q    Type
REMARK                         _______ _______ _______ _____ _____    ______ ____
ROOT
ATOM      1  N   UNL     1      -1.454   0.520  -3.020  0.00  0.00    -0.176 NA
ATOM      2  C   UNL     1      -2.630  -0.230  -3.481  0.00  0.00    +0.110 C 
ATOM      3  C   UNL     1      -3.188   0.450  -4.736  0.00  0.00    +0.024 C 
ATOM      4  C   UNL     1      -3.462   1.925  -4.434  0.00  0.00    -0.027 C 
ATOM      5  C   UNL     1      -4.049   2.598  -5.676  0.00  0.00    +0.007 C 
ATOM      6  C   UNL     1      -5.356   1.905  -6.063  0.00  0.00    +0.001 C 
ATOM      7  C   UNL     1      -6.352   2.013  -4.906  0.00  0.00    +0.000 C 
ATOM      8  C   UNL     1      -5.766   1.338  -3.664  0.00  0.00    +0.001 C 
ATOM      9  C   UNL     1      -4.458   2.031  -3.277  0.00  0.00    +0.007 C 
ATOM     10  C   UNL     1      -2.155   2.620  -4.047  0.00  0.00    +0.024 C 
ATOM     11  C   UNL     1      -1.588   1.963  -2.778  0.00  0.00    +0.110 C 
ENDROOT
BRANCH   1  12
ATOM     12  S   UNL     1      -0.008  -0.247  -2.770  0.00  0.00    +0.064 S 
ATOM     13  O   UNL     1       1.003   0.745  -2.881  0.00  0.00    -0.153 OA
ATOM     14  O   UNL     1      -0.023  -1.415  -3.579  0.00  0.00    -0.153 OA
BRANCH  12  17
ATOM     15  C   UNL     1      -0.018   1.503   0.010  0.00  0.00    +0.067 C 
ATOM     16  C   UNL     1       0.002  -0.004   0.002  0.00  0.00    +0.059 A 
ATOM     17  C   UNL     1       0.008  -0.796  -1.095  0.00  0.00    +0.145 A 
ATOM     18  C   UNL     1       0.028  -2.127  -0.666  0.00  0.00    +0.163 A 
ATOM     19  N   UNL     1       0.035  -2.134   0.643  0.00  0.00    -0.180 NA
ATOM     20  N   UNL     1       0.024  -0.805   1.088  0.00  0.00    -0.280 N 
ATOM     21  H   UNL     1       0.029  -0.513   2.013  0.00  0.00    +0.189 HD
ENDBRANCH  12  17
ENDBRANCH   1  12
TORSDOF 2
