REMARK  Name = ZINC13552488
REMARK  4 active torsions:
REMARK  status: ('A' for Active; 'I' for Inactive)
REMARK    1  A    between atoms: C_1  and  C_2
REMARK    2  A    between atoms: C_2  and  C_30
REMARK    3  A    between atoms: C_3  and  C_17
REMARK    4  A    between atoms: C_17  and  N_19
REMARK                            x       y       z     vdW  Elec       q    Type
REMARK                         _______ _______ _______ _____ _____    ______ ____
ROOT
ATOM      1  C   UNL     1      -0.002   1.522   0.009  0.00  0.00    +0.025 C 
ATOM      2  C   UNL     1       0.023  -0.008  -0.003  0.00  0.00    +0.040 C 
ATOM      3  C   UNL     1       0.867  -0.539  -1.186  0.00  0.00    +0.181 C 
ATOM      4  N   UNL     1       2.124  -1.164  -0.770  0.00  0.00    -0.269 N 
ATOM      5  C   UNL     1       1.960  -1.904   0.516  0.00  0.00    +0.167 C 
ATOM      6  S   UNL     1       0.960  -0.665   1.445  0.00  0.00    -0.125 S 
ATOM      7  C   UNL     1       3.342  -2.025   1.090  0.00  0.00    -0.005 A 
ATOM      8  C   UNL     1       3.832  -2.372   2.328  0.00  0.00    +0.007 A 
ATOM      9  C   UNL     1       5.198  -2.409   2.547  0.00  0.00    +0.000 A 
ATOM     10  C   UNL     1       6.076  -2.098   1.524  0.00  0.00    +0.001 A 
ATOM     11  C   UNL     1       5.597  -1.739   0.281  0.00  0.00    +0.013 A 
ATOM     12  C   UNL     1       4.221  -1.692   0.054  0.00  0.00    +0.043 A 
ATOM     13  C   UNL     1       3.422  -1.300  -1.117  0.00  0.00    +0.249 C 
ATOM     14  O   UNL     1       3.866  -1.143  -2.237  0.00  0.00    -0.270 OA
ATOM     15  C   UNL     1      -1.397  -0.577  -0.042  0.00  0.00    +0.025 C 
ENDROOT
BRANCH   3  16
ATOM     16  C   UNL     1       0.052  -1.556  -1.942  0.00  0.00    +0.260 C 
ATOM     17  O   UNL     1       0.239  -2.744  -1.757  0.00  0.00    -0.272 OA
BRANCH  16  18
ATOM     18  N   UNL     1      -0.870  -1.156  -2.811  0.00  0.00    -0.155 NA
ATOM     19  C   UNL     1      -1.516  -2.051  -3.555  0.00  0.00    +0.164 A 
ATOM     20  N   UNL     1      -1.442  -3.404  -3.481  0.00  0.00    -0.335 N 
ATOM     21  H   UNL     1      -0.864  -3.825  -2.825  0.00  0.00    +0.168 HD
ATOM     22  C   UNL     1      -2.193  -4.182  -4.342  0.00  0.00    +0.055 A 
ATOM     23  C   UNL     1      -2.267  -5.579  -4.437  0.00  0.00    +0.027 A 
ATOM     24  C   UNL     1      -3.082  -6.175  -5.372  0.00  0.00    +0.002 A 
ATOM     25  C   UNL     1      -3.849  -5.418  -6.241  0.00  0.00    +0.001 A 
ATOM     26  C   UNL     1      -3.794  -4.037  -6.168  0.00  0.00    +0.017 A 
ATOM     27  C   UNL     1      -2.980  -3.440  -5.234  0.00  0.00    +0.039 A 
ATOM     28  S   UNL     1      -2.614  -1.761  -4.794  0.00  0.00    -0.052 S 
ENDBRANCH  16  18
ENDBRANCH   3  16
TORSDOF 2
