REMARK  Name = ZINC08636021
REMARK  10 active torsions:
REMARK  status: ('A' for Active; 'I' for Inactive)
REMARK    1  A    between atoms: C_1  and  O_2
REMARK    2  A    between atoms: O_2  and  C_3
REMARK    3  A    between atoms: C_3  and  C_4
REMARK    4  A    between atoms: C_4  and  N_64
REMARK    5  A    between atoms: C_5  and  N_64
REMARK    6  A    between atoms: C_8  and  C_30
REMARK    7  A    between atoms: C_10  and  C_26
REMARK    8  A    between atoms: C_26  and  O_28
REMARK    9  A    between atoms: O_28  and  C_29
REMARK   10  A    between atoms: C_33  and  C_36
REMARK                            x       y       z     vdW  Elec       q    Type
REMARK                         _______ _______ _______ _____ _____    ______ ____
ROOT
ATOM      1  C   UNL     1       0.877   2.327  -0.142  0.00  0.00    -0.074 C 
ATOM      2  C   UNL     1       0.520   0.843  -0.260  0.00  0.00    -0.027 C 
ATOM      3  C   UNL     1       1.021   0.097   0.980  0.00  0.00    -0.037 C 
ATOM      4  C   UNL     1       3.039  -0.573   2.155  0.00  0.00    +0.049 C 
ATOM      5  C   UNL     1       4.561  -0.665   1.979  0.00  0.00    +0.033 C 
ATOM      6  C   UNL     1       5.096   0.730   1.776  0.00  0.00    -0.022 A 
ATOM      7  C   UNL     1       6.456   1.212   1.870  0.00  0.00    +0.003 A 
ATOM      8  C   UNL     1       7.670   0.583   2.166  0.00  0.00    +0.010 A 
ATOM      9  C   UNL     1       8.794   1.371   2.167  0.00  0.00    +0.001 A 
ATOM     10  C   UNL     1       8.742   2.728   1.890  0.00  0.00    +0.002 A 
ATOM     11  C   UNL     1       7.556   3.376   1.594  0.00  0.00    +0.026 A 
ATOM     12  C   UNL     1       6.398   2.602   1.585  0.00  0.00    +0.047 A 
ATOM     13  N   UNL     1       5.091   2.913   1.340  0.00  0.00    -0.359 N 
ATOM     14  H   UNL     1       4.761   3.797   1.116  0.00  0.00    +0.166 HD
ATOM     15  C   UNL     1       4.318   1.791   1.458  0.00  0.00    +0.007 A 
ATOM     16  C   UNL     1       2.824   1.683   1.276  0.00  0.00    -0.020 C 
ATOM     17  C   UNL     1       2.392   2.472   0.038  0.00  0.00    -0.025 C 
ATOM     18  N   UNL     1       2.488   0.260   1.059  0.00  0.00    +0.399 N 
ATOM     19  H   UNL     1       2.903  -0.047   0.171  0.00  0.00    -0.079 HD
ENDROOT
BRANCH   3  20
ATOM     20  C   UNL     1       0.695  -1.369   0.851  0.00  0.00    -0.061 A 
ATOM     21  C   UNL     1       1.491  -2.188   0.072  0.00  0.00    +0.002 A 
ATOM     22  C   UNL     1       1.194  -3.533  -0.043  0.00  0.00    +0.012 A 
ATOM     23  C   UNL     1       0.096  -4.058   0.613  0.00  0.00    +0.055 A 
ATOM     24  C   UNL     1      -0.703  -3.237   1.387  0.00  0.00    +0.012 A 
ATOM     25  C   UNL     1      -0.404  -1.893   1.506  0.00  0.00    +0.002 A 
BRANCH  23  26
ATOM     26  C   UNL     1      -0.231  -5.523   0.483  0.00  0.00    +0.417 C 
ATOM     27  F   UNL     1      -1.084  -5.716  -0.609  0.00  0.00    -0.166 F 
ATOM     28  F   UNL     1       0.950  -6.248   0.287  0.00  0.00    -0.166 F 
ATOM     29  F   UNL     1      -0.861  -5.965   1.651  0.00  0.00    -0.166 F 
ENDBRANCH  23  26
ENDBRANCH   3  20
BRANCH   1  30
ATOM     30  N   UNL     1       0.193   2.907   1.029  0.00  0.00    +0.382 N 
ATOM     31  H   UNL     1       0.144   2.204   1.776  0.00  0.00    -0.085 HD
ATOM     32  H   UNL     1       0.721   3.723   1.360  0.00  0.00    -0.085 HD
BRANCH  30  33
ATOM     33  C   UNL     1      -1.174   3.327   0.666  0.00  0.00    -0.054 C 
BRANCH  33  34
ATOM     34  C   UNL     1      -1.859   3.924   1.897  0.00  0.00    +0.140 C 
BRANCH  34  36
ATOM     35  C   UNL     1      -1.744   5.761   3.433  0.00  0.00    +0.193 C 
ATOM     36  O   UNL     1      -1.181   5.121   2.286  0.00  0.00    -0.385 OA
ENDBRANCH  34  36
ENDBRANCH  33  34
ENDBRANCH  30  33
ENDBRANCH   1  30
BRANCH   4  37
ATOM     37  C   UNL     1       2.725   0.035   3.498  0.00  0.00    +0.294 C 
ATOM     38  O   UNL     1       1.929   0.940   3.580  0.00  0.00    -0.253 OA
BRANCH  37  39
ATOM     39  O   UNL     1       3.329  -0.430   4.603  0.00  0.00    -0.469 OA
ATOM     40  C   UNL     1       2.978   0.203   5.862  0.00  0.00    +0.280 C 
ENDBRANCH  37  39
ENDBRANCH   4  37
TORSDOF 8
