REMARK  Name = ZINC13129972
REMARK  9 active torsions:
REMARK  status: ('A' for Active; 'I' for Inactive)
REMARK    1  A    between atoms: C_1  and  N_2
REMARK    2  A    between atoms: C_5  and  C_6
REMARK    3  A    between atoms: C_10  and  O_12
REMARK    4  A    between atoms: O_12  and  C_13
REMARK    5  A    between atoms: C_17  and  C_25
REMARK    6  A    between atoms: C_19  and  C_23
REMARK    7  A    between atoms: C_20  and  N_22
REMARK    8  A    between atoms: C_29  and  O_31
REMARK    9  A    between atoms: O_31  and  C_32
REMARK                            x       y       z     vdW  Elec       q    Type
REMARK                         _______ _______ _______ _____ _____    ______ ____
ROOT
ATOM      1  C   UNL     1      -0.060   1.213   0.764  0.00  0.00    +0.105 C 
ATOM      2  N   UNL     1      -0.224  -0.246   0.727  0.00  0.00    -0.297 NA
ATOM      3  C   UNL     1      -1.539  -0.616   0.172  0.00  0.00    +0.123 C 
ATOM      4  C   UNL     1      -1.539  -2.122   0.004  0.00  0.00    +0.010 C 
ATOM      5  C   UNL     1      -2.078  -2.702  -1.083  0.00  0.00    +0.016 C 
ATOM      6  C   UNL     1      -0.926  -2.929   1.079  0.00  0.00    +0.136 C 
ATOM      7  C   UNL     1      -0.220  -2.326   2.037  0.00  0.00    -0.001 C 
ATOM      8  C   UNL     1      -0.040  -0.829   2.057  0.00  0.00    +0.120 C 
ATOM      9  C   UNL     1       0.422  -3.137   3.137  0.00  0.00    +0.095 C 
ATOM     10  C   UNL     1      -0.209  -4.498   3.220  0.00  0.00    +0.098 C 
ATOM     11  C   UNL     1      -0.932  -4.990   2.183  0.00  0.00    +0.199 C 
ATOM     12  O   UNL     1      -1.101  -4.273   1.059  0.00  0.00    -0.441 OA
ENDROOT
BRANCH   5  13
ATOM     13  C   UNL     1      -1.857  -4.136  -1.338  0.00  0.00    -0.021 A 
ATOM     14  C   UNL     1      -2.918  -4.946  -1.754  0.00  0.00    +0.008 A 
ATOM     15  C   UNL     1      -2.707  -6.288  -1.992  0.00  0.00    +0.004 A 
ATOM     16  C   UNL     1      -1.449  -6.837  -1.819  0.00  0.00    +0.045 A 
ATOM     17  C   UNL     1      -0.389  -6.040  -1.405  0.00  0.00    +0.121 A 
ATOM     18  C   UNL     1      -0.587  -4.691  -1.169  0.00  0.00    +0.053 A 
BRANCH  17  19
ATOM     19  O   UNL     1       0.844  -6.586  -1.237  0.00  0.00    -0.495 OA
ATOM     20  C   UNL     1       0.978  -7.984  -1.503  0.00  0.00    +0.277 C 
ENDBRANCH  17  19
ENDBRANCH   5  13
BRANCH   9  21
ATOM     21  C   UNL     1       1.893  -3.290   2.850  0.00  0.00    -0.031 A 
ATOM     22  C   UNL     1       2.309  -3.907   1.684  0.00  0.00    +0.005 A 
ATOM     23  C   UNL     1       3.658  -4.049   1.418  0.00  0.00    +0.004 A 
ATOM     24  C   UNL     1       4.595  -3.576   2.317  0.00  0.00    +0.045 A 
ATOM     25  C   UNL     1       4.180  -2.957   3.487  0.00  0.00    +0.120 A 
ATOM     26  C   UNL     1       2.825  -2.810   3.749  0.00  0.00    +0.050 A 
BRANCH  25  27
ATOM     27  O   UNL     1       5.099  -2.490   4.373  0.00  0.00    -0.495 OA
ATOM     28  C   UNL     1       6.476  -2.671   4.035  0.00  0.00    +0.277 C 
ENDBRANCH  25  27
ENDBRANCH   9  21
BRANCH  11  29
ATOM     29  N   UNL     1      -1.498  -6.236   2.284  0.00  0.00    -0.328 N 
ATOM     30  H   UNL     1      -1.453  -6.724   3.121  0.00  0.00    +0.145 HD
ATOM     31  H   UNL     1      -1.944  -6.630   1.517  0.00  0.00    +0.145 HD
ENDBRANCH  11  29
BRANCH  10  32
ATOM     32  C   UNL     1      -0.044  -5.284   4.405  0.00  0.00    +0.101 C 
ATOM     33  N   UNL     1       0.086  -5.908   5.346  0.00  0.00    -0.191 NA
ENDBRANCH  10  32
TORSDOF 6
