REMARK  Name = ZINC40547857
REMARK  9 active torsions:
REMARK  status: ('A' for Active; 'I' for Inactive)
REMARK    1  A    between atoms: C_1  and  C_2
REMARK    2  A    between atoms: C_5  and  O_37
REMARK    3  A    between atoms: C_6  and  C_8
REMARK    4  A    between atoms: N_16  and  C_29
REMARK    5  A    between atoms: C_17  and  C_19
REMARK    6  A    between atoms: C_22  and  O_27
REMARK    7  A    between atoms: C_23  and  O_25
REMARK    8  A    between atoms: O_25  and  C_26
REMARK    9  A    between atoms: O_27  and  C_28
REMARK                            x       y       z     vdW  Elec       q    Type
REMARK                         _______ _______ _______ _____ _____    ______ ____
ROOT
ATOM      1  C   UNL     1       0.051  -2.842   2.468  0.00  0.00    +0.102 A 
ATOM      2  C   UNL     1       0.174  -4.228   2.614  0.00  0.00    +0.035 A 
ATOM      3  C   UNL     1       0.138  -4.468   3.974  0.00  0.00    +0.126 A 
ATOM      4  N   UNL     1      -0.000  -3.247   4.571  0.00  0.00    -0.272 N 
ATOM      5  H   UNL     1      -0.055  -3.098   5.528  0.00  0.00    +0.189 HD
ATOM      6  N   UNL     1      -0.043  -2.325   3.677  0.00  0.00    -0.173 NA
ATOM      7  C   UNL     1       0.263  -5.912   4.196  0.00  0.00    +0.266 C 
ATOM      8  O   UNL     1       0.266  -6.449   5.288  0.00  0.00    -0.268 OA
ATOM      9  N   UNL     1       0.373  -6.559   3.022  0.00  0.00    -0.280 N 
ATOM     10  C   UNL     1       0.327  -5.565   1.942  0.00  0.00    +0.142 C 
ENDROOT
BRANCH   1  16
ATOM     11  C   UNL     1       1.987  -1.969  -2.050  0.00  0.00    +0.044 C 
ATOM     12  C   UNL     1       0.964  -1.667  -0.986  0.00  0.00    -0.050 A 
ATOM     13  C   UNL     1       0.011  -0.688  -1.203  0.00  0.00    +0.007 A 
ATOM     14  C   UNL     1      -0.932  -0.405  -0.233  0.00  0.00    +0.046 A 
ATOM     15  C   UNL     1      -0.925  -1.101   0.965  0.00  0.00    +0.126 A 
ATOM     16  C   UNL     1       0.036  -2.091   1.188  0.00  0.00    +0.044 A 
ATOM     17  C   UNL     1       0.977  -2.373   0.201  0.00  0.00    +0.017 A 
BRANCH  15  18
ATOM     18  O   UNL     1      -1.851  -0.823   1.921  0.00  0.00    -0.506 OA
ATOM     19  H   UNL     1      -2.689  -1.291   1.804  0.00  0.00    +0.292 HD
ENDBRANCH  15  18
ENDBRANCH   1  16
BRANCH   9  20
ATOM     20  C   UNL     1       0.514  -8.007   2.850  0.00  0.00    +0.100 C 
ATOM     21  C   UNL     1       1.784  -8.486   3.573  0.00  0.00    +0.047 C 
ATOM     22  C   UNL     1       1.744 -10.039   3.644  0.00  0.00    +0.168 C 
ATOM     23  S   UNL     1      -0.035 -10.313   4.036  0.00  0.00    -0.029 S 
ATOM     24  O   UNL     1      -0.192 -10.386   5.446  0.00  0.00    -0.174 OA
ATOM     25  O   UNL     1      -0.530 -11.368   3.222  0.00  0.00    -0.174 OA
ATOM     26  C   UNL     1      -0.728  -8.719   3.439  0.00  0.00    +0.188 C 
ENDBRANCH   9  20
BRANCH  10  27
ATOM     27  C   UNL     1      -0.853  -5.831   1.042  0.00  0.00    -0.019 A 
ATOM     28  C   UNL     1      -2.081  -6.151   1.591  0.00  0.00    +0.009 A 
ATOM     29  C   UNL     1      -3.165  -6.396   0.770  0.00  0.00    +0.050 A 
ATOM     30  C   UNL     1      -3.023  -6.322  -0.606  0.00  0.00    +0.162 A 
ATOM     31  C   UNL     1      -1.787  -6.000  -1.159  0.00  0.00    +0.162 A 
ATOM     32  C   UNL     1      -0.705  -5.750  -0.330  0.00  0.00    +0.055 A 
BRANCH  31  33
ATOM     33  O   UNL     1      -1.643  -5.925  -2.509  0.00  0.00    -0.491 OA
ATOM     34  C   UNL     1      -0.345  -5.590  -3.005  0.00  0.00    +0.277 C 
ENDBRANCH  31  33
BRANCH  30  35
ATOM     35  O   UNL     1      -4.089  -6.563  -1.415  0.00  0.00    -0.491 OA
ATOM     36  C   UNL     1      -5.327  -6.888  -0.779  0.00  0.00    +0.277 C 
ENDBRANCH  30  35
ENDBRANCH  10  27
TORSDOF 6
