REMARK  Name = ZINC09635487
REMARK  9 active torsions:
REMARK  status: ('A' for Active; 'I' for Inactive)
REMARK    1  A    between atoms: C_1  and  C_2
REMARK    2  A    between atoms: C_7  and  N_8
REMARK    3  A    between atoms: C_9  and  C_30
REMARK    4  A    between atoms: C_12  and  S_13
REMARK    5  A    between atoms: S_13  and  C_14
REMARK    6  A    between atoms: C_14  and  C_16
REMARK    7  A    between atoms: C_14  and  C_17
REMARK    8  A    between atoms: C_23  and  C_29
REMARK    9  A    between atoms: C_24  and  C_28
REMARK                            x       y       z     vdW  Elec       q    Type
REMARK                         _______ _______ _______ _____ _____    ______ ____
ROOT
ATOM      1  N   UNL     1       1.562   4.950   1.467  0.00  0.00    -0.270 N 
ATOM      2  C   UNL     1       2.915   4.710   1.572  0.00  0.00    +0.169 A 
ATOM      3  N   UNL     1       3.075   3.407   1.576  0.00  0.00    -0.128 NA
ATOM      4  N   UNL     1       1.934   2.823   1.488  0.00  0.00    -0.122 NA
ATOM      5  C   UNL     1       0.972   3.718   1.413  0.00  0.00    +0.197 A 
ENDROOT
BRANCH   1  12
ATOM      6  C   UNL     1       1.155   6.168  -1.073  0.00  0.00    +0.046 C 
ATOM      7  C   UNL     1       0.706   6.826   0.206  0.00  0.00    -0.026 A 
ATOM      8  C   UNL     1       0.072   8.053   0.166  0.00  0.00    +0.005 A 
ATOM      9  C   UNL     1      -0.336   8.659   1.340  0.00  0.00    +0.000 A 
ATOM     10  C   UNL     1      -0.116   8.038   2.555  0.00  0.00    +0.002 A 
ATOM     11  C   UNL     1       0.512   6.809   2.601  0.00  0.00    +0.026 A 
ATOM     12  C   UNL     1       0.923   6.197   1.424  0.00  0.00    +0.053 A 
ENDBRANCH   1  12
BRANCH   2  13
ATOM     13  C   UNL     1       3.983   5.727   1.662  0.00  0.00    +0.022 A 
ATOM     14  C   UNL     1       3.732   7.065   1.332  0.00  0.00    +0.031 A 
ATOM     15  C   UNL     1       4.758   7.981   1.435  0.00  0.00    +0.111 A 
ATOM     16  N   UNL     1       5.962   7.610   1.827  0.00  0.00    -0.263 NA
ATOM     17  C   UNL     1       6.242   6.359   2.142  0.00  0.00    +0.111 A 
ATOM     18  C   UNL     1       5.276   5.378   2.073  0.00  0.00    +0.031 A 
ENDBRANCH   2  13
BRANCH   5  19
ATOM     19  S   UNL     1      -0.753   3.389   1.277  0.00  0.00    -0.075 S 
BRANCH  19  20
ATOM     20  C   UNL     1      -0.729   1.579   1.267  0.00  0.00    +0.117 C 
ATOM     21  C   UNL     1      -0.013   1.086   0.008  0.00  0.00    +0.027 C 
BRANCH  20  22
ATOM     22  C   UNL     1      -2.143   1.058   1.278  0.00  0.00    +0.124 A 
ATOM     23  N   UNL     1      -3.145   1.837   0.796  0.00  0.00    -0.309 N 
ATOM     24  H   UNL     1      -2.937   2.720   0.452  0.00  0.00    +0.170 HD
ATOM     25  C   UNL     1      -4.420   1.408   0.782  0.00  0.00    +0.260 A 
ATOM     26  O   UNL     1      -5.308   2.118   0.342  0.00  0.00    -0.267 OA
ATOM     27  C   UNL     1      -4.720   0.105   1.298  0.00  0.00    +0.075 A 
ATOM     28  C   UNL     1      -5.998  -0.575   1.397  0.00  0.00    -0.026 A 
ATOM     29  C   UNL     1      -6.044  -1.810   1.922  0.00  0.00    -0.008 A 
ATOM     30  S   UNL     1      -4.342  -2.151   2.326  0.00  0.00    -0.073 S 
ATOM     31  C   UNL     1      -3.618  -0.626   1.779  0.00  0.00    +0.116 A 
ATOM     32  N   UNL     1      -2.383  -0.134   1.754  0.00  0.00    -0.225 NA
ATOM     33  C   UNL     1      -7.247  -2.695   2.121  0.00  0.00    +0.052 C 
ATOM     34  C   UNL     1      -7.258   0.098   0.916  0.00  0.00    +0.045 C 
ENDBRANCH  20  22
ENDBRANCH  19  20
ENDBRANCH   5  19
TORSDOF 5
