REMARK  Name = ZINC59238610
REMARK  11 active torsions:
REMARK  status: ('A' for Active; 'I' for Inactive)
REMARK    1  A    between atoms: C_1  and  C_2
REMARK    2  A    between atoms: C_3  and  C_25
REMARK    3  A    between atoms: C_4  and  C_10
REMARK    4  A    between atoms: C_14  and  O_16
REMARK    5  A    between atoms: O_16  and  C_17
REMARK    6  A    between atoms: C_17  and  C_18
REMARK    7  A    between atoms: N_27  and  C_28
REMARK    8  A    between atoms: C_30  and  O_36
REMARK    9  A    between atoms: C_33  and  O_34
REMARK   10  A    between atoms: O_34  and  C_35
REMARK   11  A    between atoms: O_36  and  C_37
REMARK                            x       y       z     vdW  Elec       q    Type
REMARK                         _______ _______ _______ _____ _____    ______ ____
ROOT
ATOM      1  C   UNL     1       0.077   1.141   0.328  0.00  0.00    +0.061 C 
ATOM      2  C   UNL     1       0.024  -0.330   0.008  0.00  0.00    +0.017 C 
ATOM      3  C   UNL     1      -1.171  -0.956  -0.043  0.00  0.00    +0.056 C 
ATOM      4  C   UNL     1      -1.179  -2.436  -0.368  0.00  0.00    +0.139 C 
ATOM      5  N   UNL     1       0.127  -3.075  -0.603  0.00  0.00    -0.315 N 
ATOM      6  C   UNL     1       1.237  -2.315  -0.517  0.00  0.00    +0.135 C 
ATOM      7  S   UNL     1       2.762  -3.044  -0.788  0.00  0.00    -0.019 S 
ATOM      8  N   UNL     1       1.185  -1.008  -0.232  0.00  0.00    -0.300 N 
ATOM      9  H   UNL     1       0.187  -4.019  -0.815  0.00  0.00    +0.149 HD
ATOM     10  H   UNL     1       2.020  -0.516  -0.188  0.00  0.00    +0.154 HD
ENDROOT
BRANCH   4  11
ATOM     11  C   UNL     1      -2.022  -2.636  -1.601  0.00  0.00    -0.019 A 
ATOM     12  C   UNL     1      -1.445  -2.549  -2.854  0.00  0.00    +0.006 A 
ATOM     13  C   UNL     1      -2.216  -2.732  -3.987  0.00  0.00    +0.004 A 
ATOM     14  C   UNL     1      -3.566  -3.003  -3.869  0.00  0.00    +0.045 A 
ATOM     15  C   UNL     1      -4.147  -3.091  -2.613  0.00  0.00    +0.121 A 
ATOM     16  C   UNL     1      -3.370  -2.913  -1.477  0.00  0.00    +0.051 A 
BRANCH  15  17
ATOM     17  O   UNL     1      -5.474  -3.358  -2.494  0.00  0.00    -0.487 OA
BRANCH  17  18
ATOM     18  C   UNL     1      -6.211  -3.536  -3.705  0.00  0.00    +0.264 C 
BRANCH  18  19
ATOM     19  C   UNL     1      -7.654  -3.821  -3.378  0.00  0.00    -0.010 A 
ATOM     20  C   UNL     1      -8.077  -5.124  -3.196  0.00  0.00    +0.010 A 
ATOM     21  C   UNL     1      -9.400  -5.387  -2.895  0.00  0.00    +0.039 A 
ATOM     22  C   UNL     1     -10.303  -4.344  -2.777  0.00  0.00    +0.123 A 
ATOM     23  C   UNL     1      -9.879  -3.038  -2.961  0.00  0.00    +0.039 A 
ATOM     24  C   UNL     1      -8.554  -2.778  -3.256  0.00  0.00    +0.010 A 
ATOM     25  F   UNL     1     -11.596  -4.599  -2.484  0.00  0.00    -0.205 F 
ENDBRANCH  18  19
ENDBRANCH  17  18
ENDBRANCH  15  17
ENDBRANCH   4  11
BRANCH   3  26
ATOM     26  C   UNL     1      -2.376  -0.253   0.200  0.00  0.00    +0.248 C 
ATOM     27  O   UNL     1      -2.969  -0.407   1.252  0.00  0.00    -0.270 OA
ATOM     28  N   UNL     1      -2.866   0.586  -0.734  0.00  0.00    -0.279 N 
ATOM     29  H   UNL     1      -2.414   0.681  -1.586  0.00  0.00    +0.155 HD
BRANCH  28  30
ATOM     30  C   UNL     1      -4.029   1.321  -0.472  0.00  0.00    +0.079 A 
ATOM     31  C   UNL     1      -4.596   1.299   0.793  0.00  0.00    +0.072 A 
ATOM     32  C   UNL     1      -5.748   2.028   1.049  0.00  0.00    +0.122 A 
ATOM     33  C   UNL     1      -6.332   2.779   0.040  0.00  0.00    +0.049 A 
ATOM     34  C   UNL     1      -5.769   2.803  -1.223  0.00  0.00    +0.051 A 
ATOM     35  C   UNL     1      -4.616   2.081  -1.482  0.00  0.00    +0.141 A 
BRANCH  35  36
ATOM     36  O   UNL     1      -4.059   2.110  -2.723  0.00  0.00    -0.493 OA
ATOM     37  C   UNL     1      -4.714   2.911  -3.709  0.00  0.00    +0.277 C 
ENDBRANCH  35  36
BRANCH  32  38
ATOM     38  O   UNL     1      -6.304   2.006   2.289  0.00  0.00    -0.495 OA
ATOM     39  C   UNL     1      -7.490   2.780   2.482  0.00  0.00    +0.277 C 
ENDBRANCH  32  38
ENDBRANCH  28  30
ENDBRANCH   3  26
TORSDOF 8
