REMARK  Name = ZINC39935627
REMARK  9 active torsions:
REMARK  status: ('A' for Active; 'I' for Inactive)
REMARK    1  A    between atoms: C_1  and  C_2
REMARK    2  A    between atoms: C_2  and  O_3
REMARK    3  A    between atoms: O_3  and  C_4
REMARK    4  A    between atoms: C_4  and  C_6
REMARK    5  A    between atoms: C_8  and  C_18
REMARK    6  A    between atoms: C_18  and  N_19
REMARK    7  A    between atoms: N_19  and  C_20
REMARK    8  A    between atoms: C_20  and  C_21
REMARK    9  A    between atoms: C_21  and  C_22
REMARK                            x       y       z     vdW  Elec       q    Type
REMARK                         _______ _______ _______ _____ _____    ______ ____
ROOT
ATOM      1  C   UNL     1      -5.123  -2.000  -1.086  0.00  0.00    -0.070 C 
ENDROOT
BRANCH   1   3
ATOM      2  C   UNL     1      -2.881  -2.427   0.017  0.00  0.00    +0.287 C 
ATOM      3  C   UNL     1      -3.616  -2.127  -1.312  0.00  0.00    +0.057 C 
ATOM      4  C   UNL     1      -3.293  -3.361  -2.133  0.00  0.00    +0.001 A 
ATOM      5  C   UNL     1      -3.395  -3.626  -3.481  0.00  0.00    +0.027 A 
ATOM      6  C   UNL     1      -3.014  -4.863  -3.973  0.00  0.00    +0.041 A 
ATOM      7  C   UNL     1      -2.531  -5.827  -3.106  0.00  0.00    +0.023 A 
ATOM      8  C   UNL     1      -2.431  -5.563  -1.755  0.00  0.00    +0.047 A 
ATOM      9  C   UNL     1      -2.816  -4.323  -1.253  0.00  0.00    +0.125 A 
ATOM     10  O   UNL     1      -2.818  -3.863   0.034  0.00  0.00    -0.477 OA
ATOM     11 CL   UNL     1      -3.140  -5.203  -5.670  0.00  0.00    -0.084 Cl
BRANCH   2  12
ATOM     12  C   UNL     1      -1.496  -1.832   0.006  0.00  0.00    +0.349 C 
ATOM     13  O   UNL     1      -0.528  -2.555  -0.007  0.00  0.00    -0.247 OA
BRANCH  12  14
ATOM     14  O   UNL     1      -1.339  -0.499   0.012  0.00  0.00    -0.462 OA
BRANCH  14  16
ATOM     15  C   UNL     1      -0.019   1.526   0.010  0.00  0.00    +0.048 C 
ATOM     16  C   UNL     1       0.002  -0.004   0.002  0.00  0.00    +0.229 C 
ENDBRANCH  14  16
ENDBRANCH  12  14
ENDBRANCH   2  12
ENDBRANCH   1   3
BRANCH   1  17
ATOM     17  N   UNL     1      -5.774  -1.599  -2.340  0.00  0.00    +0.380 N 
ATOM     18  H   UNL     1      -5.403  -0.711  -2.643  0.00  0.00    -0.086 HD
ATOM     19  H   UNL     1      -5.598  -2.296  -3.048  0.00  0.00    -0.086 HD
BRANCH  17  20
ATOM     20  C   UNL     1      -7.222  -1.476  -2.123  0.00  0.00    -0.078 C 
BRANCH  20  21
ATOM     21  C   UNL     1      -7.900  -1.058  -3.430  0.00  0.00    +0.018 C 
BRANCH  21  22
ATOM     22  C   UNL     1      -9.385  -0.932  -3.207  0.00  0.00    -0.024 A 
ATOM     23  C   UNL     1     -10.092   0.242  -2.692  0.00  0.00    +0.003 A 
ATOM     24  C   UNL     1      -9.689   1.512  -2.273  0.00  0.00    +0.010 A 
ATOM     25  C   UNL     1     -10.621   2.409  -1.834  0.00  0.00    +0.001 A 
ATOM     26  C   UNL     1     -11.966   2.068  -1.799  0.00  0.00    +0.002 A 
ATOM     27  C   UNL     1     -12.386   0.821  -2.207  0.00  0.00    +0.026 A 
ATOM     28  C   UNL     1     -11.455  -0.108  -2.658  0.00  0.00    +0.047 A 
ATOM     29  N   UNL     1     -11.553  -1.401  -3.122  0.00  0.00    -0.360 N 
ATOM     30  C   UNL     1     -10.311  -1.873  -3.449  0.00  0.00    +0.087 A 
ATOM     31  H   UNL     1     -12.380  -1.901  -3.207  0.00  0.00    +0.165 HD
ENDBRANCH  21  22
ENDBRANCH  20  21
ENDBRANCH  17  20
ENDBRANCH   1  17
TORSDOF 8
