REMARK  Name = ZINC02893208
REMARK  1 active torsions:
REMARK  status: ('A' for Active; 'I' for Inactive)
REMARK    1  A    between atoms: C_4  and  N_7
REMARK                            x       y       z     vdW  Elec       q    Type
REMARK                         _______ _______ _______ _____ _____    ______ ____
ROOT
ATOM      1  N   UNL     1       3.621  -0.650  -0.036  0.00  0.00    -0.212 N 
ATOM      2  C   UNL     1       4.840  -0.051  -0.137  0.00  0.00    +0.161 C 
ATOM      3  N   UNL     1       5.843  -0.981  -0.125  0.00  0.00    -0.347 N 
ATOM      4  C   UNL     1       5.194  -2.287  -0.005  0.00  0.00    +0.107 C 
ATOM      5  N   UNL     1       3.754  -2.008   0.053  0.00  0.00    -0.209 NA
ATOM      6  C   UNL     1       5.657  -3.015   1.266  0.00  0.00    +0.045 C 
ATOM      7  C   UNL     1       5.696  -4.508   0.851  0.00  0.00    +0.004 C 
ATOM      8  C   UNL     1       6.212  -4.447  -0.609  0.00  0.00    +0.004 C 
ATOM      9  C   UNL     1       5.539  -3.187  -1.196  0.00  0.00    +0.045 C 
ATOM     10  S   UNL     1       5.077   1.588  -0.259  0.00  0.00    -0.014 SA
ATOM     11  H   UNL     1       3.268  -2.470  -0.701  0.00  0.00    +0.147 HD
ATOM     12  H   UNL     1       6.795  -0.808  -0.184  0.00  0.00    +0.163 HD
ENDROOT
BRANCH   1  16
ATOM     13  C   UNL     1      -0.016   1.379   0.011  0.00  0.00    +0.000 A 
ATOM     14  C   UNL     1       0.245   0.410   0.962  0.00  0.00    +0.002 A 
ATOM     15  C   UNL     1       1.450  -0.265   0.949  0.00  0.00    +0.025 A 
ATOM     16  C   UNL     1       2.400   0.031  -0.021  0.00  0.00    +0.052 A 
ATOM     17  C   UNL     1       2.134   1.005  -0.974  0.00  0.00    +0.025 A 
ATOM     18  C   UNL     1       0.927   1.677  -0.955  0.00  0.00    +0.002 A 
ENDBRANCH   1  16
TORSDOF 1
