REMARK  Name = ZINC12405008
REMARK  6 active torsions:
REMARK  status: ('A' for Active; 'I' for Inactive)
REMARK    1  A    between atoms: C_1  and  C_2
REMARK    2  A    between atoms: C_2  and  C_35
REMARK    3  A    between atoms: C_13  and  N_14
REMARK    4  A    between atoms: N_15  and  C_16
REMARK    5  A    between atoms: C_19  and  N_26
REMARK    6  A    between atoms: N_27  and  C_28
REMARK                            x       y       z     vdW  Elec       q    Type
REMARK                         _______ _______ _______ _____ _____    ______ ____
ROOT
ATOM      1  N   UNL     1      -3.577   5.812  -1.029  0.00  0.00    -0.149 NA
ATOM      2  N   UNL     1      -3.562   7.013  -1.501  0.00  0.00    -0.149 NA
ENDROOT
BRANCH   1  15
ATOM      3  C   UNL     1       1.481   2.348   1.384  0.00  0.00    +0.052 C 
ATOM      4  C   UNL     1       1.241   1.743  -0.000  0.00  0.00    +0.091 C 
ATOM      5  N   UNL     1      -0.011   0.966   0.007  0.00  0.00    -0.323 N 
ATOM      6  C   UNL     1      -1.215   1.669   0.017  0.00  0.00    +0.038 A 
ATOM      7  C   UNL     1      -2.374   1.114   0.519  0.00  0.00    +0.023 A 
ATOM      8  C   UNL     1      -3.558   1.843   0.517  0.00  0.00    +0.002 A 
ATOM      9  C   UNL     1      -3.604   3.119   0.028  0.00  0.00    +0.011 A 
ATOM     10  C   UNL     1      -2.447   3.713  -0.482  0.00  0.00    +0.013 A 
ATOM     11  C   UNL     1      -1.239   2.983  -0.489  0.00  0.00    +0.026 A 
ATOM     12  C   UNL     1      -0.061   3.569  -1.002  0.00  0.00    +0.038 A 
ATOM     13  C   UNL     1      -0.084   4.859  -1.496  0.00  0.00    +0.026 A 
ATOM     14  C   UNL     1      -1.248   5.606  -1.506  0.00  0.00    +0.032 A 
ATOM     15  C   UNL     1      -2.444   5.078  -1.014  0.00  0.00    +0.094 A 
ATOM     16  N   UNL     1       1.111   2.820  -0.997  0.00  0.00    -0.323 N 
ATOM     17  C   UNL     1       2.411   0.832  -0.376  0.00  0.00    +0.052 C 
ATOM     18  H   UNL     1       0.002  -0.004   0.002  0.00  0.00    +0.148 HD
ATOM     19  H   UNL     1       1.821   3.001  -1.632  0.00  0.00    +0.148 HD
ENDBRANCH   1  15
BRANCH   2  20
ATOM     20  C   UNL     1      -4.702   7.751  -1.516  0.00  0.00    +0.094 A 
ATOM     21  C   UNL     1      -5.890   7.217  -1.024  0.00  0.00    +0.032 A 
ATOM     22  C   UNL     1      -7.062   7.944  -1.027  0.00  0.00    +0.032 A 
ATOM     23  C   UNL     1      -7.108   9.245  -1.522  0.00  0.00    +0.094 A 
ATOM     24  C   UNL     1      -5.891   9.859  -2.053  0.00  0.00    +0.011 A 
ATOM     25  C   UNL     1      -4.688   9.115  -2.044  0.00  0.00    +0.011 A 
ATOM     26  C   UNL     1      -3.518   9.690  -2.554  0.00  0.00    +0.011 A 
ATOM     27  C   UNL     1      -3.551  10.963  -3.042  0.00  0.00    +0.001 A 
ATOM     28  C   UNL     1      -4.734  11.697  -3.046  0.00  0.00    +0.001 A 
ATOM     29  C   UNL     1      -5.891  11.163  -2.561  0.00  0.00    +0.011 A 
BRANCH  23  30
ATOM     30  N   UNL     1      -8.276   9.939  -1.514  0.00  0.00    -0.149 NA
ATOM     31  N   UNL     1      -9.347   9.393  -1.046  0.00  0.00    -0.149 NA
BRANCH  31  32
ATOM     32  C   UNL     1     -10.521  10.091  -1.037  0.00  0.00    +0.086 A 
ATOM     33  C   UNL     1     -10.565  11.399  -1.530  0.00  0.00    +0.029 A 
ATOM     34  C   UNL     1     -11.755  12.094  -1.523  0.00  0.00    +0.002 A 
ATOM     35  C   UNL     1     -12.903  11.505  -1.020  0.00  0.00    +0.000 A 
ATOM     36  C   UNL     1     -12.866  10.213  -0.525  0.00  0.00    +0.002 A 
ATOM     37  C   UNL     1     -11.684   9.502  -0.530  0.00  0.00    +0.029 A 
ENDBRANCH  31  32
ENDBRANCH  23  30
ENDBRANCH   2  20
TORSDOF 4
