REMARK  Name = ZINC13037850
REMARK  5 active torsions:
REMARK  status: ('A' for Active; 'I' for Inactive)
REMARK    1  A    between atoms: C_5  and  C_6
REMARK    2  A    between atoms: C_6  and  O_8
REMARK    3  A    between atoms: O_8  and  C_9
REMARK    4  A    between atoms: C_9  and  C_10
REMARK    5  A    between atoms: N_12  and  C_13
REMARK                            x       y       z     vdW  Elec       q    Type
REMARK                         _______ _______ _______ _____ _____    ______ ____
ROOT
ATOM      1  C   UNL     1      -7.065   1.369  -0.101  0.00  0.00    +0.255 C 
ATOM      2  O   UNL     1      -6.624   2.498  -0.074  0.00  0.00    -0.272 OA
ATOM      3  N   UNL     1      -8.397   1.165  -0.133  0.00  0.00    -0.282 N 
ATOM      4  H   UNL     1      -8.748   0.267  -0.235  0.00  0.00    +0.155 HD
ENDROOT
BRANCH   3   5
ATOM      5  C   UNL     1      -9.274   2.252  -0.019  0.00  0.00    +0.050 A 
ATOM      6  C   UNL     1      -8.861   3.411   0.622  0.00  0.00    +0.052 A 
ATOM      7  C   UNL     1      -9.731   4.484   0.733  0.00  0.00    +0.069 A 
ATOM      8  C   UNL     1     -11.020   4.395   0.201  0.00  0.00    +0.068 A 
ATOM      9  C   UNL     1     -11.427   3.233  -0.437  0.00  0.00    +0.045 A 
ATOM     10  C   UNL     1     -10.556   2.168  -0.552  0.00  0.00    +0.041 A 
ATOM     11 BR   UNL     1     -11.110   0.588  -1.431  0.00  0.00    -0.048 Br
ATOM     12  N   UNL     1     -11.649   5.611   0.465  0.00  0.00    -0.306 N 
ATOM     13  H   UNL     1     -12.556   5.848   0.215  0.00  0.00    +0.170 HD
ATOM     14  C   UNL     1     -10.782   6.402   1.126  0.00  0.00    +0.325 A 
ATOM     15  O   UNL     1     -11.016   7.534   1.506  0.00  0.00    -0.247 OA
ATOM     16  N   UNL     1      -9.617   5.750   1.303  0.00  0.00    -0.306 N 
ATOM     17  H   UNL     1      -8.832   6.102   1.751  0.00  0.00    +0.170 HD
ENDBRANCH   3   5
BRANCH   1  18
ATOM     18  C   UNL     1      -6.123   0.192  -0.098  0.00  0.00    +0.328 C 
BRANCH  18  19
ATOM     19  O   UNL     1      -4.752   0.670  -0.061  0.00  0.00    -0.451 OA
BRANCH  19  20
ATOM     20  C   UNL     1      -3.778  -0.263  -0.054  0.00  0.00    +0.346 C 
ATOM     21  O   UNL     1      -4.068  -1.444  -0.078  0.00  0.00    -0.244 OA
BRANCH  20  26
ATOM     22  C   UNL     1      -1.234  -0.642  -0.004  0.00  0.00    +0.026 A 
ATOM     23  C   UNL     1       0.001  -0.006   0.039  0.00  0.00    -0.036 A 
ATOM     24  C   UNL     1      -0.017   1.346   0.036  0.00  0.00    -0.006 A 
ATOM     25  S   UNL     1      -1.678   1.790   0.023  0.00  0.00    -0.086 S 
ATOM     26  C   UNL     1      -2.373   0.145  -0.017  0.00  0.00    +0.097 A 
ATOM     27  C   UNL     1       1.189   2.260   0.027  0.00  0.00    +0.043 C 
ATOM     28  C   UNL     1       1.896   2.093   1.382  0.00  0.00    +0.005 C 
ATOM     29  C   UNL     1       2.729   0.834   1.390  0.00  0.00    +0.001 C 
ATOM     30  C   UNL     1       1.974  -0.470   1.447  0.00  0.00    +0.005 C 
ATOM     31  C   UNL     1       1.308  -0.804   0.111  0.00  0.00    +0.036 C 
ENDBRANCH  20  26
ENDBRANCH  19  20
ENDBRANCH  18  19
ENDBRANCH   1  18
TORSDOF 5
