REMARK  Name = ZINC38658980
REMARK  15 active torsions:
REMARK  status: ('A' for Active; 'I' for Inactive)
REMARK    1  A    between atoms: C_1  and  C_2
REMARK    2  A    between atoms: C_2  and  C_3
REMARK    3  A    between atoms: C_2  and  C_4
REMARK    4  A    between atoms: C_7  and  O_10
REMARK    5  A    between atoms: O_10  and  C_11
REMARK    6  A    between atoms: C_11  and  C_12
REMARK    7  A    between atoms: C_12  and  O_14
REMARK    8  A    between atoms: O_14  and  C_15
REMARK    9  A    between atoms: C_22  and  N_38
REMARK   10  A    between atoms: C_23  and  C_36
REMARK   11  A    between atoms: C_24  and  C_26
REMARK   12  A    between atoms: C_30  and  O_34
REMARK   13  A    between atoms: C_31  and  O_32
REMARK   14  A    between atoms: O_32  and  C_33
REMARK   15  A    between atoms: O_34  and  C_35
REMARK                            x       y       z     vdW  Elec       q    Type
REMARK                         _______ _______ _______ _____ _____    ______ ____
ROOT
ATOM      1  C   UNL     1       5.997  -4.187  -7.036  0.00  0.00    +0.135 A 
ATOM      2  C   UNL     1       5.442  -3.749  -8.231  0.00  0.00    +0.047 A 
ATOM      3  C   UNL     1       5.979  -4.162  -9.434  0.00  0.00    +0.012 A 
ATOM      4  C   UNL     1       7.071  -5.013  -9.455  0.00  0.00    +0.008 A 
ATOM      5  C   UNL     1       7.629  -5.453  -8.265  0.00  0.00    +0.138 A 
ATOM      6  C   UNL     1       7.093  -5.034  -7.054  0.00  0.00    +0.093 A 
ATOM      7  O   UNL     1       8.698  -6.287  -8.265  0.00  0.00    -0.441 OA
ATOM      8  C   UNL     1       9.464  -6.394  -9.364  0.00  0.00    +0.199 C 
ATOM      9  C   UNL     1       9.021  -6.015 -10.586  0.00  0.00    +0.098 C 
ATOM     10  C   UNL     1       7.641  -5.452 -10.777  0.00  0.00    +0.102 C 
ENDROOT
BRANCH  10  11
ATOM     11  C   UNL     1       6.750  -6.508 -11.379  0.00  0.00    +0.011 A 
ATOM     12  C   UNL     1       6.520  -7.689 -10.698  0.00  0.00    +0.008 A 
ATOM     13  C   UNL     1       5.703  -8.659 -11.248  0.00  0.00    +0.004 A 
ATOM     14  C   UNL     1       5.113  -8.453 -12.481  0.00  0.00    +0.049 A 
ATOM     15  C   UNL     1       5.339  -7.272 -13.169  0.00  0.00    +0.162 A 
ATOM     16  C   UNL     1       6.157  -6.292 -12.613  0.00  0.00    +0.166 A 
BRANCH  16  17
ATOM     17  O   UNL     1       6.378  -5.129 -13.281  0.00  0.00    -0.491 OA
ATOM     18  C   UNL     1       7.491  -5.096 -14.176  0.00  0.00    +0.277 C 
ENDBRANCH  16  17
BRANCH  15  19
ATOM     19  O   UNL     1       4.760  -7.068 -14.382  0.00  0.00    -0.491 OA
ATOM     20  C   UNL     1       3.928  -8.114 -14.888  0.00  0.00    +0.277 C 
ENDBRANCH  15  19
ENDBRANCH  10  11
BRANCH   8  21
ATOM     21  N   UNL     1      10.733  -6.903  -9.244  0.00  0.00    -0.328 N 
ATOM     22  H   UNL     1      11.065  -7.179  -8.375  0.00  0.00    +0.145 HD
ATOM     23  H   UNL     1      11.298  -6.987 -10.028  0.00  0.00    +0.145 HD
ENDBRANCH   8  21
BRANCH   9  24
ATOM     24  C   UNL     1       9.886  -6.153 -11.720  0.00  0.00    +0.101 C 
ATOM     25  N   UNL     1      10.571  -6.263 -12.618  0.00  0.00    -0.191 NA
ENDBRANCH   9  24
BRANCH   1  26
ATOM     26  O   UNL     1       5.469  -3.782  -5.851  0.00  0.00    -0.423 OA
BRANCH  26  27
ATOM     27  C   UNL     1       4.334  -4.365  -5.435  0.00  0.00    +0.350 C 
ATOM     28  O   UNL     1       3.764  -5.157  -6.148  0.00  0.00    -0.247 OA
BRANCH  27  29
ATOM     29  C   UNL     1       3.769  -4.031  -4.078  0.00  0.00    +0.349 C 
BRANCH  29  30
ATOM     30  O   UNL     1       2.566  -4.773  -3.867  0.00  0.00    -0.481 OA
BRANCH  30  34
ATOM     31  C   UNL     1       0.624  -4.208  -0.271  0.00  0.00    -0.045 A 
ATOM     32  C   UNL     1       0.104  -5.085  -1.206  0.00  0.00    +0.007 A 
ATOM     33  C   UNL     1       0.753  -5.275  -2.411  0.00  0.00    +0.046 A 
ATOM     34  C   UNL     1       1.926  -4.587  -2.683  0.00  0.00    +0.121 A 
ATOM     35  C   UNL     1       2.445  -3.708  -1.743  0.00  0.00    +0.046 A 
ATOM     36  C   UNL     1       1.790  -3.517  -0.542  0.00  0.00    +0.007 A 
BRANCH  31  38
ATOM     37  C   UNL     1      -1.499  -3.479   0.782  0.00  0.00    +0.012 C 
ATOM     38  C   UNL     1      -0.085  -4.003   1.042  0.00  0.00    +0.013 C 
ATOM     39  C   UNL     1      -0.165  -5.333   1.793  0.00  0.00    +0.012 C 
ENDBRANCH  31  38
ENDBRANCH  30  34
ENDBRANCH  29  30
ENDBRANCH  27  29
ENDBRANCH  26  27
ENDBRANCH   1  26
TORSDOF 11
