REMARK  Name = ZINC03158211
REMARK  13 active torsions:
REMARK  status: ('A' for Active; 'I' for Inactive)
REMARK    1  A    between atoms: C_1  and  C_2
REMARK    2  A    between atoms: C_2  and  O_3
REMARK    3  A    between atoms: O_3  and  C_4
REMARK    4  A    between atoms: C_4  and  C_6
REMARK    5  A    between atoms: C_6  and  C_7
REMARK    6  A    between atoms: C_6  and  N_11
REMARK    7  A    between atoms: C_6  and  N_23
REMARK    8  A    between atoms: N_11  and  N_12
REMARK    9  A    between atoms: N_12  and  S_13
REMARK   10  A    between atoms: S_13  and  C_16
REMARK   11  A    between atoms: C_19  and  C_22
REMARK   12  A    between atoms: N_23  and  S_24
REMARK   13  A    between atoms: S_24  and  C_27
REMARK                            x       y       z     vdW  Elec       q    Type
REMARK                         _______ _______ _______ _____ _____    ______ ____
ROOT
ATOM      1  C   UNL     1       2.958  -4.682  -3.090  0.00  0.00    +0.297 C 
ENDROOT
BRANCH   1   2
ATOM      2  C   UNL     1       2.479  -6.075  -3.503  0.00  0.00    +0.434 C 
ATOM      3  F   UNL     1       1.362  -5.956  -4.337  0.00  0.00    -0.167 F 
ATOM      4  F   UNL     1       3.504  -6.737  -4.187  0.00  0.00    -0.167 F 
ATOM      5  F   UNL     1       2.133  -6.806  -2.361  0.00  0.00    -0.167 F 
ENDBRANCH   1   2
BRANCH   1   6
ATOM      6  C   UNL     1       4.058  -4.811  -2.068  0.00  0.00    +0.354 C 
ATOM      7  O   UNL     1       3.857  -4.488  -0.921  0.00  0.00    -0.247 OA
BRANCH   6   8
ATOM      8  O   UNL     1       5.260  -5.284  -2.432  0.00  0.00    -0.462 OA
BRANCH   8  10
ATOM      9  C   UNL     1       7.517  -6.073  -1.972  0.00  0.00    +0.048 C 
ATOM     10  C   UNL     1       6.231  -5.500  -1.374  0.00  0.00    +0.229 C 
ENDBRANCH   8  10
ENDBRANCH   6   8
ENDBRANCH   1   6
BRANCH   1  11
ATOM     11  N   UNL     1       1.836  -3.930  -2.510  0.00  0.00    -0.199 NA
ATOM     12  H   UNL     1       2.110  -2.985  -2.289  0.00  0.00    +0.145 HD
BRANCH  11  13
ATOM     13  N   UNL     1       1.338  -4.566  -1.409  0.00  0.00    -0.123 NA
ATOM     14  H   UNL     1       1.048  -5.490  -1.472  0.00  0.00    +0.168 HD
BRANCH  13  15
ATOM     15  S   UNL     1       1.229  -3.760   0.034  0.00  0.00    +0.071 S 
ATOM     16  O   UNL     1       2.523  -3.241   0.308  0.00  0.00    -0.152 OA
ATOM     17  O   UNL     1       0.549  -4.627   0.932  0.00  0.00    -0.152 OA
BRANCH  15  18
ATOM     18  C   UNL     1       0.174  -2.373  -0.223  0.00  0.00    +0.107 A 
ATOM     19  C   UNL     1      -1.189  -2.495  -0.024  0.00  0.00    +0.029 A 
ATOM     20  C   UNL     1      -2.017  -1.406  -0.225  0.00  0.00    +0.005 A 
ATOM     21  C   UNL     1      -1.482  -0.195  -0.625  0.00  0.00    -0.050 A 
ATOM     22  C   UNL     1      -0.120  -0.074  -0.825  0.00  0.00    +0.005 A 
ATOM     23  C   UNL     1       0.708  -1.163  -0.624  0.00  0.00    +0.029 A 
ATOM     24  C   UNL     1      -2.384   0.991  -0.844  0.00  0.00    +0.044 C 
ENDBRANCH  15  18
ENDBRANCH  13  15
ENDBRANCH  11  13
ENDBRANCH   1  11
BRANCH   1  25
ATOM     25  N   UNL     1       3.465  -3.971  -4.266  0.00  0.00    -0.151 NA
ATOM     26  H   UNL     1       3.534  -4.431  -5.118  0.00  0.00    +0.151 HD
BRANCH  25  27
ATOM     27  S   UNL     1       3.921  -2.384  -4.143  0.00  0.00    +0.061 S 
ATOM     28  O   UNL     1       4.476  -2.022  -5.400  0.00  0.00    -0.153 OA
ATOM     29  O   UNL     1       2.822  -1.690  -3.567  0.00  0.00    -0.153 OA
BRANCH  27  30
ATOM     30  C   UNL     1       5.235  -2.309  -2.971  0.00  0.00    +0.105 A 
ATOM     31  C   UNL     1       4.967  -1.992  -1.653  0.00  0.00    +0.028 A 
ATOM     32  C   UNL     1       5.998  -1.938  -0.732  0.00  0.00    +0.002 A 
ATOM     33  C   UNL     1       7.296  -2.190  -1.133  0.00  0.00    +0.000 A 
ATOM     34  C   UNL     1       7.564  -2.501  -2.453  0.00  0.00    +0.002 A 
ATOM     35  C   UNL     1       6.533  -2.561  -3.372  0.00  0.00    +0.028 A 
ENDBRANCH  27  30
ENDBRANCH  25  27
ENDBRANCH   1  25
TORSDOF 11
