REMARK  Name = ZINC02789002
REMARK  6 active torsions:
REMARK  status: ('A' for Active; 'I' for Inactive)
REMARK    1  A    between atoms: C_1  and  C_2
REMARK    2  A    between atoms: C_5  and  N_8
REMARK    3  A    between atoms: C_9  and  C_11
REMARK    4  A    between atoms: C_11  and  C_23
REMARK    5  A    between atoms: C_12  and  C_13
REMARK    6  A    between atoms: C_15  and  N_20
REMARK                            x       y       z     vdW  Elec       q    Type
REMARK                         _______ _______ _______ _____ _____    ______ ____
ROOT
ATOM      1  C   UNL     1       2.425  -4.199  -0.260  0.00  0.00    +0.114 C 
ATOM      2  C   UNL     1       3.622  -4.869  -0.374  0.00  0.00    +0.033 C 
ENDROOT
BRANCH   2   3
ATOM      3  C   UNL     1       3.634  -6.317  -0.602  0.00  0.00    -0.003 A 
ATOM      4  C   UNL     1       2.656  -7.131  -0.016  0.00  0.00    +0.042 A 
ATOM      5  C   UNL     1       2.674  -8.491  -0.235  0.00  0.00    +0.127 A 
ATOM      6  C   UNL     1       3.656  -9.055  -1.033  0.00  0.00    +0.034 A 
ATOM      7  C   UNL     1       4.626  -8.261  -1.617  0.00  0.00    +0.023 A 
ATOM      8  C   UNL     1       4.621  -6.896  -1.413  0.00  0.00    +0.048 A 
ATOM      9 CL   UNL     1       5.835  -5.899  -2.152  0.00  0.00    -0.083 Cl
BRANCH   5  10
ATOM     10  N   UNL     1       1.641  -9.352   0.383  0.00  0.00    +0.056 N 
ATOM     11  O   UNL     1       0.776  -8.857   1.085  0.00  0.00    -0.126 OA
ATOM     12  O   UNL     1       1.655 -10.554   0.191  0.00  0.00    -0.126 OA
ENDBRANCH   5  10
ENDBRANCH   2   3
BRANCH   1  14
ATOM     13  N   UNL     1       1.238  -2.120   0.224  0.00  0.00    -0.281 N 
ATOM     14  C   UNL     1       2.411  -2.776   0.112  0.00  0.00    +0.259 C 
ATOM     15  O   UNL     1       3.457  -2.190   0.318  0.00  0.00    -0.269 OA
ATOM     16  H   UNL     1       0.402  -2.603   0.131  0.00  0.00    +0.155 HD
BRANCH  13  21
ATOM     17  C   UNL     1       1.192   3.460   1.240  0.00  0.00    +0.044 C 
ATOM     18  C   UNL     1       1.205   1.978   0.970  0.00  0.00    -0.050 A 
ATOM     19  C   UNL     1       2.170   1.435   0.142  0.00  0.00    +0.005 A 
ATOM     20  C   UNL     1       2.184   0.077  -0.107  0.00  0.00    +0.023 A 
ATOM     21  C   UNL     1       1.227  -0.745   0.475  0.00  0.00    +0.034 A 
ATOM     22  C   UNL     1       0.259  -0.196   1.306  0.00  0.00    +0.023 A 
ATOM     23  C   UNL     1       0.251   1.163   1.551  0.00  0.00    +0.005 A 
ENDBRANCH  13  21
ENDBRANCH   1  14
BRANCH   1  24
ATOM     24  C   UNL     1       1.194  -4.889  -0.502  0.00  0.00    +0.104 C 
ATOM     25  N   UNL     1       0.217  -5.436  -0.695  0.00  0.00    -0.191 NA
ENDBRANCH   1  24
TORSDOF 5
