REMARK  Name = ZINC33400435
REMARK  10 active torsions:
REMARK  status: ('A' for Active; 'I' for Inactive)
REMARK    1  A    between atoms: C_1  and  C_2
REMARK    2  A    between atoms: C_2  and  C_3
REMARK    3  A    between atoms: C_2  and  C_4
REMARK    4  A    between atoms: C_2  and  N_5
REMARK    5  A    between atoms: N_5  and  C_6
REMARK    6  A    between atoms: N_5  and  C_14
REMARK    7  A    between atoms: C_6  and  C_7
REMARK    8  A    between atoms: C_14  and  C_15
REMARK    9  A    between atoms: C_18  and  C_20
REMARK   10  A    between atoms: C_25  and  N_28
REMARK                            x       y       z     vdW  Elec       q    Type
REMARK                         _______ _______ _______ _____ _____    ______ ____
ROOT
ATOM      1  C   UNL     1      -7.191   5.965   2.949  0.00  0.00    +0.090 A 
ATOM      2  C   UNL     1      -6.646   7.106   2.471  0.00  0.00    +0.043 A 
ATOM      3  C   UNL     1      -7.652   7.777   1.759  0.00  0.00    +0.055 A 
ATOM      4  C   UNL     1      -8.774   7.002   1.839  0.00  0.00    +0.190 A 
ATOM      5  O   UNL     1      -8.474   5.909   2.570  0.00  0.00    -0.457 OA
ENDROOT
BRANCH   4   6
ATOM      6  C   UNL     1     -10.077   7.308   1.240  0.00  0.00    +0.282 C 
ATOM      7  O   UNL     1     -10.267   8.389   0.714  0.00  0.00    -0.267 OA
ATOM      8  N   UNL     1     -11.065   6.392   1.272  0.00  0.00    -0.295 N 
ATOM      9  C   UNL     1     -12.417   6.732   0.806  0.00  0.00    +0.110 C 
ATOM     10  C   UNL     1     -13.419   6.393   1.914  0.00  0.00    +0.044 C 
ATOM     11  C   UNL     1     -13.245   4.929   2.324  0.00  0.00    +0.095 C 
ATOM     12  C   UNL     1     -11.831   4.715   2.870  0.00  0.00    +0.044 C 
ATOM     13  C   UNL     1     -10.811   5.034   1.773  0.00  0.00    +0.110 C 
BRANCH  11  14
ATOM     14  N   UNL     1     -14.225   4.593   3.360  0.00  0.00    -0.289 N 
ATOM     15  C   UNL     1     -15.207   3.610   3.265  0.00  0.00    +0.070 A 
ATOM     16  C   UNL     1     -15.556   2.707   2.273  0.00  0.00    +0.028 A 
ATOM     17  C   UNL     1     -16.601   1.827   2.480  0.00  0.00    +0.002 A 
ATOM     18  C   UNL     1     -17.301   1.845   3.675  0.00  0.00    +0.002 A 
ATOM     19  C   UNL     1     -16.960   2.741   4.669  0.00  0.00    +0.028 A 
ATOM     20  C   UNL     1     -15.913   3.627   4.470  0.00  0.00    +0.067 A 
ATOM     21  N   UNL     1     -15.341   4.624   5.257  0.00  0.00    -0.306 N 
ATOM     22  H   UNL     1     -15.737   4.824   6.264  0.00  0.00    +0.170 HD
ATOM     23  C   UNL     1     -14.334   5.187   4.564  0.00  0.00    +0.328 A 
ATOM     24  O   UNL     1     -13.627   6.092   4.965  0.00  0.00    -0.247 OA
ENDBRANCH  11  14
ENDBRANCH   4   6
BRANCH   1  25
ATOM     25  C   UNL     1      -6.474   4.930   3.776  0.00  0.00    -0.002 C 
BRANCH  25  26
ATOM     26  N   UNL     1      -7.381   4.413   4.809  0.00  0.00    +0.390 N 
ATOM     27  H   UNL     1      -8.359   4.231   4.339  0.00  0.00    -0.080 HD
BRANCH  26  29
ATOM     28  C   UNL     1      -8.017   6.732   5.276  0.00  0.00    -0.010 C 
ATOM     29  C   UNL     1      -7.573   5.398   5.881  0.00  0.00    -0.073 C 
ATOM     30  C   UNL     1      -8.646   4.896   6.850  0.00  0.00    -0.010 C 
ATOM     31  C   UNL     1      -6.256   5.594   6.636  0.00  0.00    -0.010 C 
ENDBRANCH  26  29
BRANCH  26  32
ATOM     32  C   UNL     1      -6.894   3.136   5.347  0.00  0.00    -0.042 C 
BRANCH  32  33
ATOM     33  C   UNL     1      -7.637   1.999   4.694  0.00  0.00    -0.064 A 
ATOM     34  C   UNL     1      -8.976   1.798   4.973  0.00  0.00    +0.004 A 
ATOM     35  C   UNL     1      -9.659   0.759   4.371  0.00  0.00    +0.038 A 
ATOM     36  C   UNL     1      -9.000  -0.088   3.496  0.00  0.00    +0.123 A 
ATOM     37  C   UNL     1      -7.657   0.112   3.222  0.00  0.00    +0.038 A 
ATOM     38  C   UNL     1      -6.977   1.155   3.821  0.00  0.00    +0.004 A 
ATOM     39  F   UNL     1      -9.666  -1.107   2.911  0.00  0.00    -0.205 F 
ENDBRANCH  32  33
ENDBRANCH  26  32
ENDBRANCH  25  26
ENDBRANCH   1  25
TORSDOF 7
