REMARK  Name = ZINC31935304
REMARK  10 active torsions:
REMARK  status: ('A' for Active; 'I' for Inactive)
REMARK    1  A    between atoms: C_1  and  C_2
REMARK    2  A    between atoms: C_7  and  C_16
REMARK    3  A    between atoms: C_8  and  C_11
REMARK    4  A    between atoms: C_11  and  C_13
REMARK    5  A    between atoms: C_11  and  C_14
REMARK    6  A    between atoms: C_14  and  N_15
REMARK    7  A    between atoms: C_19  and  O_22
REMARK    8  A    between atoms: O_22  and  C_23
REMARK    9  A    between atoms: C_23  and  C_24
REMARK   10  A    between atoms: C_24  and  C_26
REMARK                            x       y       z     vdW  Elec       q    Type
REMARK                         _______ _______ _______ _____ _____    ______ ____
ROOT
ATOM      1  C   UNL     1      -1.653  -2.931   3.456  0.00  0.00    +0.045 C 
ATOM      2  C   UNL     1      -1.643  -1.425   3.402  0.00  0.00    -0.034 A 
ATOM      3  C   UNL     1      -2.006  -0.682   4.538  0.00  0.00    +0.008 A 
ATOM      4  C   UNL     1      -1.995   0.677   4.487  0.00  0.00    +0.047 A 
ATOM      5  C   UNL     1      -1.619   1.320   3.289  0.00  0.00    +0.138 A 
ATOM      6  N   UNL     1      -1.521   2.600   2.962  0.00  0.00    -0.228 NA
ATOM      7  C   UNL     1      -1.112   2.697   1.687  0.00  0.00    +0.093 A 
ATOM      8  C   UNL     1      -0.956   1.438   1.191  0.00  0.00    +0.052 A 
ATOM      9  N   UNL     1      -1.270   0.568   2.197  0.00  0.00    -0.303 N 
ATOM     10  C   UNL     1      -1.286  -0.796   2.263  0.00  0.00    +0.096 A 
ENDROOT
BRANCH   7  11
ATOM     11  C   UNL     1      -0.874   3.960   0.944  0.00  0.00    +0.002 A 
ATOM     12  C   UNL     1       0.244   4.086   0.122  0.00  0.00    +0.013 A 
ATOM     13  C   UNL     1       0.460   5.259  -0.570  0.00  0.00    +0.046 A 
ATOM     14  C   UNL     1      -0.430   6.317  -0.441  0.00  0.00    +0.121 A 
ATOM     15  C   UNL     1      -1.542   6.196   0.381  0.00  0.00    +0.046 A 
ATOM     16  C   UNL     1      -1.766   5.023   1.072  0.00  0.00    +0.013 A 
BRANCH  14  17
ATOM     17  O   UNL     1      -0.212   7.473  -1.121  0.00  0.00    -0.488 OA
BRANCH  17  18
ATOM     18  C   UNL     1       0.951   7.530  -1.949  0.00  0.00    +0.259 C 
BRANCH  18  19
ATOM     19  C   UNL     1       1.026   8.878  -2.618  0.00  0.00    -0.043 C 
ATOM     20  C   UNL     1       0.099   9.775  -2.390  0.00  0.00    +0.011 C 
ATOM     21  C   UNL     1       2.167   9.194  -3.550  0.00  0.00    +0.042 C 
ENDBRANCH  18  19
ENDBRANCH  17  18
ENDBRANCH  14  17
ENDBRANCH   7  11
BRANCH   8  22
ATOM     22  C   UNL     1      -0.513   1.073  -0.203  0.00  0.00    +0.018 C 
ATOM     23  C   UNL     1       0.793   0.280  -0.132  0.00  0.00    +0.012 C 
BRANCH  22  24
ATOM     24  C   UNL     1      -1.592   0.221  -0.874  0.00  0.00    -0.077 C 
BRANCH  24  25
ATOM     25  N   UNL     1      -2.809   1.023  -1.052  0.00  0.00    +0.379 N 
ATOM     26  H   UNL     1      -3.585   0.410  -1.534  0.00  0.00    -0.090 HD
ATOM     27  H   UNL     1      -2.585   1.894  -1.684  0.00  0.00    -0.090 HD
ATOM     28  H   UNL     1      -3.170   1.364  -0.070  0.00  0.00    -0.090 HD
ENDBRANCH  24  25
ENDBRANCH  22  24
ENDBRANCH   8  22
TORSDOF 7
