REMARK  Name = ZINC00709202
REMARK  9 active torsions:
REMARK  status: ('A' for Active; 'I' for Inactive)
REMARK    1  A    between atoms: C_1  and  C_2
REMARK    2  A    between atoms: C_2  and  C_28
REMARK    3  A    between atoms: N_6  and  C_7
REMARK    4  A    between atoms: C_10  and  O_15
REMARK    5  A    between atoms: C_12  and  O_13
REMARK    6  A    between atoms: O_13  and  C_14
REMARK    7  A    between atoms: O_15  and  C_16
REMARK    8  A    between atoms: C_21  and  O_26
REMARK    9  A    between atoms: O_26  and  C_27
REMARK                            x       y       z     vdW  Elec       q    Type
REMARK                         _______ _______ _______ _____ _____    ______ ____
ROOT
ATOM      1  C   UNL     1     -10.259  -3.459  -0.821  0.00  0.00    +0.037 C 
ATOM      2  C   UNL     1     -10.049  -2.116  -0.118  0.00  0.00    +0.059 C 
ATOM      3  C   UNL     1      -8.576  -1.765  -0.125  0.00  0.00    +0.030 A 
ATOM      4  C   UNL     1      -7.946  -1.083   0.880  0.00  0.00    +0.029 A 
ATOM      5  C   UNL     1      -6.532  -0.695   0.885  0.00  0.00    +0.117 A 
ATOM      6  N   UNL     1      -5.918  -0.011   1.843  0.00  0.00    -0.236 NA
ATOM      7  S   UNL     1      -5.776  -1.293  -0.619  0.00  0.00    -0.032 S 
ATOM      8  S   UNL     1      -7.495  -2.176  -1.415  0.00  0.00    -0.052 S 
ATOM      9  C   UNL     1      -8.796  -0.697   2.071  0.00  0.00    +0.010 A 
ATOM     10  C   UNL     1      -8.309   0.187   3.019  0.00  0.00    +0.056 A 
ATOM     11  C   UNL     1      -9.111   0.533   4.098  0.00  0.00    +0.121 A 
ATOM     12  C   UNL     1     -10.382  -0.011   4.221  0.00  0.00    +0.047 A 
ATOM     13  C   UNL     1     -10.859  -0.910   3.284  0.00  0.00    +0.027 A 
ATOM     14  C   UNL     1     -10.062  -1.268   2.207  0.00  0.00    +0.036 A 
ATOM     15  N   UNL     1     -10.507  -2.213   1.274  0.00  0.00    -0.334 N 
ATOM     16  C   UNL     1     -10.841  -1.028  -0.844  0.00  0.00    +0.037 C 
ATOM     17  H   UNL     1     -11.109  -2.923   1.544  0.00  0.00    +0.147 HD
ENDROOT
BRANCH   6  18
ATOM     18  C   UNL     1      -4.611   0.360   1.688  0.00  0.00    +0.107 A 
ATOM     19  C   UNL     1      -4.291   1.530   0.997  0.00  0.00    +0.035 A 
ATOM     20  C   UNL     1      -2.970   1.901   0.844  0.00  0.00    +0.048 A 
ATOM     21  C   UNL     1      -1.958   1.113   1.375  0.00  0.00    +0.124 A 
ATOM     22  C   UNL     1      -2.267  -0.055   2.058  0.00  0.00    +0.093 A 
ATOM     23  C   UNL     1      -3.587  -0.433   2.223  0.00  0.00    +0.149 A 
BRANCH  23  24
ATOM     24  O   UNL     1      -3.890  -1.575   2.897  0.00  0.00    -0.493 OA
ATOM     25  C   UNL     1      -2.795  -2.333   3.415  0.00  0.00    +0.277 C 
ENDBRANCH  23  24
BRANCH  21  26
ATOM     26  O   UNL     1      -0.659   1.484   1.220  0.00  0.00    -0.495 OA
ATOM     27  C   UNL     1      -0.411   2.694   0.501  0.00  0.00    +0.277 C 
ENDBRANCH  21  26
ENDBRANCH   6  18
BRANCH  11  28
ATOM     28  O   UNL     1      -8.652   1.406   5.035  0.00  0.00    -0.495 OA
ATOM     29  C   UNL     1      -9.530   1.717   6.118  0.00  0.00    +0.277 C 
ENDBRANCH  11  28
TORSDOF 4
