REMARK  Name = ZINC63295062
REMARK  10 active torsions:
REMARK  status: ('A' for Active; 'I' for Inactive)
REMARK    1  A    between atoms: C_1  and  C_2
REMARK    2  A    between atoms: C_4  and  C_13
REMARK    3  A    between atoms: C_13  and  C_14
REMARK    4  A    between atoms: C_14  and  N_15
REMARK    5  A    between atoms: C_16  and  C_18
REMARK    6  A    between atoms: C_24  and  C_26
REMARK    7  A    between atoms: C_29  and  C_32
REMARK    8  A    between atoms: C_32  and  C_33
REMARK    9  A    between atoms: C_32  and  C_34
REMARK   10  A    between atoms: C_32  and  C_35
REMARK                            x       y       z     vdW  Elec       q    Type
REMARK                         _______ _______ _______ _____ _____    ______ ____
ROOT
ATOM      1  N   UNL     1      -5.454  -0.812   0.005  0.00  0.00    -0.315 N 
ATOM      2  C   UNL     1      -6.656  -1.391  -0.185  0.00  0.00    +0.216 C 
ATOM      3  O   UNL     1      -7.118  -2.123   0.664  0.00  0.00    -0.276 OA
ATOM      4  H   UNL     1      -5.085  -0.226  -0.674  0.00  0.00    +0.149 HD
ENDROOT
BRANCH   2   5
ATOM      5  C   UNL     1      -7.426  -1.128  -1.454  0.00  0.00    +0.078 C 
ATOM      6  C   UNL     1      -7.712   0.370  -1.576  0.00  0.00    +0.032 C 
ATOM      7  C   UNL     1      -8.464   0.638  -2.883  0.00  0.00    +0.109 C 
ATOM      8  N   UNL     1      -9.663  -0.210  -2.921  0.00  0.00    -0.297 N 
ATOM      9  C   UNL     1      -9.511  -1.658  -2.724  0.00  0.00    +0.109 C 
ATOM     10  C   UNL     1      -8.747  -1.900  -1.418  0.00  0.00    +0.032 C 
ATOM     11  C   UNL     1     -10.880   0.329  -3.132  0.00  0.00    +0.247 C 
ATOM     12  O   UNL     1     -11.855  -0.390  -3.230  0.00  0.00    -0.270 OA
BRANCH  11  13
ATOM     13  C   UNL     1     -11.029   1.796  -3.245  0.00  0.00    +0.037 A 
ATOM     14  C   UNL     1     -10.213   2.518  -4.117  0.00  0.00    +0.013 A 
ATOM     15  C   UNL     1     -10.357   3.886  -4.218  0.00  0.00    +0.005 A 
ATOM     16  C   UNL     1     -11.308   4.543  -3.456  0.00  0.00    -0.042 A 
ATOM     17  C   UNL     1     -12.119   3.833  -2.589  0.00  0.00    +0.005 A 
ATOM     18  C   UNL     1     -11.989   2.464  -2.483  0.00  0.00    +0.013 A 
BRANCH  16  19
ATOM     19  C   UNL     1     -11.459   6.038  -3.571  0.00  0.00    -0.013 C 
ATOM     20  C   UNL     1     -11.820   6.405  -5.012  0.00  0.00    +0.015 C 
ATOM     21  C   UNL     1     -12.569   6.512  -2.631  0.00  0.00    +0.015 C 
ATOM     22  C   UNL     1     -10.142   6.715  -3.187  0.00  0.00    +0.015 C 
ENDBRANCH  16  19
ENDBRANCH  11  13
ENDBRANCH   2   5
BRANCH   1  23
ATOM     23  C   UNL     1      -4.706  -1.067   1.239  0.00  0.00    +0.108 C 
BRANCH  23  24
ATOM     24  C   UNL     1      -3.385  -0.295   1.203  0.00  0.00    +0.052 C 
BRANCH  24  27
ATOM     25  C   UNL     1      -1.327   1.532   2.915  0.00  0.00    +0.035 C 
ATOM     26  C   UNL     1      -1.263   0.005   2.847  0.00  0.00    +0.103 C 
ATOM     27  C   UNL     1      -2.615  -0.558   2.472  0.00  0.00    -0.037 C 
ATOM     28  C   UNL     1      -2.994  -1.344   3.505  0.00  0.00    +0.002 A 
ATOM     29  C   UNL     1      -4.191  -2.159   3.747  0.00  0.00    +0.048 A 
ATOM     30  C   UNL     1      -4.289  -2.853   4.905  0.00  0.00    +0.124 A 
ATOM     31  C   UNL     1      -3.277  -2.813   5.877  0.00  0.00    +0.040 A 
ATOM     32  C   UNL     1      -2.149  -2.088   5.724  0.00  0.00    +0.029 A 
ATOM     33  C   UNL     1      -1.942  -1.319   4.546  0.00  0.00    +0.043 A 
ATOM     34  N   UNL     1      -0.949  -0.548   4.170  0.00  0.00    -0.378 N 
ATOM     35  F   UNL     1      -5.389  -3.604   5.131  0.00  0.00    -0.205 F 
ATOM     36  H   UNL     1      -0.143  -0.372   4.680  0.00  0.00    +0.160 HD
ENDBRANCH  24  27
ENDBRANCH  23  24
ENDBRANCH   1  23
TORSDOF 6
