REMARK  Name = ZINC15936739
REMARK  12 active torsions:
REMARK  status: ('A' for Active; 'I' for Inactive)
REMARK    1  A    between atoms: C_1  and  C_2
REMARK    2  A    between atoms: C_2  and  O_3
REMARK    3  A    between atoms: O_3  and  C_4
REMARK    4  A    between atoms: N_9  and  S_12
REMARK    5  A    between atoms: S_12  and  N_15
REMARK    6  A    between atoms: C_19  and  C_22
REMARK    7  A    between atoms: N_24  and  C_25
REMARK    8  A    between atoms: C_25  and  C_26
REMARK    9  A    between atoms: C_26  and  C_27
REMARK   10  A    between atoms: C_27  and  N_28
REMARK   11  A    between atoms: C_30  and  C_37
REMARK   12  A    between atoms: C_33  and  C_36
REMARK                            x       y       z     vdW  Elec       q    Type
REMARK                         _______ _______ _______ _____ _____    ______ ____
ROOT
ATOM      1  N   UNL     1       5.926  -3.996  -4.766  0.00  0.00    -0.166 NA
ATOM      2  C   UNL     1       6.875  -2.898  -4.998  0.00  0.00    +0.110 C 
ATOM      3  C   UNL     1       7.618  -2.605  -3.691  0.00  0.00    +0.018 C 
ATOM      4  C   UNL     1       8.261  -3.894  -3.174  0.00  0.00    +0.015 C 
ATOM      5  C   UNL     1       7.172  -4.930  -2.888  0.00  0.00    +0.091 C 
ATOM      6  C   UNL     1       6.423  -5.248  -4.181  0.00  0.00    +0.123 C 
ENDROOT
BRANCH   5   7
ATOM      7  C   UNL     1       7.804  -6.188  -2.348  0.00  0.00    +0.217 C 
ATOM      8  O   UNL     1       7.667  -7.237  -2.940  0.00  0.00    -0.275 OA
ATOM      9  N   UNL     1       8.520  -6.145  -1.207  0.00  0.00    -0.315 N 
ATOM     10  H   UNL     1       8.629  -5.306  -0.734  0.00  0.00    +0.149 HD
BRANCH   9  11
ATOM     11  C   UNL     1       9.134  -7.368  -0.682  0.00  0.00    +0.102 C 
BRANCH  11  12
ATOM     12  C   UNL     1       9.883  -7.046   0.612  0.00  0.00    +0.000 C 
BRANCH  12  13
ATOM     13  C   UNL     1      10.525  -8.322   1.161  0.00  0.00    -0.077 C 
BRANCH  13  14
ATOM     14  N   UNL     1      11.245  -8.014   2.404  0.00  0.00    +0.380 N 
ATOM     15  C   UNL     1      10.287  -7.580   3.427  0.00  0.00    -0.076 C 
ATOM     16  C   UNL     1      11.039  -7.179   4.698  0.00  0.00    -0.031 C 
ATOM     17  C   UNL     1      11.831  -8.383   5.216  0.00  0.00    +0.003 C 
ATOM     18  C   UNL     1      12.774  -8.874   4.114  0.00  0.00    -0.031 C 
ATOM     19  C   UNL     1      11.957  -9.211   2.865  0.00  0.00    -0.076 C 
ATOM     20  C   UNL     1      13.515 -10.124   4.594  0.00  0.00    +0.005 C 
ATOM     21  C   UNL     1      10.038  -6.729   5.764  0.00  0.00    +0.005 C 
ATOM     22  H   UNL     1      11.908  -7.274   2.232  0.00  0.00    -0.082 HD
ENDBRANCH  13  14
ENDBRANCH  12  13
ENDBRANCH  11  12
ENDBRANCH   9  11
ENDBRANCH   5   7
BRANCH   1  23
ATOM     23  S   UNL     1       4.325  -3.821  -5.152  0.00  0.00    +0.100 S 
ATOM     24  O   UNL     1       3.809  -5.131  -5.346  0.00  0.00    -0.141 OA
ATOM     25  O   UNL     1       4.256  -2.819  -6.156  0.00  0.00    -0.141 OA
BRANCH  23  31
ATOM     26  C   UNL     1       0.776  -1.798  -1.335  0.00  0.00    +0.403 C 
ATOM     27  O   UNL     1       0.312  -2.549  -0.500  0.00  0.00    -0.226 OA
ATOM     28  N   UNL     1       1.395  -2.298  -2.422  0.00  0.00    -0.265 N 
ATOM     29  C   UNL     1       1.966  -1.402  -3.437  0.00  0.00    +0.128 C 
ATOM     30  C   UNL     1       3.447  -1.754  -3.624  0.00  0.00    +0.129 C 
ATOM     31  N   UNL     1       3.564  -3.206  -3.816  0.00  0.00    -0.163 NA
ATOM     32  C   UNL     1       2.993  -4.103  -2.801  0.00  0.00    +0.129 C 
ATOM     33  C   UNL     1       1.517  -3.751  -2.611  0.00  0.00    +0.128 C 
BRANCH  26  34
ATOM     34  O   UNL     1       0.671  -0.465  -1.174  0.00  0.00    -0.451 OA
BRANCH  34  36
ATOM     35  C   UNL     1      -0.019   1.526   0.010  0.00  0.00    +0.048 C 
ATOM     36  C   UNL     1       0.002  -0.004   0.002  0.00  0.00    +0.230 C 
ENDBRANCH  34  36
ENDBRANCH  26  34
ENDBRANCH  23  31
ENDBRANCH   1  23
TORSDOF 9
