REMARK  Name = ZINC39593073
REMARK  8 active torsions:
REMARK  status: ('A' for Active; 'I' for Inactive)
REMARK    1  A    between atoms: C_4  and  C_7
REMARK    2  A    between atoms: C_12  and  N_13
REMARK    3  A    between atoms: C_14  and  C_16
REMARK    4  A    between atoms: C_16  and  S_17
REMARK    5  A    between atoms: S_17  and  C_18
REMARK    6  A    between atoms: C_22  and  C_26
REMARK    7  A    between atoms: N_24  and  N_25
REMARK    8  A    between atoms: C_29  and  C_32
REMARK                            x       y       z     vdW  Elec       q    Type
REMARK                         _______ _______ _______ _____ _____    ______ ____
ROOT
ATOM      1  C   UNL     1       1.157  -5.519   5.461  0.00  0.00    +0.272 C 
ATOM      2  N   UNL     1       0.185  -6.217   4.610  0.00  0.00    -0.159 NA
ATOM      3  N   UNL     1      -0.246  -7.232   5.165  0.00  0.00    -0.167 NA
ATOM      4  C   UNL     1       0.355  -7.408   6.493  0.00  0.00    +0.244 C 
ATOM      5  N   UNL     1       1.542  -6.513   6.495  0.00  0.00    -0.183 NA
ENDROOT
BRANCH   4   6
ATOM      6  C   UNL     1      -0.631  -6.987   7.585  0.00  0.00    +0.195 C 
ATOM      7  C   UNL     1      -1.852  -7.891   7.582  0.00  0.00    +0.035 C 
ATOM      8  C   UNL     1      -2.872  -7.053   7.313  0.00  0.00    +0.091 C 
ATOM      9  N   UNL     1      -2.415  -5.783   7.158  0.00  0.00    -0.154 NA
ATOM     10  N   UNL     1      -1.192  -5.658   7.294  0.00  0.00    -0.176 NA
BRANCH   8  11
ATOM     11  C   UNL     1      -4.294  -7.461   7.201  0.00  0.00    +0.002 A 
ATOM     12  C   UNL     1      -4.656  -8.794   7.384  0.00  0.00    +0.011 A 
ATOM     13  C   UNL     1      -5.980  -9.168   7.279  0.00  0.00    +0.020 A 
ATOM     14  C   UNL     1      -6.949  -8.221   6.992  0.00  0.00    +0.041 A 
ATOM     15  C   UNL     1      -6.594  -6.895   6.809  0.00  0.00    +0.020 A 
ATOM     16  C   UNL     1      -5.274  -6.510   6.919  0.00  0.00    +0.011 A 
ATOM     17 CL   UNL     1      -8.613  -8.698   6.860  0.00  0.00    -0.084 Cl
ENDBRANCH   8  11
ENDBRANCH   4   6
BRANCH   5  18
ATOM     18  N   UNL     1       2.740  -7.237   6.101  0.00  0.00    -0.263 NA
ATOM     19  H   UNL     1       3.540  -6.622   6.070  0.00  0.00    +0.137 HD
ATOM     20  H   UNL     1       2.909  -8.019   6.716  0.00  0.00    +0.137 HD
ENDBRANCH   5  18
BRANCH   1  21
ATOM     21  S   UNL     1       2.607  -5.025   4.489  0.00  0.00    -0.107 S 
BRANCH  21  22
ATOM     22  C   UNL     1       2.069  -3.519   3.633  0.00  0.00    +0.168 C 
BRANCH  22  24
ATOM     23  N   UNL     1       2.971  -1.960   1.938  0.00  0.00    -0.284 N 
ATOM     24  C   UNL     1       3.151  -3.066   2.686  0.00  0.00    +0.227 C 
ATOM     25  O   UNL     1       4.183  -3.697   2.598  0.00  0.00    -0.275 OA
ATOM     26  H   UNL     1       2.176  -1.417   2.058  0.00  0.00    +0.155 HD
BRANCH  23  32
ATOM     27  C   UNL     1       3.538  -0.976  -0.204  0.00  0.00    +0.003 A 
ATOM     28  C   UNL     1       4.501  -0.612  -1.141  0.00  0.00    +0.010 A 
ATOM     29  C   UNL     1       5.835  -0.867  -0.893  0.00  0.00    +0.001 A 
ATOM     30  C   UNL     1       6.220  -1.485   0.284  0.00  0.00    +0.002 A 
ATOM     31  C   UNL     1       5.273  -1.852   1.221  0.00  0.00    +0.024 A 
ATOM     32  C   UNL     1       3.929  -1.595   0.988  0.00  0.00    +0.041 A 
BRANCH  27  36
ATOM     33  C   UNL     1      -0.574  -0.196  -0.955  0.00  0.00    +0.000 A 
ATOM     34  C   UNL     1       0.359   0.813  -1.114  0.00  0.00    +0.001 A 
ATOM     35  C   UNL     1       1.695   0.565  -0.871  0.00  0.00    +0.008 A 
ATOM     36  C   UNL     1       2.103  -0.704  -0.466  0.00  0.00    -0.016 A 
ATOM     37  C   UNL     1       1.159  -1.717  -0.307  0.00  0.00    +0.008 A 
ATOM     38  C   UNL     1      -0.174  -1.458  -0.553  0.00  0.00    +0.001 A 
ENDBRANCH  27  36
ENDBRANCH  23  32
ENDBRANCH  22  24
ENDBRANCH  21  22
ENDBRANCH   1  21
TORSDOF 8
