REMARK  Name = ZINC65074860
REMARK  8 active torsions:
REMARK  status: ('A' for Active; 'I' for Inactive)
REMARK    1  A    between atoms: C_1  and  C_2
REMARK    2  A    between atoms: C_2  and  C_3
REMARK    3  A    between atoms: C_2  and  C_4
REMARK    4  A    between atoms: C_4  and  C_5
REMARK    5  A    between atoms: C_8  and  S_11
REMARK    6  A    between atoms: S_11  and  N_14
REMARK    7  A    between atoms: N_25  and  C_26
REMARK    8  A    between atoms: C_26  and  C_27
REMARK                            x       y       z     vdW  Elec       q    Type
REMARK                         _______ _______ _______ _____ _____    ______ ____
ROOT
ATOM      1  N   UNL     1       0.222  -7.009  -0.614  0.00  0.00    -0.176 NA
ATOM      2  C   UNL     1       0.896  -7.104  -1.916  0.00  0.00    +0.111 C 
ATOM      3  C   UNL     1       2.179  -6.269  -1.869  0.00  0.00    +0.047 C 
ATOM      4  C   UNL     1       3.037  -6.724  -0.684  0.00  0.00    +0.075 C 
ATOM      5  C   UNL     1       2.265  -6.498   0.619  0.00  0.00    +0.047 C 
ATOM      6  C   UNL     1       0.984  -7.330   0.601  0.00  0.00    +0.111 C 
ATOM      7  C   UNL     1       4.313  -5.932  -0.656  0.00  0.00    +0.089 C 
ATOM      8  N   UNL     1       5.463  -6.451  -0.443  0.00  0.00    -0.374 N 
ATOM      9  C   UNL     1       5.680  -7.875  -0.210  0.00  0.00    +0.129 C 
ATOM     10  C   UNL     1       4.359  -8.553   0.159  0.00  0.00    +0.102 C 
ATOM     11  N   UNL     1       3.338  -8.156  -0.827  0.00  0.00    -0.303 NA
ATOM     12  N   UNL     1       4.242  -4.581  -0.870  0.00  0.00    -0.329 N 
ATOM     13  H   UNL     1       2.503  -8.713  -0.728  0.00  0.00    +0.123 HD
ATOM     14  H   UNL     1       3.384  -4.160  -1.034  0.00  0.00    +0.147 HD
ATOM     15  H   UNL     1       6.235  -5.864  -0.435  0.00  0.00    +0.161 HD
ENDROOT
BRANCH   1  16
ATOM     16  S   UNL     1      -1.364  -6.544  -0.516  0.00  0.00    +0.061 S 
ATOM     17  O   UNL     1      -1.866  -7.064   0.707  0.00  0.00    -0.153 OA
ATOM     18  O   UNL     1      -1.955  -6.847  -1.772  0.00  0.00    -0.153 OA
BRANCH  16  22
ATOM     19  C   UNL     1      -1.416  -2.035  -0.119  0.00  0.00    -0.047 A 
ATOM     20  C   UNL     1      -1.450  -2.619  -1.372  0.00  0.00    +0.005 A 
ATOM     21  C   UNL     1      -1.434  -3.996  -1.493  0.00  0.00    +0.029 A 
ATOM     22  C   UNL     1      -1.384  -4.789  -0.361  0.00  0.00    +0.105 A 
ATOM     23  C   UNL     1      -1.349  -4.205   0.891  0.00  0.00    +0.029 A 
ATOM     24  C   UNL     1      -1.361  -2.828   1.012  0.00  0.00    +0.005 A 
BRANCH  19  25
ATOM     25  C   UNL     1      -1.433  -0.534   0.013  0.00  0.00    +0.038 C 
BRANCH  25  27
ATOM     26  C   UNL     1      -0.019   1.526   0.010  0.00  0.00    +0.007 C 
ATOM     27  C   UNL     1       0.002  -0.004   0.002  0.00  0.00    -0.013 C 
ATOM     28  C   UNL     1       0.742  -0.511   1.242  0.00  0.00    +0.007 C 
ENDBRANCH  25  27
ENDBRANCH  19  25
ENDBRANCH  16  22
ENDBRANCH   1  16
BRANCH  12  29
ATOM     29  C   UNL     1       5.463  -3.771  -0.850  0.00  0.00    +0.138 C 
BRANCH  29  30
ATOM     30  C   UNL     1       5.113  -2.329  -1.111  0.00  0.00    -0.030 A 
ATOM     31  C   UNL     1       5.084  -1.847  -2.406  0.00  0.00    +0.006 A 
ATOM     32  C   UNL     1       4.763  -0.525  -2.646  0.00  0.00    +0.020 A 
ATOM     33  C   UNL     1       4.471   0.318  -1.588  0.00  0.00    +0.041 A 
ATOM     34  C   UNL     1       4.500  -0.164  -0.292  0.00  0.00    +0.020 A 
ATOM     35  C   UNL     1       4.815  -1.488  -0.054  0.00  0.00    +0.006 A 
ATOM     36 CL   UNL     1       4.068   1.980  -1.888  0.00  0.00    -0.084 Cl
ENDBRANCH  29  30
ENDBRANCH  12  29
TORSDOF 6
