REMARK  Name = ZINC21097432
REMARK  6 active torsions:
REMARK  status: ('A' for Active; 'I' for Inactive)
REMARK    1  A    between atoms: C_1  and  C_2
REMARK    2  A    between atoms: C_15  and  C_17
REMARK    3  A    between atoms: C_17  and  S_18
REMARK    4  A    between atoms: S_18  and  C_19
REMARK    5  A    between atoms: C_22  and  C_25
REMARK    6  A    between atoms: N_23  and  N_24
REMARK                            x       y       z     vdW  Elec       q    Type
REMARK                         _______ _______ _______ _____ _____    ______ ____
ROOT
ATOM      1  C   UNL     1      -0.226   5.239   2.550  0.00  0.00    +0.173 C 
ENDROOT
BRANCH   1  15
ATOM      2  C   UNL     1       0.494   5.815  -1.988  0.00  0.00    +0.029 C 
ATOM      3  C   UNL     1       1.481   5.878  -0.820  0.00  0.00    +0.087 C 
ATOM      4  C   UNL     1       2.783   5.180  -1.217  0.00  0.00    +0.118 C 
ATOM      5  C   UNL     1       3.603   4.879   0.009  0.00  0.00    +0.219 C 
ATOM      6  O   UNL     1       4.578   5.556   0.262  0.00  0.00    -0.275 OA
ATOM      7  N   UNL     1       3.262   3.861   0.829  0.00  0.00    -0.284 N 
ATOM      8  C   UNL     1       2.090   3.130   0.604  0.00  0.00    +0.055 A 
ATOM      9  C   UNL     1       2.104   1.745   0.613  0.00  0.00    +0.025 A 
ATOM     10  C   UNL     1       0.927   1.044   0.420  0.00  0.00    +0.002 A 
ATOM     11  C   UNL     1      -0.263   1.722   0.222  0.00  0.00    +0.002 A 
ATOM     12  C   UNL     1      -0.285   3.105   0.215  0.00  0.00    +0.025 A 
ATOM     13  C   UNL     1       0.892   3.814   0.394  0.00  0.00    +0.058 A 
ATOM     14  N   UNL     1       0.896   5.214   0.346  0.00  0.00    -0.266 N 
ATOM     15  C   UNL     1       0.372   5.937   1.356  0.00  0.00    +0.230 C 
ATOM     16  O   UNL     1       0.381   7.149   1.303  0.00  0.00    -0.274 OA
ATOM     17  H   UNL     1       3.907   3.601   1.681  0.00  0.00    +0.155 HD
ENDBRANCH   1  15
BRANCH   1  18
ATOM     18  S   UNL     1      -0.841   6.473   3.724  0.00  0.00    -0.075 S 
BRANCH  18  19
ATOM     19  C   UNL     1      -1.467   5.411   4.983  0.00  0.00    +0.209 A 
ATOM     20  N   UNL     1      -1.450   4.097   4.975  0.00  0.00    -0.121 NA
ATOM     21  N   UNL     1      -1.985   3.642   6.051  0.00  0.00    -0.127 NA
ATOM     22  C   UNL     1      -2.385   4.637   6.808  0.00  0.00    +0.184 A 
ATOM     23  N   UNL     1      -2.065   5.801   6.148  0.00  0.00    -0.224 N 
BRANCH  22  24
ATOM     24  C   UNL     1      -3.052   4.527   8.123  0.00  0.00    +0.056 A 
ATOM     25  C   UNL     1      -4.183   5.295   8.401  0.00  0.00    +0.014 A 
ATOM     26  C   UNL     1      -4.804   5.184   9.628  0.00  0.00    +0.001 A 
ATOM     27  C   UNL     1      -4.303   4.322  10.587  0.00  0.00    +0.003 A 
ATOM     28  C   UNL     1      -3.179   3.561  10.322  0.00  0.00    +0.039 A 
ATOM     29  C   UNL     1      -2.549   3.658   9.095  0.00  0.00    +0.134 A 
ATOM     30  F   UNL     1      -1.451   2.915   8.837  0.00  0.00    -0.205 F 
ENDBRANCH  22  24
BRANCH  23  31
ATOM     31  N   UNL     1      -2.298   7.079   6.569  0.00  0.00    -0.295 N 
ATOM     32  H   UNL     1      -2.792   7.258   7.535  0.00  0.00    +0.163 HD
ATOM     33  H   UNL     1      -1.991   7.929   5.942  0.00  0.00    +0.163 HD
ENDBRANCH  23  31
ENDBRANCH  18  19
ENDBRANCH   1  18
TORSDOF 5
