REMARK  Name = ZINC53994127
REMARK  4 active torsions:
REMARK  status: ('A' for Active; 'I' for Inactive)
REMARK    1  A    between atoms: C_4  and  C_7
REMARK    2  A    between atoms: C_9  and  C_22
REMARK    3  A    between atoms: C_10  and  N_12
REMARK    4  A    between atoms: C_13  and  C_14
REMARK                            x       y       z     vdW  Elec       q    Type
REMARK                         _______ _______ _______ _____ _____    ______ ____
ROOT
ATOM      1  C   UNL     1       3.713  -0.616  -0.037  0.00  0.00    +0.111 A 
ATOM      2  N   UNL     1       3.922  -1.922  -0.062  0.00  0.00    -0.236 NA
ATOM      3  C   UNL     1       5.139  -2.428  -0.078  0.00  0.00    +0.111 A 
ATOM      4  C   UNL     1       6.230  -1.547  -0.068  0.00  0.00    +0.131 A 
ATOM      5  S   UNL     1       5.381   0.026  -0.043  0.00  0.00    -0.047 S 
ENDROOT
BRANCH   1   9
ATOM      6  C   UNL     1       0.033   1.502   0.020  0.00  0.00    +0.000 A 
ATOM      7  C   UNL     1       1.228   2.198   0.021  0.00  0.00    +0.001 A 
ATOM      8  C   UNL     1       2.428   1.517   0.002  0.00  0.00    +0.010 A 
ATOM      9  C   UNL     1       2.433   0.120  -0.017  0.00  0.00    +0.007 A 
ATOM     10  C   UNL     1       1.223  -0.576  -0.017  0.00  0.00    +0.010 A 
ATOM     11  C   UNL     1       0.031   0.118   0.002  0.00  0.00    +0.001 A 
ENDBRANCH   1   9
BRANCH   4  12
ATOM     12  N   UNL     1       7.554  -1.813  -0.080  0.00  0.00    -0.223 NA
ATOM     13  C   UNL     1       8.227  -1.856   1.049  0.00  0.00    +0.125 C 
ATOM     14  N   UNL     1       7.562  -1.743   2.253  0.00  0.00    -0.343 N 
ATOM     15  H   UNL     1       6.592  -1.712   2.270  0.00  0.00    +0.144 HD
ATOM     16  H   UNL     1       8.063  -1.695   3.081  0.00  0.00    +0.144 HD
BRANCH  13  17
ATOM     17  C   UNL     1       9.692  -2.026   1.029  0.00  0.00    +0.015 A 
ATOM     18  C   UNL     1      10.370  -2.136  -0.188  0.00  0.00    +0.013 A 
ATOM     19  C   UNL     1      11.739  -2.295  -0.200  0.00  0.00    +0.020 A 
ATOM     20  C   UNL     1      12.444  -2.346   0.992  0.00  0.00    +0.041 A 
ATOM     21  C   UNL     1      11.778  -2.239   2.202  0.00  0.00    +0.020 A 
ATOM     22  C   UNL     1      10.410  -2.073   2.228  0.00  0.00    +0.013 A 
ATOM     23 CL   UNL     1      14.168  -2.548   0.969  0.00  0.00    -0.084 Cl
ENDBRANCH  13  17
ENDBRANCH   4  12
BRANCH   3  24
ATOM     24  C   UNL     1       5.349  -3.888  -0.104  0.00  0.00    +0.040 A 
ATOM     25  C   UNL     1       4.609  -4.878   0.488  0.00  0.00    +0.018 A 
ATOM     26  C   UNL     1       5.003  -6.189   0.321  0.00  0.00    +0.008 A 
ATOM     27  C   UNL     1       6.106  -6.458  -0.422  0.00  0.00    +0.046 A 
ATOM     28  S   UNL     1       6.628  -4.826  -0.924  0.00  0.00    -0.095 S 
ENDBRANCH   3  24
TORSDOF 4
