REMARK  Name = ZINC63349726
REMARK  7 active torsions:
REMARK  status: ('A' for Active; 'I' for Inactive)
REMARK    1  A    between atoms: C_1  and  O_2
REMARK    2  A    between atoms: O_2  and  C_3
REMARK    3  A    between atoms: C_6  and  C_23
REMARK    4  A    between atoms: C_8  and  C_9
REMARK    5  A    between atoms: C_9  and  N_10
REMARK    6  A    between atoms: N_13  and  C_16
REMARK    7  A    between atoms: CA_36  and  C_39
REMARK                            x       y       z     vdW  Elec       q    Type
REMARK                         _______ _______ _______ _____ _____    ______ ____
ROOT
ATOM      1  C   UNL     1       0.649  -0.110   1.296  0.00  0.00    +0.121 A 
ATOM      2  C   UNL     1       1.517   0.614   2.100  0.00  0.00    +0.046 A 
ATOM      3  C   UNL     1       2.139   0.001   3.171  0.00  0.00    +0.009 A 
ATOM      4  C   UNL     1       1.897  -1.333   3.441  0.00  0.00    -0.028 A 
ATOM      5  C   UNL     1       1.032  -2.057   2.641  0.00  0.00    +0.010 A 
ATOM      6  C   UNL     1       0.404  -1.447   1.573  0.00  0.00    -0.022 A 
ENDROOT
BRANCH   4   7
ATOM      7  C   UNL     1       2.576  -2.000   4.609  0.00  0.00    +0.111 C 
ATOM      8  C   UNL     1       2.906  -0.955   5.678  0.00  0.00    +0.128 C 
ATOM      9  C   UNL     1       3.952  -0.032   5.064  0.00  0.00    -0.035 C 
ATOM     10  C   UNL     1       3.479   1.201   5.182  0.00  0.00    -0.001 A 
ATOM     11  C   UNL     1       4.064   2.512   4.856  0.00  0.00    +0.010 A 
ATOM     12  C   UNL     1       3.279   3.595   5.098  0.00  0.00    +0.001 A 
ATOM     13  C   UNL     1       1.987   3.507   5.625  0.00  0.00    +0.002 A 
ATOM     14  C   UNL     1       1.373   2.345   5.958  0.00  0.00    +0.026 A 
ATOM     15  C   UNL     1       2.100   1.136   5.755  0.00  0.00    +0.043 A 
ATOM     16  N   UNL     1       1.759  -0.112   6.013  0.00  0.00    -0.376 N 
ATOM     17  C   UNL     1       5.191  -0.574   4.395  0.00  0.00    +0.063 C 
ATOM     18  CA  UNL     1       4.715  -1.690   3.447  0.00  0.00    +0.172 C 
ATOM     19  N   UNL     1       3.835  -2.619   4.163  0.00  0.00    -0.295 NA
ATOM     20  H   UNL     1       4.318  -3.052   4.936  0.00  0.00    +0.123 HD
ATOM     21  H   UNL     1       0.907  -0.423   6.358  0.00  0.00    +0.160 HD
BRANCH  18  22
ATOM     22  C   UNL     1       3.959  -1.079   2.295  0.00  0.00    +0.373 C 
ATOM     23  O   UNL     1       4.117   0.098   2.019  0.00  0.00    -0.245 OA
ATOM     24  OXT UNL     1       3.191  -1.761   1.639  0.00  0.00    -0.245 OA
ENDBRANCH  18  22
ENDBRANCH   4   7
BRANCH   1  26
ATOM     25  C   UNL     1       0.335   1.870   0.018  0.00  0.00    +0.277 C 
ATOM     26  O   UNL     1       0.035   0.491   0.243  0.00  0.00    -0.495 OA
ENDBRANCH   1  26
BRANCH   6  27
ATOM     27  C   UNL     1      -0.543  -2.235   0.705  0.00  0.00    -0.039 C 
BRANCH  27  28
ATOM     28  N   UNL     1      -1.927  -1.849   1.014  0.00  0.00    +0.384 N 
ATOM     29  C   UNL     1      -2.242  -2.231   2.396  0.00  0.00    -0.059 C 
ATOM     30  C   UNL     1      -3.644  -1.728   2.757  0.00  0.00    +0.086 C 
ATOM     31  N   UNL     1      -4.594  -2.236   1.755  0.00  0.00    -0.331 N 
ATOM     32  C   UNL     1      -4.272  -2.040   0.333  0.00  0.00    +0.086 C 
ATOM     33  C   UNL     1      -2.841  -2.528   0.086  0.00  0.00    -0.059 C 
ATOM     34  H   UNL     1      -2.027  -0.851   0.912  0.00  0.00    -0.081 HD
BRANCH  31  35
ATOM     35  C   UNL     1      -5.769  -2.887   2.143  0.00  0.00    +0.065 A 
ATOM     36  C   UNL     1      -6.933  -2.159   2.346  0.00  0.00    +0.026 A 
ATOM     37  C   UNL     1      -8.093  -2.805   2.729  0.00  0.00    +0.002 A 
ATOM     38  C   UNL     1      -8.095  -4.175   2.912  0.00  0.00    +0.003 A 
ATOM     39  C   UNL     1      -6.938  -4.905   2.712  0.00  0.00    +0.040 A 
ATOM     40  C   UNL     1      -5.775  -4.266   2.322  0.00  0.00    +0.144 A 
ATOM     41  F   UNL     1      -4.646  -4.980   2.121  0.00  0.00    -0.204 F 
ENDBRANCH  31  35
ENDBRANCH  27  28
ENDBRANCH   6  27
TORSDOF 6
