REMARK  Name = ZINC10929914
REMARK  15 active torsions:
REMARK  status: ('A' for Active; 'I' for Inactive)
REMARK    1  A    between atoms: C_1  and  C_2
REMARK    2  A    between atoms: C_2  and  C_3
REMARK    3  A    between atoms: C_2  and  N_68
REMARK    4  A    between atoms: C_4  and  C_5
REMARK    5  A    between atoms: C_4  and  N_68
REMARK    6  A    between atoms: C_11  and  C_12
REMARK    7  A    between atoms: C_11  and  N_68
REMARK    8  A    between atoms: N_14  and  C_15
REMARK    9  A    between atoms: N_14  and  C_19
REMARK   10  A    between atoms: C_15  and  C_16
REMARK   11  A    between atoms: C_16  and  O_17
REMARK   12  A    between atoms: O_17  and  C_18
REMARK   13  A    between atoms: C_20  and  N_35
REMARK   14  A    between atoms: N_21  and  C_28
REMARK   15  A    between atoms: C_28  and  C_29
REMARK                            x       y       z     vdW  Elec       q    Type
REMARK                         _______ _______ _______ _____ _____    ______ ____
ROOT
ATOM      1  C   UNL     1       1.279  -2.063   2.997  0.00  0.00    +0.204 C 
ATOM      2  O   UNL     1       0.948  -1.378   3.942  0.00  0.00    -0.277 OA
ATOM      3  N   UNL     1       2.217  -3.020   3.152  0.00  0.00    -0.264 N 
ENDROOT
BRANCH   3   4
ATOM      4  C   UNL     1       2.733  -3.301   4.435  0.00  0.00    +0.140 A 
ATOM      5  C   UNL     1       3.471  -2.356   5.117  0.00  0.00    +0.128 A 
ATOM      6  N   UNL     1       3.955  -2.658   6.369  0.00  0.00    -0.276 N 
ATOM      7  C   UNL     1       3.722  -3.864   6.916  0.00  0.00    +0.331 A 
ATOM      8  O   UNL     1       4.163  -4.114   8.022  0.00  0.00    -0.246 OA
ATOM      9  N   UNL     1       3.009  -4.800   6.264  0.00  0.00    -0.273 N 
ATOM     10  H   UNL     1       2.849  -5.688   6.694  0.00  0.00    +0.173 HD
ATOM     11  C   UNL     1       2.507  -4.553   5.038  0.00  0.00    +0.277 A 
ATOM     12  O   UNL     1       1.862  -5.408   4.455  0.00  0.00    -0.266 OA
BRANCH   5  13
ATOM     13  N   UNL     1       3.715  -1.126   4.555  0.00  0.00    -0.343 N 
ATOM     14  H   UNL     1       3.342  -0.906   3.688  0.00  0.00    +0.144 HD
ATOM     15  H   UNL     1       4.261  -0.477   5.026  0.00  0.00    +0.144 HD
ENDBRANCH   5  13
BRANCH   6  16
ATOM     16  C   UNL     1       4.736  -1.662   7.107  0.00  0.00    +0.163 C 
BRANCH  16  17
ATOM     17  C   UNL     1       6.197  -1.819   6.771  0.00  0.00    -0.028 A 
ATOM     18  C   UNL     1       6.994  -2.657   7.528  0.00  0.00    +0.005 A 
ATOM     19  C   UNL     1       8.332  -2.804   7.217  0.00  0.00    +0.000 A 
ATOM     20  C   UNL     1       8.877  -2.105   6.156  0.00  0.00    +0.000 A 
ATOM     21  C   UNL     1       8.081  -1.263   5.403  0.00  0.00    +0.000 A 
ATOM     22  C   UNL     1       6.741  -1.119   5.710  0.00  0.00    +0.005 A 
ENDBRANCH  16  17
ENDBRANCH   6  16
ENDBRANCH   3   4
BRANCH   1  23
ATOM     23  C   UNL     1       0.641  -1.844   1.649  0.00  0.00    +0.020 C 
BRANCH  23  24
ATOM     24  N   UNL     1      -0.450  -0.858   1.797  0.00  0.00    +0.390 N 
ATOM     25  H   UNL     1      -0.173  -0.157   2.494  0.00  0.00    -0.080 HD
BRANCH  24  27
ATOM     26  C   UNL     1      -2.023  -2.710   1.342  0.00  0.00    -0.013 C 
ATOM     27  C   UNL     1      -1.681  -1.533   2.258  0.00  0.00    -0.074 C 
ATOM     28  C   UNL     1      -1.461  -2.044   3.683  0.00  0.00    -0.013 C 
ENDBRANCH  24  27
BRANCH  24  29
ATOM     29  C   UNL     1      -0.698  -0.181   0.507  0.00  0.00    -0.042 C 
BRANCH  29  30
ATOM     30  C   UNL     1      -1.526   1.053   0.760  0.00  0.00    -0.064 A 
ATOM     31  C   UNL     1      -2.897   1.010   0.594  0.00  0.00    +0.002 A 
ATOM     32  C   UNL     1      -3.657   2.140   0.830  0.00  0.00    +0.000 A 
ATOM     33  C   UNL     1      -3.045   3.316   1.222  0.00  0.00    +0.000 A 
ATOM     34  C   UNL     1      -1.672   3.360   1.382  0.00  0.00    +0.000 A 
ATOM     35  C   UNL     1      -0.913   2.228   1.151  0.00  0.00    +0.002 A 
ENDBRANCH  29  30
ENDBRANCH  24  29
ENDBRANCH  23  24
ENDBRANCH   1  23
BRANCH   3  36
ATOM     36  C   UNL     1       2.701  -3.767   1.988  0.00  0.00    +0.142 C 
BRANCH  36  37
ATOM     37  C   UNL     1       3.966  -3.100   1.444  0.00  0.00    +0.178 C 
BRANCH  37  38
ATOM     38  O   UNL     1       5.010  -3.195   2.415  0.00  0.00    -0.381 OA
ATOM     39  C   UNL     1       6.243  -2.599   2.004  0.00  0.00    +0.194 C 
ENDBRANCH  37  38
ENDBRANCH  36  37
ENDBRANCH   3  36
TORSDOF 12
