REMARK  Name = ZINC50867806
REMARK  1 active torsions:
REMARK  status: ('A' for Active; 'I' for Inactive)
REMARK    1  A    between atoms: C_4  and  C_8
REMARK                            x       y       z     vdW  Elec       q    Type
REMARK                         _______ _______ _______ _____ _____    ______ ____
ROOT
ATOM      1  C   UNL     1       3.699  -0.689  -0.038  0.00  0.00    +0.095 A 
ATOM      2  C   UNL     1       3.723  -2.088  -0.052  0.00  0.00    +0.033 A 
ATOM      3  C   UNL     1       4.956  -2.715  -0.068  0.00  0.00    +0.047 A 
ATOM      4  C   UNL     1       6.099  -1.914  -0.069  0.00  0.00    +0.139 A 
ATOM      5  N   UNL     1       5.981  -0.594  -0.056  0.00  0.00    -0.134 NA
ATOM      6  N   UNL     1       4.838  -0.010  -0.047  0.00  0.00    -0.147 NA
ATOM      7  N   UNL     1       7.360  -2.500  -0.084  0.00  0.00    -0.342 N 
ATOM      8  H   UNL     1       7.445  -3.466  -0.094  0.00  0.00    +0.144 HD
ATOM      9  H   UNL     1       8.153  -1.942  -0.085  0.00  0.00    +0.144 HD
ENDROOT
BRANCH   1  13
ATOM     10  C   UNL     1      -0.017   1.380   0.010  0.00  0.00    +0.021 A 
ATOM     11  C   UNL     1       1.168   2.093   0.002  0.00  0.00    +0.022 A 
ATOM     12  C   UNL     1       2.378   1.427  -0.013  0.00  0.00    +0.050 A 
ATOM     13  C   UNL     1       2.403   0.032  -0.021  0.00  0.00    +0.022 A 
ATOM     14  C   UNL     1       1.206  -0.681  -0.013  0.00  0.00    +0.031 A 
ATOM     15  C   UNL     1       0.002  -0.004   0.002  0.00  0.00    +0.042 A 
ATOM     16 CL   UNL     1      -1.490  -0.891   0.012  0.00  0.00    -0.084 Cl
ATOM     17 CL   UNL     1       3.865   2.323  -0.024  0.00  0.00    -0.083 Cl
ENDBRANCH   1  13
TORSDOF 1
