REMARK  Name = ZINC35703228
REMARK  18 active torsions:
REMARK  status: ('A' for Active; 'I' for Inactive)
REMARK    1  A    between atoms: C_1  and  C_2
REMARK    2  A    between atoms: C_2  and  C_3
REMARK    3  A    between atoms: C_3  and  C_4
REMARK    4  A    between atoms: C_4  and  C_5
REMARK    5  A    between atoms: C_8  and  C_11
REMARK    6  A    between atoms: C_11  and  O_13
REMARK    7  A    between atoms: O_13  and  C_14
REMARK    8  A    between atoms: C_17  and  C_20
REMARK    9  A    between atoms: C_21  and  N_30
REMARK   10  A    between atoms: C_25  and  C_29
REMARK   11  A    between atoms: N_30  and  C_31
REMARK   12  A    between atoms: C_31  and  C_32
REMARK   13  A    between atoms: C_31  and  C_33
REMARK   14  A    between atoms: C_31  and  C_34
REMARK   15  A    between atoms: C_34  and  C_35
REMARK   16  A    between atoms: C_35  and  C_36
REMARK   17  A    between atoms: C_35  and  C_37
REMARK   18  A    between atoms: C_35  and  C_38
REMARK                            x       y       z     vdW  Elec       q    Type
REMARK                         _______ _______ _______ _____ _____    ______ ____
ROOT
ATOM      1  C   UNL     1       9.933  -8.059 -12.182  0.00  0.00    +0.087 A 
ATOM      2  C   UNL     1       9.387  -8.990 -11.323  0.00  0.00    +0.129 A 
ATOM      3  N   UNL     1       9.109 -10.102 -12.068  0.00  0.00    -0.289 N 
ATOM      4  C   UNL     1       8.565 -11.316 -11.745  0.00  0.00    +0.094 A 
ATOM      5  C   UNL     1       8.395 -12.264 -12.688  0.00  0.00    +0.021 A 
ATOM      6  C   UNL     1       8.774 -12.018 -14.020  0.00  0.00    -0.046 A 
ATOM      7  C   UNL     1       9.315 -10.818 -14.358  0.00  0.00    +0.048 A 
ATOM      8  C   UNL     1       9.489  -9.832 -13.363  0.00  0.00    +0.117 A 
ATOM      9  N   UNL     1       9.975  -8.603 -13.412  0.00  0.00    -0.338 N 
ATOM     10  C   UNL     1       8.581 -13.082 -15.069  0.00  0.00    +0.044 C 
ATOM     11  H   UNL     1      10.311  -8.163 -14.209  0.00  0.00    +0.167 HD
ENDROOT
BRANCH   1  15
ATOM     12  C   UNL     1      11.237  -4.151 -11.130  0.00  0.00    +0.132 A 
ATOM     13  C   UNL     1      10.393  -4.330 -12.216  0.00  0.00    +0.047 A 
ATOM     14  C   UNL     1       9.967  -5.596 -12.561  0.00  0.00    +0.013 A 
ATOM     15  C   UNL     1      10.388  -6.697 -11.815  0.00  0.00    +0.002 A 
ATOM     16  C   UNL     1      11.237  -6.514 -10.724  0.00  0.00    +0.013 A 
ATOM     17  C   UNL     1      11.662  -5.246 -10.389  0.00  0.00    +0.047 A 
BRANCH  12  18
ATOM     18  O   UNL     1      11.654  -2.902 -10.793  0.00  0.00    -0.422 OA
BRANCH  18  19
ATOM     19  C   UNL     1      10.777  -2.088 -10.175  0.00  0.00    +0.344 C 
ATOM     20  O   UNL     1       9.627  -2.443 -10.015  0.00  0.00    -0.245 OA
BRANCH  19  24
ATOM     21  C   UNL     1      12.035   1.722  -8.782  0.00  0.00    -0.047 A 
ATOM     22  C   UNL     1      10.724   1.320  -8.599  0.00  0.00    +0.004 A 
ATOM     23  C   UNL     1      10.308   0.084  -9.049  0.00  0.00    +0.015 A 
ATOM     24  C   UNL     1      11.215  -0.762  -9.691  0.00  0.00    +0.059 A 
ATOM     25  C   UNL     1      12.537  -0.351  -9.872  0.00  0.00    +0.015 A 
ATOM     26  C   UNL     1      12.937   0.890  -9.422  0.00  0.00    +0.004 A 
BRANCH  21  27
ATOM     27  C   UNL     1      12.482   3.074  -8.288  0.00  0.00    +0.035 C 
BRANCH  27  28
ATOM     28  C   UNL     1      12.271   4.115  -9.389  0.00  0.00    +0.004 C 
BRANCH  28  30
ATOM     29  C   UNL     1      12.513   6.528  -9.989  0.00  0.00    +0.004 C 
ATOM     30  C   UNL     1      12.724   5.487  -8.888  0.00  0.00    -0.003 C 
ENDBRANCH  28  30
ENDBRANCH  27  28
ENDBRANCH  21  27
ENDBRANCH  19  24
ENDBRANCH  18  19
ENDBRANCH  12  18
ENDBRANCH   1  15
BRANCH   2  31
ATOM     31  N   UNL     1       9.161  -8.827  -9.955  0.00  0.00    -0.323 N 
ATOM     32  H   UNL     1       9.327  -7.969  -9.535  0.00  0.00    +0.148 HD
BRANCH  31  33
ATOM     33  C   UNL     1       8.673  -9.953  -9.155  0.00  0.00    +0.028 C 
ATOM     34  C   UNL     1       7.266 -10.336  -9.618  0.00  0.00    +0.031 C 
ATOM     35  C   UNL     1       9.611 -11.148  -9.330  0.00  0.00    +0.031 C 
BRANCH  33  36
ATOM     36  C   UNL     1       8.631  -9.549  -7.679  0.00  0.00    +0.031 C 
BRANCH  36  37
ATOM     37  C   UNL     1       9.789  -8.596  -7.378  0.00  0.00    -0.036 C 
ATOM     38  C   UNL     1       9.346  -7.155  -7.643  0.00  0.00    +0.010 C 
ATOM     39  C   UNL     1      10.202  -8.741  -5.912  0.00  0.00    +0.010 C 
ATOM     40  C   UNL     1      10.978  -8.937  -8.279  0.00  0.00    +0.010 C 
ENDBRANCH  36  37
ENDBRANCH  33  36
ENDBRANCH  31  33
ENDBRANCH   2  31
TORSDOF 11
