REMARK  Name = ZINC57991814
REMARK  1 active torsions:
REMARK  status: ('A' for Active; 'I' for Inactive)
REMARK    1  A    between atoms: C_8  and  C_17
REMARK                            x       y       z     vdW  Elec       q    Type
REMARK                         _______ _______ _______ _____ _____    ______ ____
ROOT
ATOM      1  C   UNL     1       0.028   1.388  -0.017  0.00  0.00    +0.000 A 
ATOM      2  C   UNL     1       1.224   2.082  -0.028  0.00  0.00    +0.002 A 
ATOM      3  C   UNL     1       2.424   1.402  -0.040  0.00  0.00    +0.023 A 
ATOM      4  C   UNL     1       2.439   0.009  -0.040  0.00  0.00    +0.039 A 
ATOM      5  C   UNL     1       1.230  -0.678  -0.029  0.00  0.00    +0.004 A 
ATOM      6  C   UNL     1       0.034   0.004  -0.017  0.00  0.00    +0.008 A 
ATOM      7  C   UNL     1       1.584  -2.141  -0.032  0.00  0.00    +0.137 C 
ATOM      8  C   UNL     1       1.037  -2.838   1.223  0.00  0.00    +0.110 C 
ATOM      9  C   UNL     1      -0.247  -3.536   0.698  0.00  0.00    +0.034 C 
ATOM     10  C   UNL     1       0.177  -3.942  -0.734  0.00  0.00    +0.059 C 
ATOM     11  N   UNL     1       1.030  -2.821  -1.210  0.00  0.00    -0.282 NA
ATOM     12  C   UNL     1       0.123  -1.901  -1.940  0.00  0.00    +0.086 C 
ATOM     13  C   UNL     1      -0.859  -2.852  -2.667  0.00  0.00    +0.017 C 
ATOM     14  C   UNL     1      -1.068  -4.004  -1.633  0.00  0.00    +0.020 C 
ATOM     15  C   UNL     1       3.091  -2.172  -0.045  0.00  0.00    +0.243 C 
ATOM     16  O   UNL     1       3.794  -3.160  -0.050  0.00  0.00    -0.273 OA
ATOM     17  N   UNL     1       3.506  -0.892  -0.049  0.00  0.00    -0.283 N 
ATOM     18  H   UNL     1       4.439  -0.625  -0.058  0.00  0.00    +0.155 HD
ENDROOT
BRANCH   8  19
ATOM     19  C   UNL     1       2.023  -3.851   1.744  0.00  0.00    +0.221 C 
ATOM     20  O   UNL     1       2.303  -4.825   1.078  0.00  0.00    -0.275 OA
ATOM     21  N   UNL     1       2.596  -3.674   2.952  0.00  0.00    -0.301 N 
ATOM     22  C   UNL     1       2.150  -2.573   3.776  0.00  0.00    +0.108 C 
ATOM     23  C   UNL     1       2.988  -1.311   3.454  0.00  0.00    +0.019 C 
ATOM     24  C   UNL     1       4.358  -1.462   3.966  0.00  0.00    +0.002 C 
ATOM     25  C   UNL     1       5.143  -2.608   3.334  0.00  0.00    +0.002 C 
ATOM     26  C   UNL     1       4.828  -3.891   4.062  0.00  0.00    +0.019 C 
ATOM     27  C   UNL     1       3.648  -4.616   3.381  0.00  0.00    +0.108 C 
ENDBRANCH   8  19
TORSDOF 1
