REMARK  Name = ZINC13520555
REMARK  14 active torsions:
REMARK  status: ('A' for Active; 'I' for Inactive)
REMARK    1  A    between atoms: C_3  and  O_10
REMARK    2  A    between atoms: C_6  and  N_7
REMARK    3  A    between atoms: O_10  and  C_11
REMARK    4  A    between atoms: C_13  and  O_42
REMARK    5  A    between atoms: C_15  and  O_41
REMARK    6  A    between atoms: C_17  and  O_24
REMARK    7  A    between atoms: C_19  and  C_22
REMARK    8  A    between atoms: C_22  and  O_23
REMARK    9  A    between atoms: O_24  and  C_25
REMARK   10  A    between atoms: C_27  and  O_40
REMARK   11  A    between atoms: C_29  and  O_39
REMARK   12  A    between atoms: C_31  and  O_38
REMARK   13  A    between atoms: C_33  and  C_36
REMARK   14  A    between atoms: C_36  and  O_37
REMARK                            x       y       z     vdW  Elec       q    Type
REMARK                         _______ _______ _______ _____ _____    ______ ____
ROOT
ATOM      1  C   UNL     1       1.359   1.854  -5.561  0.00  0.00    +0.339 C 
ATOM      2  C   UNL     1       0.223   1.685  -4.550  0.00  0.00    +0.214 C 
ATOM      3  C   UNL     1      -0.372   3.059  -4.227  0.00  0.00    +0.180 C 
ATOM      4  C   UNL     1       0.740   3.974  -3.704  0.00  0.00    +0.184 C 
ATOM      5  C   UNL     1       1.857   4.055  -4.748  0.00  0.00    +0.179 C 
ATOM      6  O   UNL     1       2.344   2.741  -5.025  0.00  0.00    -0.331 OA
ENDROOT
BRANCH   3   7
ATOM      7  O   UNL     1      -0.940   3.625  -5.410  0.00  0.00    -0.386 OA
ATOM      8  H   UNL     1      -1.651   3.096  -5.796  0.00  0.00    +0.210 HD
ENDBRANCH   3   7
BRANCH   2   9
ATOM      9  O   UNL     1      -0.791   0.845  -5.107  0.00  0.00    -0.383 OA
ATOM     10  H   UNL     1      -0.482  -0.041  -5.340  0.00  0.00    +0.210 HD
ENDBRANCH   2   9
BRANCH   1  11
ATOM     11  O   UNL     1       0.840   2.398  -6.776  0.00  0.00    -0.461 OA
BRANCH  11  14
ATOM     12  C   UNL     1       2.083   2.954 -10.149  0.00  0.00    +0.036 A 
ATOM     13  C   UNL     1       1.234   2.933  -9.060  0.00  0.00    +0.048 A 
ATOM     14  C   UNL     1       1.673   2.419  -7.849  0.00  0.00    +0.124 A 
ATOM     15  C   UNL     1       2.967   1.932  -7.733  0.00  0.00    +0.048 A 
ATOM     16  C   UNL     1       3.811   1.950  -8.827  0.00  0.00    +0.036 A 
ATOM     17  C   UNL     1       3.371   2.463 -10.033  0.00  0.00    +0.126 A 
BRANCH  17  18
ATOM     18  N   UNL     1       4.279   2.485 -11.201  0.00  0.00    +0.056 N 
ATOM     19  O   UNL     1       3.892   2.937 -12.265  0.00  0.00    -0.126 OA
ATOM     20  O   UNL     1       5.413   2.053 -11.100  0.00  0.00    -0.126 OA
ENDBRANCH  17  18
ENDBRANCH  11  14
ENDBRANCH   1  11
BRANCH   5  21
ATOM     21  C   UNL     1       2.998   4.919  -4.208  0.00  0.00    +0.190 C 
BRANCH  21  22
ATOM     22  O   UNL     1       3.987   5.091  -5.224  0.00  0.00    -0.392 OA
ATOM     23  H   UNL     1       4.742   5.630  -4.951  0.00  0.00    +0.210 HD
ENDBRANCH  21  22
ENDBRANCH   5  21
BRANCH   4  24
ATOM     24  O   UNL     1       1.262   3.442  -2.485  0.00  0.00    -0.340 OA
BRANCH  24  25
ATOM     25  C   UNL     1       0.598   3.915  -1.312  0.00  0.00    +0.282 C 
ATOM     26  C   UNL     1       1.385   3.486  -0.071  0.00  0.00    +0.201 C 
ATOM     27  C   UNL     1       1.419   1.956  -0.001  0.00  0.00    +0.179 C 
ATOM     28  C   UNL     1      -0.017   1.425   0.010  0.00  0.00    +0.177 C 
ATOM     29  C   UNL     1      -0.751   1.933  -1.234  0.00  0.00    +0.178 C 
ATOM     30  O   UNL     1      -0.718   3.362  -1.254  0.00  0.00    -0.341 OA
BRANCH  28  31
ATOM     31  O   UNL     1       0.002  -0.004   0.002  0.00  0.00    -0.386 OA
ATOM     32  H   UNL     1       0.456  -0.395   0.761  0.00  0.00    +0.210 HD
ENDBRANCH  28  31
BRANCH  27  33
ATOM     33  O   UNL     1       2.089   1.547   1.193  0.00  0.00    -0.386 OA
ATOM     34  H   UNL     1       3.006   1.850   1.253  0.00  0.00    +0.210 HD
ENDBRANCH  27  33
BRANCH  26  35
ATOM     35  O   UNL     1       0.752   4.004   1.101  0.00  0.00    -0.384 OA
ATOM     36  H   UNL     1       0.696   4.969   1.123  0.00  0.00    +0.210 HD
ENDBRANCH  26  35
BRANCH  29  37
ATOM     37  C   UNL     1      -2.204   1.456  -1.200  0.00  0.00    +0.190 C 
BRANCH  37  38
ATOM     38  O   UNL     1      -2.857   1.831  -2.415  0.00  0.00    -0.392 OA
ATOM     39  H   UNL     1      -3.784   1.560  -2.463  0.00  0.00    +0.210 HD
ENDBRANCH  37  38
ENDBRANCH  29  37
ENDBRANCH  24  25
ENDBRANCH   4  24
TORSDOF 14
