REMARK  Name = ZINC08723920
REMARK  12 active torsions:
REMARK  status: ('A' for Active; 'I' for Inactive)
REMARK    1  A    between atoms: C_1  and  C_2
REMARK    2  A    between atoms: C_2  and  C_3
REMARK    3  A    between atoms: C_3  and  C_5
REMARK    4  A    between atoms: C_3  and  C_6
REMARK    5  A    between atoms: C_6  and  C_7
REMARK    6  A    between atoms: C_8  and  C_35
REMARK    7  A    between atoms: C_16  and  S_18
REMARK    8  A    between atoms: S_18  and  C_19
REMARK    9  A    between atoms: C_19  and  C_21
REMARK   10  A    between atoms: C_19  and  C_22
REMARK   11  A    between atoms: N_24  and  C_25
REMARK   12  A    between atoms: C_25  and  C_26
REMARK                            x       y       z     vdW  Elec       q    Type
REMARK                         _______ _______ _______ _____ _____    ______ ____
ROOT
ATOM      1  C   UNL     1      12.812  -2.849  -4.035  0.00  0.00    -0.023 A 
ATOM      2  C   UNL     1      11.978  -3.332  -4.968  0.00  0.00    -0.007 A 
ATOM      3  S   UNL     1      10.380  -3.235  -4.184  0.00  0.00    -0.073 S 
ATOM      4  C   UNL     1      10.879  -2.549  -2.625  0.00  0.00    +0.117 A 
ATOM      5  C   UNL     1      12.274  -2.414  -2.758  0.00  0.00    +0.075 A 
ATOM      6  C   UNL     1      12.958  -1.872  -1.624  0.00  0.00    +0.261 A 
ATOM      7  O   UNL     1      14.167  -1.719  -1.647  0.00  0.00    -0.267 OA
ATOM      8  N   UNL     1      12.249  -1.533  -0.532  0.00  0.00    -0.301 N 
ATOM      9  H   UNL     1      12.709  -1.165   0.239  0.00  0.00    +0.171 HD
ATOM     10  C   UNL     1      10.894  -1.696  -0.488  0.00  0.00    +0.171 A 
ATOM     11  N   UNL     1      10.240  -2.198  -1.515  0.00  0.00    -0.216 NA
ATOM     12  C   UNL     1      12.312  -3.835  -6.348  0.00  0.00    +0.052 C 
ENDROOT
BRANCH   1  13
ATOM     13  C   UNL     1      14.291  -2.759  -4.309  0.00  0.00    +0.040 C 
BRANCH  13  14
ATOM     14  C   UNL     1      14.971  -4.059  -3.873  0.00  0.00    -0.010 C 
ATOM     15  C   UNL     1      14.468  -5.214  -4.742  0.00  0.00    +0.008 C 
BRANCH  14  17
ATOM     16  C   UNL     1      17.174  -5.172  -3.484  0.00  0.00    +0.004 C 
ATOM     17  C   UNL     1      16.486  -3.921  -4.035  0.00  0.00    +0.000 C 
ENDBRANCH  14  17
ENDBRANCH  13  14
ENDBRANCH   1  13
BRANCH  10  18
ATOM     18  S   UNL     1      10.010  -1.237   0.966  0.00  0.00    -0.075 S 
BRANCH  18  19
ATOM     19  C   UNL     1       8.326  -1.665   0.457  0.00  0.00    +0.137 C 
ATOM     20  C   UNL     1       8.224  -3.177   0.252  0.00  0.00    +0.029 C 
BRANCH  19  21
ATOM     21  C   UNL     1       7.355  -1.236   1.526  0.00  0.00    +0.226 C 
ATOM     22  O   UNL     1       7.746  -1.037   2.657  0.00  0.00    -0.275 OA
ATOM     23  N   UNL     1       6.051  -1.073   1.226  0.00  0.00    -0.310 N 
ATOM     24  H   UNL     1       5.738  -1.231   0.322  0.00  0.00    +0.149 HD
BRANCH  23  25
ATOM     25  C   UNL     1       5.107  -0.655   2.265  0.00  0.00    +0.139 C 
BRANCH  25  26
ATOM     26  C   UNL     1       3.725  -0.548   1.674  0.00  0.00    -0.027 A 
ATOM     27  C   UNL     1       2.885  -1.646   1.677  0.00  0.00    +0.009 A 
ATOM     28  C   UNL     1       1.617  -1.553   1.135  0.00  0.00    +0.050 A 
ATOM     29  C   UNL     1       1.183  -0.356   0.589  0.00  0.00    +0.166 A 
ATOM     30  C   UNL     1       2.028   0.751   0.586  0.00  0.00    +0.167 A 
ATOM     31  C   UNL     1       3.298   0.650   1.131  0.00  0.00    +0.054 A 
ATOM     32  O   UNL     1       1.376   1.797  -0.001  0.00  0.00    -0.453 OA
ATOM     33  C   UNL     1      -0.018   1.436   0.010  0.00  0.00    +0.466 C 
ATOM     34  O   UNL     1       0.002  -0.004   0.002  0.00  0.00    -0.453 OA
ENDBRANCH  25  26
ENDBRANCH  23  25
ENDBRANCH  19  21
ENDBRANCH  18  19
ENDBRANCH  10  18
TORSDOF 8
