REMARK  Name = ZINC04275273
REMARK  10 active torsions:
REMARK  status: ('A' for Active; 'I' for Inactive)
REMARK    1  A    between atoms: C_1  and  C_2
REMARK    2  A    between atoms: C_2  and  C_27
REMARK    3  A    between atoms: C_5  and  C_23
REMARK    4  A    between atoms: C_6  and  N_12
REMARK    5  A    between atoms: C_9  and  C_10
REMARK    6  A    between atoms: C_9  and  C_11
REMARK    7  A    between atoms: C_13  and  C_15
REMARK    8  A    between atoms: C_18  and  C_21
REMARK    9  A    between atoms: C_23  and  O_25
REMARK   10  A    between atoms: O_25  and  C_26
REMARK                            x       y       z     vdW  Elec       q    Type
REMARK                         _______ _______ _______ _____ _____    ______ ____
ROOT
ATOM      1  C   UNL     1      -3.696  -0.573   0.750  0.00  0.00    -0.010 C 
ATOM      2  C   UNL     1      -2.322   0.119   0.809  0.00  0.00    -0.069 C 
ATOM      3  C   UNL     1      -1.327  -0.746   0.024  0.00  0.00    +0.024 C 
ATOM      4  C   UNL     1       0.002  -0.004   0.002  0.00  0.00    -0.024 A 
ATOM      5  C   UNL     1       1.316  -0.611  -0.021  0.00  0.00    +0.091 A 
ATOM      6  C   UNL     1       2.414   0.245  -0.025  0.00  0.00    +0.086 A 
ATOM      7  S   UNL     1       1.689   1.819  -0.004  0.00  0.00    -0.079 S 
ATOM      8  C   UNL     1      -0.016   1.349   0.009  0.00  0.00    -0.016 A 
ATOM      9  C   UNL     1      -1.229   2.221   0.017  0.00  0.00    -0.041 C 
ATOM     10  C   UNL     1      -1.071   3.302   1.096  0.00  0.00    -0.005 C 
ATOM     11  C   UNL     1      -1.329   2.925  -1.349  0.00  0.00    -0.005 C 
ATOM     12  C   UNL     1      -1.888   0.180   2.276  0.00  0.00    -0.010 C 
ATOM     13  N   UNL     1      -2.503   1.476   0.233  0.00  0.00    +0.389 N 
ATOM     14  H   UNL     1      -3.092   2.022   0.873  0.00  0.00    -0.084 HD
ATOM     15  H   UNL     1      -2.978   1.381  -0.673  0.00  0.00    -0.084 HD
ENDROOT
BRANCH   6  16
ATOM     16  N   UNL     1       3.759  -0.083  -0.042  0.00  0.00    -0.275 N 
ATOM     17  C   UNL     1       4.690   0.891  -0.043  0.00  0.00    +0.249 C 
ATOM     18  O   UNL     1       4.349   2.058  -0.029  0.00  0.00    -0.270 OA
ATOM     19  H   UNL     1       4.031  -1.014  -0.053  0.00  0.00    +0.156 HD
BRANCH  17  20
ATOM     20  C   UNL     1       6.126   0.541  -0.062  0.00  0.00    +0.037 A 
ATOM     21  C   UNL     1       6.518  -0.799  -0.072  0.00  0.00    +0.014 A 
ATOM     22  C   UNL     1       7.856  -1.125  -0.095  0.00  0.00    +0.019 A 
ATOM     23  C   UNL     1       8.821  -0.116  -0.097  0.00  0.00    +0.052 A 
ATOM     24  C   UNL     1       8.429   1.225  -0.081  0.00  0.00    +0.019 A 
ATOM     25  C   UNL     1       7.091   1.551  -0.063  0.00  0.00    +0.014 A 
BRANCH  23  26
ATOM     26  C   UNL     1      10.212  -0.455  -0.116  0.00  0.00    +0.099 C 
ATOM     27  N   UNL     1      11.316  -0.724  -0.131  0.00  0.00    -0.191 NA
ENDBRANCH  23  26
ENDBRANCH  17  20
ENDBRANCH   6  16
BRANCH   5  28
ATOM     28  C   UNL     1       1.496  -2.064  -0.042  0.00  0.00    +0.342 C 
ATOM     29  O   UNL     1       1.559  -2.654  -1.104  0.00  0.00    -0.245 OA
BRANCH  28  30
ATOM     30  O   UNL     1       1.592  -2.749   1.116  0.00  0.00    -0.464 OA
ATOM     31  C   UNL     1       1.769  -4.186   1.019  0.00  0.00    +0.280 C 
ENDBRANCH  28  30
ENDBRANCH   5  28
TORSDOF 5
