REMARK  Name = ZINC08584753
REMARK  7 active torsions:
REMARK  status: ('A' for Active; 'I' for Inactive)
REMARK    1  A    between atoms: C_1  and  C_2
REMARK    2  A    between atoms: C_3  and  C_29
REMARK    3  A    between atoms: C_5  and  C_7
REMARK    4  A    between atoms: C_9  and  C_27
REMARK    5  A    between atoms: C_10  and  N_26
REMARK    6  A    between atoms: N_11  and  C_19
REMARK    7  A    between atoms: C_29  and  N_61
REMARK                            x       y       z     vdW  Elec       q    Type
REMARK                         _______ _______ _______ _____ _____    ______ ____
ROOT
ATOM      1  C   UNL     1      -3.099   2.948  -1.377  0.00  0.00    +0.104 C 
ATOM      2  C   UNL     1      -3.084   1.456  -1.217  0.00  0.00    +0.077 C 
ATOM      3  C   UNL     1      -1.917   0.780  -1.072  0.00  0.00    +0.107 C 
ATOM      4  N   UNL     1      -0.720   1.459  -1.053  0.00  0.00    -0.260 N 
ATOM      5  C   UNL     1      -0.686   2.804  -0.790  0.00  0.00    +0.024 C 
ATOM      6  C   UNL     1      -1.798   3.558  -0.919  0.00  0.00    +0.026 C 
ATOM      7  C   UNL     1      -1.777   4.935  -0.635  0.00  0.00    +0.162 C 
ATOM      8  O   UNL     1      -2.793   5.587  -0.769  0.00  0.00    -0.292 OA
ATOM      9  C   UNL     1      -0.520   5.616  -0.168  0.00  0.00    +0.080 C 
ATOM     10  C   UNL     1       0.352   4.599   0.576  0.00  0.00    +0.014 C 
ATOM     11  C   UNL     1       0.623   3.417  -0.358  0.00  0.00    +0.052 C 
ENDROOT
BRANCH   4  12
ATOM     12  C   UNL     1       0.473   0.772  -1.309  0.00  0.00    +0.040 A 
ATOM     13  C   UNL     1       1.155   0.151  -0.271  0.00  0.00    +0.025 A 
ATOM     14  C   UNL     1       2.333  -0.522  -0.526  0.00  0.00    +0.022 A 
ATOM     15  C   UNL     1       2.836  -0.577  -1.814  0.00  0.00    +0.041 A 
ATOM     16  C   UNL     1       2.158   0.041  -2.850  0.00  0.00    +0.022 A 
ATOM     17  C   UNL     1       0.979   0.715  -2.601  0.00  0.00    +0.025 A 
ATOM     18 CL   UNL     1       4.317  -1.425  -2.131  0.00  0.00    -0.084 Cl
ENDBRANCH   4  12
BRANCH   1  23
ATOM     19  C   UNL     1      -3.081   3.742  -6.986  0.00  0.00    +0.052 C 
ATOM     20  C   UNL     1      -3.312   3.665  -5.498  0.00  0.00    -0.012 A 
ATOM     21  C   UNL     1      -4.337   4.166  -4.767  0.00  0.00    -0.054 A 
ATOM     22  C   UNL     1      -4.345   3.968  -3.399  0.00  0.00    +0.014 A 
ATOM     23  C   UNL     1      -3.320   3.288  -2.828  0.00  0.00    +0.003 A 
ATOM     24  S   UNL     1      -2.306   2.891  -4.243  0.00  0.00    -0.097 S 
BRANCH  21  25
ATOM     25  C   UNL     1      -5.455   4.923  -5.436  0.00  0.00    -0.042 C 
BRANCH  25  31
ATOM     26  C   UNL     1      -4.841   7.110  -4.594  0.00  0.00    -0.050 C 
ATOM     27  C   UNL     1      -4.300   8.482  -5.004  0.00  0.00    +0.141 C 
ATOM     28  O   UNL     1      -5.178   9.067  -5.969  0.00  0.00    -0.383 OA
ATOM     29  C   UNL     1      -5.345   8.276  -7.149  0.00  0.00    +0.141 C 
ATOM     30  C   UNL     1      -5.898   6.902  -6.761  0.00  0.00    -0.050 C 
ATOM     31  N   UNL     1      -4.966   6.269  -5.804  0.00  0.00    +0.385 N 
ATOM     32  H   UNL     1      -4.043   6.180  -6.245  0.00  0.00    -0.081 HD
ENDBRANCH  25  31
ENDBRANCH  21  25
ENDBRANCH   1  23
BRANCH   3  33
ATOM     33  N   UNL     1      -1.931  -0.588  -0.941  0.00  0.00    -0.345 N 
ATOM     34  H   UNL     1      -1.108  -1.067  -0.757  0.00  0.00    +0.144 HD
ATOM     35  H   UNL     1      -2.765  -1.075  -1.031  0.00  0.00    +0.144 HD
ENDBRANCH   3  33
BRANCH   2  36
ATOM     36  C   UNL     1      -4.321   0.735  -1.222  0.00  0.00    +0.099 C 
ATOM     37  N   UNL     1      -5.302   0.163  -1.226  0.00  0.00    -0.191 NA
ENDBRANCH   2  36
TORSDOF 6
