REMARK  Name = ZINC12296278
REMARK  16 active torsions:
REMARK  status: ('A' for Active; 'I' for Inactive)
REMARK    1  A    between atoms: C_3  and  N_40
REMARK    2  A    between atoms: C_6  and  C_7
REMARK    3  A    between atoms: C_7  and  O_9
REMARK    4  A    between atoms: O_9  and  C_10
REMARK    5  A    between atoms: C_10  and  C_11
REMARK    6  A    between atoms: C_13  and  O_39
REMARK    7  A    between atoms: C_15  and  O_38
REMARK    8  A    between atoms: C_17  and  O_37
REMARK    9  A    between atoms: C_19  and  O_22
REMARK   10  A    between atoms: O_22  and  C_23
REMARK   11  A    between atoms: C_23  and  C_35
REMARK   12  A    between atoms: C_24  and  O_34
REMARK   13  A    between atoms: C_26  and  O_33
REMARK   14  A    between atoms: C_28  and  C_31
REMARK   15  A    between atoms: C_31  and  O_32
REMARK   16  A    between atoms: C_35  and  O_36
REMARK                            x       y       z     vdW  Elec       q    Type
REMARK                         _______ _______ _______ _____ _____    ______ ____
ROOT
ATOM      1  C   UNL     1       0.746   2.150   1.391  0.00  0.00    +0.190 C 
ATOM      2  C   UNL     1      -0.415   1.172   1.588  0.00  0.00    +0.178 C 
ATOM      3  C   UNL     1       0.044  -0.238   1.201  0.00  0.00    +0.179 C 
ATOM      4  C   UNL     1       1.268  -0.612   2.042  0.00  0.00    +0.201 C 
ATOM      5  C   UNL     1       2.364   0.435   1.827  0.00  0.00    +0.285 C 
ATOM      6  O   UNL     1       1.862   1.726   2.176  0.00  0.00    -0.339 OA
ENDROOT
BRANCH   2   7
ATOM      7  O   UNL     1      -1.513   1.560   0.759  0.00  0.00    -0.386 OA
ATOM      8  H   UNL     1      -2.284   0.980   0.830  0.00  0.00    +0.210 HD
ENDBRANCH   2   7
BRANCH   3   9
ATOM      9  O   UNL     1      -1.011  -1.169   1.449  0.00  0.00    -0.386 OA
ATOM     10  H   UNL     1      -0.789  -2.083   1.226  0.00  0.00    +0.210 HD
ENDBRANCH   3   9
BRANCH   4  11
ATOM     11  O   UNL     1       0.906  -0.649   3.423  0.00  0.00    -0.384 OA
ATOM     12  H   UNL     1       1.635  -0.880   4.015  0.00  0.00    +0.210 HD
ENDBRANCH   4  11
BRANCH   5  13
ATOM     13  O   UNL     1       3.489   0.123   2.651  0.00  0.00    -0.313 OA
BRANCH  13  14
ATOM     14  C   UNL     1       4.729   0.638   2.162  0.00  0.00    +0.225 C 
ATOM     15  C   UNL     1       5.907   0.089   2.997  0.00  0.00    +0.207 C 
ATOM     16  C   UNL     1       6.391  -1.141   2.198  0.00  0.00    +0.179 C 
ATOM     17  C   UNL     1       5.449  -1.190   0.975  0.00  0.00    +0.178 C 
ATOM     18  O   UNL     1       4.974   0.168   0.819  0.00  0.00    -0.336 OA
BRANCH  15  19
ATOM     19  O   UNL     1       5.460  -0.302   4.296  0.00  0.00    -0.384 OA
ATOM     20  H   UNL     1       6.160  -0.655   4.863  0.00  0.00    +0.210 HD
ENDBRANCH  15  19
BRANCH  16  21
ATOM     21  O   UNL     1       7.746  -0.965   1.779  0.00  0.00    -0.386 OA
ATOM     22  H   UNL     1       8.101  -1.708   1.273  0.00  0.00    +0.210 HD
ENDBRANCH  16  21
BRANCH  14  23
ATOM     23  C   UNL     1       4.719   2.168   2.197  0.00  0.00    +0.223 C 
BRANCH  23  24
ATOM     24  O   UNL     1       3.787   2.661   1.233  0.00  0.00    -0.390 OA
ATOM     25  H   UNL     1       3.672   3.621   1.252  0.00  0.00    +0.210 HD
ENDBRANCH  23  24
ENDBRANCH  14  23
BRANCH  17  26
ATOM     26  C   UNL     1       6.216  -1.635  -0.272  0.00  0.00    +0.190 C 
BRANCH  26  27
ATOM     27  O   UNL     1       5.306  -1.785  -1.363  0.00  0.00    -0.392 OA
ATOM     28  H   UNL     1       5.724  -2.066  -2.188  0.00  0.00    +0.210 HD
ENDBRANCH  26  27
ENDBRANCH  17  26
ENDBRANCH  13  14
ENDBRANCH   5  13
BRANCH   1  29
ATOM     29  C   UNL     1       0.313   3.550   1.832  0.00  0.00    +0.266 C 
BRANCH  29  30
ATOM     30  O   UNL     1       1.397   4.487   1.598  0.00  0.00    -0.458 OA
BRANCH  30  31
ATOM     31  C   UNL     1       1.177   5.774   1.935  0.00  0.00    +0.339 C 
ATOM     32  O   UNL     1       0.109   6.103   2.411  0.00  0.00    -0.245 OA
BRANCH  31  38
ATOM     33  C   UNL     1       3.464   6.403   1.182  0.00  0.00    +0.017 A 
ATOM     34  C   UNL     1       4.442   7.343   0.985  0.00  0.00    +0.023 A 
ATOM     35  C   UNL     1       4.213   8.672   1.333  0.00  0.00    +0.025 A 
ATOM     36  C   UNL     1       2.989   9.051   1.878  0.00  0.00    +0.023 A 
ATOM     37  C   UNL     1       2.006   8.116   2.074  0.00  0.00    +0.017 A 
ATOM     38  C   UNL     1       2.232   6.781   1.725  0.00  0.00    +0.059 A 
BRANCH  35  39
ATOM     39  N   UNL     1       5.208   9.622   1.135  0.00  0.00    -0.358 N 
ATOM     40  H   UNL     1       5.050  10.548   1.378  0.00  0.00    +0.142 HD
ATOM     41  H   UNL     1       6.061   9.359   0.755  0.00  0.00    +0.142 HD
ENDBRANCH  35  39
ENDBRANCH  31  38
ENDBRANCH  30  31
ENDBRANCH  29  30
ENDBRANCH   1  29
TORSDOF 16
