REMARK  Name = ZINC27236965
REMARK  11 active torsions:
REMARK  status: ('A' for Active; 'I' for Inactive)
REMARK    1  A    between atoms: C_1  and  C_2
REMARK    2  A    between atoms: C_5  and  C_8
REMARK    3  A    between atoms: C_8  and  C_9
REMARK    4  A    between atoms: C_8  and  C_17
REMARK    5  A    between atoms: C_8  and  O_34
REMARK    6  A    between atoms: C_14  and  O_15
REMARK    7  A    between atoms: O_15  and  C_16
REMARK    8  A    between atoms: C_17  and  C_19
REMARK    9  A    between atoms: C_17  and  O_25
REMARK   10  A    between atoms: C_19  and  N_20
REMARK   11  A    between atoms: O_25  and  C_26
REMARK                            x       y       z     vdW  Elec       q    Type
REMARK                         _______ _______ _______ _____ _____    ______ ____
ROOT
ATOM      1  C   UNL     1       4.835   1.749   0.382  0.00  0.00    +0.154 C 
ENDROOT
BRANCH   1   6
ATOM      2  C   UNL     1       9.020   5.608  -0.614  0.00  0.00    +0.044 C 
ATOM      3  C   UNL     1       7.928   4.601  -0.355  0.00  0.00    -0.050 A 
ATOM      4  C   UNL     1       8.205   3.249  -0.424  0.00  0.00    +0.004 A 
ATOM      5  C   UNL     1       7.204   2.326  -0.185  0.00  0.00    +0.007 A 
ATOM      6  C   UNL     1       5.926   2.755   0.122  0.00  0.00    -0.008 A 
ATOM      7  C   UNL     1       5.649   4.108   0.186  0.00  0.00    +0.007 A 
ATOM      8  C   UNL     1       6.651   5.031  -0.048  0.00  0.00    +0.004 A 
ENDBRANCH   1   6
BRANCH   1   9
ATOM      9  C   UNL     1       4.803   1.411   1.850  0.00  0.00    +0.033 A 
ATOM     10  C   UNL     1       4.898   0.094   2.258  0.00  0.00    +0.010 A 
ATOM     11  C   UNL     1       4.870  -0.216   3.605  0.00  0.00    +0.001 A 
ATOM     12  C   UNL     1       4.745   0.788   4.547  0.00  0.00    +0.004 A 
ATOM     13  C   UNL     1       4.648   2.106   4.143  0.00  0.00    +0.046 A 
ATOM     14  C   UNL     1       4.683   2.421   2.793  0.00  0.00    +0.126 A 
BRANCH  14  15
ATOM     15  O   UNL     1       4.594   3.717   2.394  0.00  0.00    -0.495 OA
ATOM     16  C   UNL     1       4.472   4.705   3.419  0.00  0.00    +0.277 C 
ENDBRANCH  14  15
ENDBRANCH   1   9
BRANCH   1  17
ATOM     17  O   UNL     1       5.090   0.564  -0.375  0.00  0.00    -0.376 OA
ATOM     18  H   UNL     1       4.396  -0.288  -0.313  0.00  0.00    +0.211 HD
ENDBRANCH   1  17
BRANCH   1  19
ATOM     19  C   UNL     1       3.487   2.340  -0.035  0.00  0.00    +0.198 C 
BRANCH  19  20
ATOM     20  C   UNL     1       3.545   2.755  -1.507  0.00  0.00    -0.030 C 
BRANCH  20  21
ATOM     21  N   UNL     1       2.288   3.419  -1.878  0.00  0.00    +0.382 N 
ATOM     22  C   UNL     1       2.045   4.612  -1.027  0.00  0.00    -0.079 C 
ATOM     23  C   UNL     1       1.038   5.443  -1.862  0.00  0.00    -0.020 C 
ATOM     24  C   UNL     1       1.528   5.225  -3.312  0.00  0.00    -0.020 C 
ATOM     25  C   UNL     1       2.345   3.920  -3.269  0.00  0.00    -0.079 C 
ATOM     26  H   UNL     1       1.501   2.661  -1.755  0.00  0.00    -0.082 HD
ENDBRANCH  20  21
ENDBRANCH  19  20
BRANCH  19  27
ATOM     27  O   UNL     1       2.462   1.361   0.143  0.00  0.00    -0.486 OA
BRANCH  27  28
ATOM     28  C   UNL     1       1.659   1.498   1.232  0.00  0.00    +0.139 A 
ATOM     29  C   UNL     1       1.846   2.562   2.102  0.00  0.00    +0.048 A 
ATOM     30  C   UNL     1       1.029   2.701   3.208  0.00  0.00    +0.023 A 
ATOM     31  C   UNL     1       0.025   1.780   3.448  0.00  0.00    +0.043 A 
ATOM     32  C   UNL     1      -0.168   0.721   2.578  0.00  0.00    +0.043 A 
ATOM     33  C   UNL     1       0.651   0.576   1.473  0.00  0.00    +0.084 A 
ATOM     34 CL   UNL     1       0.413  -0.756   0.386  0.00  0.00    -0.080 Cl
ATOM     35 CL   UNL     1      -1.000   1.957   4.838  0.00  0.00    -0.083 Cl
ENDBRANCH  27  28
ENDBRANCH  19  27
ENDBRANCH   1  19
TORSDOF 9
