REMARK  Name = ZINC17085938
REMARK  6 active torsions:
REMARK  status: ('A' for Active; 'I' for Inactive)
REMARK    1  A    between atoms: C_1  and  C_2
REMARK    2  A    between atoms: C_2  and  C_3
REMARK    3  A    between atoms: C_2  and  C_4
REMARK    4  A    between atoms: C_2  and  C_5
REMARK    5  A    between atoms: C_17  and  C_20
REMARK    6  A    between atoms: C_23  and  C_25
REMARK                            x       y       z     vdW  Elec       q    Type
REMARK                         _______ _______ _______ _____ _____    ______ ____
ROOT
ATOM      1  C   UNL     1      -0.735   2.019   1.269  0.00  0.00    -0.000 C 
ATOM      2  C   UNL     1       0.004   1.513   2.512  0.00  0.00    +0.009 C 
ATOM      3  C   UNL     1      -0.552   2.198   3.762  0.00  0.00    +0.037 C 
ATOM      4  C   UNL     1      -2.067   2.032   3.781  0.00  0.00    -0.023 A 
ATOM      5  C   UNL     1      -2.743   1.709   2.656  0.00  0.00    -0.004 A 
ATOM      6  S   UNL     1      -4.444   1.627   3.150  0.00  0.00    -0.078 S 
ATOM      7  C   UNL     1      -4.261   2.015   4.807  0.00  0.00    +0.080 A 
ATOM      8  C   UNL     1      -2.880   2.203   4.974  0.00  0.00    +0.068 A 
ATOM      9  C   UNL     1      -2.397   2.545   6.333  0.00  0.00    +0.248 C 
ATOM     10  O   UNL     1      -1.210   2.552   6.600  0.00  0.00    -0.270 OA
ATOM     11  N   UNL     1      -3.329   2.847   7.261  0.00  0.00    -0.287 N 
ATOM     12  C   UNL     1      -4.747   3.010   6.960  0.00  0.00    +0.227 C 
ATOM     13  N   UNL     1      -5.159   2.152   5.833  0.00  0.00    -0.314 N 
ATOM     14  C   UNL     1      -2.170   1.474   1.292  0.00  0.00    +0.046 C 
ATOM     15  H   UNL     1      -2.969   2.971   8.293  0.00  0.00    +0.151 HD
ATOM     16  H   UNL     1      -6.143   1.660   5.847  0.00  0.00    +0.149 HD
ENDROOT
BRANCH  12  17
ATOM     17  C   UNL     1      -5.013   4.450   6.605  0.00  0.00    +0.144 A 
ATOM     18  C   UNL     1      -4.311   5.511   7.050  0.00  0.00    +0.049 A 
ATOM     19  C   UNL     1      -4.891   6.660   6.476  0.00  0.00    +0.050 A 
ATOM     20  C   UNL     1      -5.926   6.232   5.704  0.00  0.00    +0.135 A 
ATOM     21  O   UNL     1      -5.984   4.889   5.788  0.00  0.00    -0.456 OA
BRANCH  20  22
ATOM     22  C   UNL     1      -6.826   7.091   4.907  0.00  0.00    +0.019 A 
ATOM     23  C   UNL     1      -7.854   6.521   4.155  0.00  0.00    +0.013 A 
ATOM     24  C   UNL     1      -8.692   7.328   3.413  0.00  0.00    +0.022 A 
ATOM     25  C   UNL     1      -8.515   8.701   3.413  0.00  0.00    +0.059 A 
ATOM     26  C   UNL     1      -7.496   9.274   4.158  0.00  0.00    +0.060 A 
ATOM     27  C   UNL     1      -6.655   8.477   4.909  0.00  0.00    +0.033 A 
ATOM     28 CL   UNL     1      -7.281  10.996   4.152  0.00  0.00    -0.082 Cl
ATOM     29 CL   UNL     1      -9.573   9.710   2.477  0.00  0.00    -0.082 Cl
ENDBRANCH  20  22
ENDBRANCH  12  17
BRANCH   1  31
ATOM     30  C   UNL     1       0.002  -0.004   0.002  0.00  0.00    +0.011 C 
ATOM     31  C   UNL     1      -0.019   1.526   0.010  0.00  0.00    -0.035 C 
ATOM     32  C   UNL     1       1.417   2.055  -0.000  0.00  0.00    +0.011 C 
ATOM     33  C   UNL     1      -0.759   2.033  -1.229  0.00  0.00    +0.011 C 
ENDBRANCH   1  31
TORSDOF 3
