REMARK  Name = ZINC44163222
REMARK  6 active torsions:
REMARK  status: ('A' for Active; 'I' for Inactive)
REMARK    1  A    between atoms: C_6  and  N_7
REMARK    2  A    between atoms: C_11  and  C_13
REMARK    3  A    between atoms: C_16  and  CA_18
REMARK    4  A    between atoms: CA_18  and  C_20
REMARK    5  A    between atoms: CA_18  and  N_22
REMARK    6  A    between atoms: C_20  and  O_21
REMARK                            x       y       z     vdW  Elec       q    Type
REMARK                         _______ _______ _______ _____ _____    ______ ____
ROOT
ATOM      1  N   UNL     1      -1.198  -0.721   0.010  0.00  0.00    -0.268 N 
ATOM      2  C   UNL     1      -1.181  -2.099  -0.102  0.00  0.00    +0.312 A 
ATOM      3  N   UNL     1      -0.116  -2.863  -0.123  0.00  0.00    -0.092 NA
ATOM      4  N   UNL     1      -0.472  -4.094  -0.238  0.00  0.00    -0.104 NA
ATOM      5  C   UNL     1      -1.780  -4.165  -0.293  0.00  0.00    +0.271 A 
ATOM      6  O   UNL     1      -2.257  -2.904  -0.203  0.00  0.00    -0.403 OA
ATOM      7  H   UNL     1      -2.042  -0.252   0.106  0.00  0.00    +0.157 HD
ENDROOT
BRANCH   1  13
ATOM      8  C   UNL     1       1.115  -0.531  -0.656  0.00  0.00    +0.025 A 
ATOM      9  C   UNL     1       2.298   0.181  -0.681  0.00  0.00    +0.022 A 
ATOM     10  C   UNL     1       2.375   1.419  -0.068  0.00  0.00    +0.041 A 
ATOM     11  C   UNL     1       1.267   1.948   0.572  0.00  0.00    +0.022 A 
ATOM     12  C   UNL     1       0.081   1.240   0.599  0.00  0.00    +0.025 A 
ATOM     13  C   UNL     1       0.001  -0.003  -0.016  0.00  0.00    +0.035 A 
ATOM     14 CL   UNL     1       3.864   2.311  -0.100  0.00  0.00    -0.084 Cl
ENDBRANCH   1  13
BRANCH   5  15
ATOM     15  C   UNL     1      -2.585  -5.397  -0.425  0.00  0.00    +0.165 A 
ATOM     16  C   UNL     1      -3.939  -5.473  -0.490  0.00  0.00    +0.230 A 
ATOM     17  O   UNL     1      -4.255  -6.777  -0.606  0.00  0.00    -0.449 OA
ATOM     18  C   UNL     1      -3.116  -7.482  -0.613  0.00  0.00    +0.184 A 
ATOM     19  N   UNL     1      -2.107  -6.667  -0.511  0.00  0.00    -0.210 NA
BRANCH  18  20
ATOM     20  CA  UNL     1      -3.018  -8.982  -0.726  0.00  0.00    +0.039 C 
BRANCH  20  21
ATOM     21  N   UNL     1      -4.005  -9.605   0.166  0.00  0.00    +0.387 N 
ATOM     22  H1  UNL     1      -4.933  -9.307  -0.098  0.00  0.00    -0.089 HD
ATOM     23  H2  UNL     1      -3.940 -10.609   0.090  0.00  0.00    -0.089 HD
ATOM     24  H3  UNL     1      -3.821  -9.327   1.118  0.00  0.00    -0.089 HD
ENDBRANCH  20  21
BRANCH  20  25
ATOM     25  C   UNL     1      -3.298  -9.403  -2.170  0.00  0.00    +0.149 C 
BRANCH  25  26
ATOM     26  O   UNL     1      -3.092 -10.811  -2.304  0.00  0.00    -0.396 OA
ATOM     27  H   UNL     1      -3.251 -11.149  -3.196  0.00  0.00    +0.209 HD
ENDBRANCH  25  26
ENDBRANCH  20  25
ENDBRANCH  18  20
ENDBRANCH   5  15
TORSDOF 6
