REMARK  Name = ZINC14241244
REMARK  14 active torsions:
REMARK  status: ('A' for Active; 'I' for Inactive)
REMARK    1  A    between atoms: C_1  and  C_2
REMARK    2  A    between atoms: C_3  and  C_23
REMARK    3  A    between atoms: C_4  and  N_10
REMARK    4  A    between atoms: C_6  and  C_7
REMARK    5  A    between atoms: C_11  and  C_13
REMARK    6  A    between atoms: C_13  and  N_54
REMARK    7  A    between atoms: C_14  and  N_54
REMARK    8  A    between atoms: C_15  and  C_16
REMARK    9  A    between atoms: C_15  and  N_54
REMARK   10  A    between atoms: C_23  and  O_25
REMARK   11  A    between atoms: O_25  and  C_26
REMARK   12  A    between atoms: C_26  and  C_27
REMARK   13  A    between atoms: C_27  and  O_28
REMARK   14  A    between atoms: O_28  and  C_29
REMARK                            x       y       z     vdW  Elec       q    Type
REMARK                         _______ _______ _______ _____ _____    ______ ____
ROOT
ATOM      1  C   UNL     1       5.956  -0.470   0.106  0.00  0.00    +0.046 C 
ATOM      2  C   UNL     1       4.464  -0.681   0.094  0.00  0.00    -0.015 A 
ATOM      3  C   UNL     1       3.588   0.394   0.060  0.00  0.00    +0.091 A 
ATOM      4  C   UNL     1       2.217   0.116   0.050  0.00  0.00    +0.087 A 
ATOM      5  S   UNL     1       2.173  -1.616   0.095  0.00  0.00    -0.068 S 
ATOM      6  C   UNL     1       3.926  -1.939   0.115  0.00  0.00    +0.079 A 
ENDROOT
BRANCH   6   7
ATOM      7  C   UNL     1       4.618  -3.229   0.152  0.00  0.00    +0.248 C 
ATOM      8  O   UNL     1       5.835  -3.266   0.168  0.00  0.00    -0.270 OA
ATOM      9  N   UNL     1       3.908  -4.374   0.169  0.00  0.00    -0.325 N 
ATOM     10  H   UNL     1       2.939  -4.344   0.157  0.00  0.00    +0.145 HD
ATOM     11  H   UNL     1       4.367  -5.229   0.194  0.00  0.00    +0.145 HD
ENDBRANCH   6   7
BRANCH   4  12
ATOM     12  N   UNL     1       1.159   1.003   0.019  0.00  0.00    -0.281 N 
ATOM     13  C   UNL     1      -0.108   0.542   0.014  0.00  0.00    +0.201 C 
ATOM     14  O   UNL     1      -0.318  -0.652   0.037  0.00  0.00    -0.278 OA
ATOM     15  H   UNL     1       1.327   1.958   0.000  0.00  0.00    +0.155 HD
BRANCH  13  16
ATOM     16  C   UNL     1      -1.262   1.510  -0.026  0.00  0.00    +0.019 C 
BRANCH  16  18
ATOM     17  C   UNL     1      -2.718   0.044   1.237  0.00  0.00    -0.095 C 
ATOM     18  N   UNL     1      -2.526   0.744  -0.051  0.00  0.00    +0.386 N 
ATOM     19  H   UNL     1      -2.479   0.048  -0.805  0.00  0.00    -0.081 HD
BRANCH  18  20
ATOM     20  C   UNL     1      -3.663   1.653  -0.306  0.00  0.00    -0.042 C 
BRANCH  20  21
ATOM     21  C   UNL     1      -3.686   1.997  -1.774  0.00  0.00    -0.050 A 
ATOM     22  C   UNL     1      -3.276   3.247  -2.198  0.00  0.00    +0.003 A 
ATOM     23  C   UNL     1      -3.293   3.560  -3.544  0.00  0.00    +0.000 A 
ATOM     24  C   UNL     1      -3.730   2.627  -4.466  0.00  0.00    +0.001 A 
ATOM     25  C   UNL     1      -4.145   1.379  -4.042  0.00  0.00    +0.015 A 
ATOM     26  C   UNL     1      -4.124   1.063  -2.696  0.00  0.00    +0.019 A 
ATOM     27 BR   UNL     1      -4.692  -0.644  -2.115  0.00  0.00    -0.050 Br
ENDBRANCH  20  21
ENDBRANCH  18  20
ENDBRANCH  16  18
ENDBRANCH  13  16
ENDBRANCH   4  12
BRANCH   3  28
ATOM     28  C   UNL     1       4.082   1.775   0.035  0.00  0.00    +0.342 C 
ATOM     29  O   UNL     1       4.275   2.371   1.077  0.00  0.00    -0.245 OA
BRANCH  28  30
ATOM     30  O   UNL     1       4.322   2.384  -1.144  0.00  0.00    -0.459 OA
BRANCH  30  31
ATOM     31  C   UNL     1       4.810   3.751  -1.093  0.00  0.00    +0.260 C 
BRANCH  31  32
ATOM     32  C   UNL     1       5.023   4.270  -2.517  0.00  0.00    +0.200 C 
BRANCH  32  33
ATOM     33  O   UNL     1       3.764   4.342  -3.190  0.00  0.00    -0.380 OA
ATOM     34  C   UNL     1       3.852   4.818  -4.535  0.00  0.00    +0.194 C 
ENDBRANCH  32  33
ENDBRANCH  31  32
ENDBRANCH  30  31
ENDBRANCH  28  30
ENDBRANCH   3  28
TORSDOF 11
