REMARK  Name = ZINC09469264
REMARK  11 active torsions:
REMARK  status: ('A' for Active; 'I' for Inactive)
REMARK    1  A    between atoms: C_1  and  C_2
REMARK    2  A    between atoms: C_2  and  C_3
REMARK    3  A    between atoms: C_3  and  C_5
REMARK    4  A    between atoms: C_3  and  N_6
REMARK    5  A    between atoms: C_10  and  C_12
REMARK    6  A    between atoms: C_12  and  S_13
REMARK    7  A    between atoms: S_13  and  C_14
REMARK    8  A    between atoms: C_17  and  C_26
REMARK    9  A    between atoms: N_18  and  C_19
REMARK   10  A    between atoms: C_26  and  C_28
REMARK   11  A    between atoms: C_26  and  N_63
REMARK                            x       y       z     vdW  Elec       q    Type
REMARK                         _______ _______ _______ _____ _____    ______ ____
ROOT
ATOM      1  C   UNL     1      -1.801  -2.329   0.492  0.00  0.00    +0.197 A 
ATOM      2  N   UNL     1      -0.564  -2.763   0.413  0.00  0.00    -0.122 NA
ATOM      3  N   UNL     1      -0.557  -4.035   0.234  0.00  0.00    -0.135 NA
ATOM      4  C   UNL     1      -1.778  -4.489   0.188  0.00  0.00    +0.125 A 
ATOM      5  N   UNL     1      -2.616  -3.419   0.356  0.00  0.00    -0.275 N 
ENDROOT
BRANCH   5   6
ATOM      6  C   UNL     1      -4.019  -3.437   0.380  0.00  0.00    +0.050 A 
ATOM      7  C   UNL     1      -4.688  -4.103   1.398  0.00  0.00    +0.029 A 
ATOM      8  C   UNL     1      -6.069  -4.115   1.424  0.00  0.00    +0.040 A 
ATOM      9  C   UNL     1      -6.786  -3.473   0.428  0.00  0.00    +0.124 A 
ATOM     10  C   UNL     1      -6.121  -2.812  -0.591  0.00  0.00    +0.040 A 
ATOM     11  C   UNL     1      -4.740  -2.794  -0.616  0.00  0.00    +0.029 A 
ATOM     12  F   UNL     1      -8.137  -3.490   0.452  0.00  0.00    -0.205 F 
ENDBRANCH   5   6
BRANCH   4  13
ATOM     13  C   UNL     1      -2.190  -5.925  -0.007  0.00  0.00    -0.002 C 
ATOM     14  C   UNL     1      -1.960  -6.328  -1.465  0.00  0.00    -0.005 C 
BRANCH  13  20
ATOM     15  C   UNL     1      -1.786  -8.195   0.730  0.00  0.00    -0.078 C 
ATOM     16  C   UNL     1      -0.839  -9.078   1.546  0.00  0.00    -0.019 C 
ATOM     17  C   UNL     1      -0.899  -8.658   3.017  0.00  0.00    -0.004 C 
ATOM     18  C   UNL     1      -0.529  -7.176   3.132  0.00  0.00    -0.019 C 
ATOM     19  C   UNL     1      -1.485  -6.349   2.270  0.00  0.00    -0.078 C 
ATOM     20  N   UNL     1      -1.362  -6.785   0.863  0.00  0.00    +0.386 N 
ATOM     21  H   UNL     1      -0.380  -6.704   0.574  0.00  0.00    -0.081 HD
ENDBRANCH  13  20
ENDBRANCH   4  13
BRANCH   1  22
ATOM     22  S   UNL     1      -2.314  -0.661   0.734  0.00  0.00    -0.076 S 
BRANCH  22  23
ATOM     23  C   UNL     1      -0.700   0.154   0.825  0.00  0.00    +0.173 C 
BRANCH  23  28
ATOM     24  N   UNL     1       1.070   4.583   1.423  0.00  0.00    -0.297 N 
ATOM     25  C   UNL     1       0.000   3.769   1.324  0.00  0.00    +0.306 C 
ATOM     26  O   UNL     1      -1.122   4.229   1.405  0.00  0.00    -0.252 OA
ATOM     27  N   UNL     1       0.175   2.446   1.135  0.00  0.00    -0.239 N 
ATOM     28  C   UNL     1      -0.895   1.633   1.036  0.00  0.00    +0.231 C 
ATOM     29  O   UNL     1      -2.015   2.092   1.113  0.00  0.00    -0.274 OA
ATOM     30  H   UNL     1       1.966   4.216   1.358  0.00  0.00    +0.151 HD
ATOM     31  H   UNL     1       1.071   2.080   1.070  0.00  0.00    +0.159 HD
BRANCH  24  32
ATOM     32  C   UNL     1       0.880   6.021   1.628  0.00  0.00    +0.071 C 
ATOM     33  C   UNL     1       0.711   6.305   3.122  0.00  0.00    +0.028 C 
BRANCH  32  35
ATOM     34  C   UNL     1       2.199   6.594  -0.415  0.00  0.00    +0.005 C 
ATOM     35  C   UNL     1       2.102   6.777   1.101  0.00  0.00    +0.019 C 
ENDBRANCH  32  35
ENDBRANCH  24  32
ENDBRANCH  23  28
ENDBRANCH  22  23
ENDBRANCH   1  22
TORSDOF 8
