REMARK  Name = ZINC06074868
REMARK  11 active torsions:
REMARK  status: ('A' for Active; 'I' for Inactive)
REMARK    1  A    between atoms: C_1  and  C_2
REMARK    2  A    between atoms: C_2  and  C_3
REMARK    3  A    between atoms: C_2  and  C_4
REMARK    4  A    between atoms: C_2  and  N_5
REMARK    5  A    between atoms: C_6  and  C_8
REMARK    6  A    between atoms: C_8  and  C_10
REMARK    7  A    between atoms: C_8  and  N_17
REMARK    8  A    between atoms: N_17  and  C_18
REMARK    9  A    between atoms: C_25  and  C_27
REMARK   10  A    between atoms: C_28  and  N_35
REMARK   11  A    between atoms: C_29  and  C_32
REMARK                            x       y       z     vdW  Elec       q    Type
REMARK                         _______ _______ _______ _____ _____    ______ ____
ROOT
ATOM      1  N   UNL     1       3.279   1.716   0.796  0.00  0.00    -0.251 N 
ATOM      2  C   UNL     1       4.293   1.046   1.377  0.00  0.00    +0.262 C 
ATOM      3  O   UNL     1       4.725   0.030   0.864  0.00  0.00    -0.269 OA
ENDROOT
BRANCH   1   4
ATOM      4  C   UNL     1       2.703   2.815   1.444  0.00  0.00    +0.038 A 
ATOM      5  C   UNL     1       3.080   4.104   1.095  0.00  0.00    +0.026 A 
ATOM      6  C   UNL     1       2.507   5.187   1.732  0.00  0.00    +0.040 A 
ATOM      7  C   UNL     1       1.565   4.987   2.727  0.00  0.00    +0.124 A 
ATOM      8  C   UNL     1       1.191   3.702   3.081  0.00  0.00    +0.040 A 
ATOM      9  C   UNL     1       1.758   2.616   2.442  0.00  0.00    +0.026 A 
ATOM     10  F   UNL     1       1.009   6.048   3.352  0.00  0.00    -0.205 F 
ENDBRANCH   1   4
BRANCH   2  11
ATOM     11  C   UNL     1       4.876   1.540   2.627  0.00  0.00    +0.116 A 
ATOM     12  C   UNL     1       5.864   0.967   3.430  0.00  0.00    +0.076 A 
ATOM     13  C   UNL     1       6.158   1.744   4.550  0.00  0.00    +0.155 A 
ATOM     14  N   UNL     1       5.515   2.876   4.735  0.00  0.00    -0.203 NA
ATOM     15  S   UNL     1       4.519   3.036   3.524  0.00  0.00    +0.019 S 
BRANCH  13  16
ATOM     16  C   UNL     1       7.178   1.300   5.518  0.00  0.00    +0.262 C 
ATOM     17  O   UNL     1       7.768   0.251   5.341  0.00  0.00    -0.269 OA
ATOM     18  N   UNL     1       7.457   2.056   6.598  0.00  0.00    -0.324 N 
ATOM     19  H   UNL     1       6.986   2.892   6.739  0.00  0.00    +0.145 HD
ATOM     20  H   UNL     1       8.128   1.763   7.235  0.00  0.00    +0.145 HD
ENDBRANCH  13  16
BRANCH  12  21
ATOM     21  N   UNL     1       6.485  -0.241   3.144  0.00  0.00    -0.355 N 
ATOM     22  H   UNL     1       6.238  -0.738   2.348  0.00  0.00    +0.142 HD
ATOM     23  H   UNL     1       7.166  -0.590   3.741  0.00  0.00    +0.142 HD
ENDBRANCH  12  21
ENDBRANCH   2  11
BRANCH   1  24
ATOM     24  C   UNL     1       2.778   1.294  -0.515  0.00  0.00    +0.197 C 
BRANCH  24  25
ATOM     25  C   UNL     1       1.287   1.091  -0.441  0.00  0.00    -0.018 A 
ATOM     26  C   UNL     1       0.763  -0.189  -0.447  0.00  0.00    +0.007 A 
ATOM     27  C   UNL     1      -0.605  -0.375  -0.385  0.00  0.00    +0.020 A 
ATOM     28  C   UNL     1      -1.450   0.718  -0.307  0.00  0.00    +0.041 A 
ATOM     29  C   UNL     1      -0.925   1.998  -0.302  0.00  0.00    +0.020 A 
ATOM     30  C   UNL     1       0.443   2.184  -0.369  0.00  0.00    +0.007 A 
ATOM     31 CL   UNL     1      -3.168   0.484  -0.224  0.00  0.00    -0.084 Cl
ENDBRANCH  24  25
BRANCH  24  33
ATOM     32  N   UNL     1       2.722   2.183  -2.822  0.00  0.00    -0.309 N 
ATOM     33  C   UNL     1       3.091   2.356  -1.537  0.00  0.00    +0.239 C 
ATOM     34  O   UNL     1       3.674   3.366  -1.204  0.00  0.00    -0.273 OA
ATOM     35  H   UNL     1       2.256   1.376  -3.089  0.00  0.00    +0.149 HD
BRANCH  32  37
ATOM     36  C   UNL     1       4.540   3.422  -3.891  0.00  0.00    +0.031 C 
ATOM     37  C   UNL     1       3.026   3.216  -3.816  0.00  0.00    +0.026 C 
ATOM     38  C   UNL     1       2.503   2.775  -5.185  0.00  0.00    +0.031 C 
ATOM     39  C   UNL     1       2.352   4.528  -3.411  0.00  0.00    +0.031 C 
ENDBRANCH  32  37
ENDBRANCH  24  33
ENDBRANCH   1  24
TORSDOF 8
