REMARK  Name = ZINC09317332
REMARK  4 active torsions:
REMARK  status: ('A' for Active; 'I' for Inactive)
REMARK    1  A    between atoms: C_1  and  C_2
REMARK    2  A    between atoms: C_2  and  C_3
REMARK    3  A    between atoms: C_2  and  C_4
REMARK    4  A    between atoms: C_7  and  C_10
REMARK                            x       y       z     vdW  Elec       q    Type
REMARK                         _______ _______ _______ _____ _____    ______ ____
ROOT
ATOM      1  C   UNL     1      -4.855   3.732   0.046  0.00  0.00    +0.074 C 
ATOM      2  C   UNL     1      -3.558   2.954   0.036  0.00  0.00    +0.069 A 
ATOM      3  C   UNL     1      -3.554   1.559   0.028  0.00  0.00    +0.259 A 
ATOM      4  O   UNL     1      -4.601   0.932   0.029  0.00  0.00    -0.267 OA
ATOM      5  N   UNL     1      -2.365   0.918   0.018  0.00  0.00    -0.295 N 
ATOM      6  H   UNL     1      -2.335  -0.052   0.012  0.00  0.00    +0.172 HD
ATOM      7  C   UNL     1      -1.207   1.635   0.017  0.00  0.00    +0.195 A 
ATOM      8  N   UNL     1      -1.202   2.948   0.029  0.00  0.00    -0.197 NA
ATOM      9  C   UNL     1      -2.353   3.652   0.034  0.00  0.00    +0.165 A 
ATOM     10  N   UNL     1      -2.311   5.001   0.042  0.00  0.00    -0.231 NA
ATOM     11  C   UNL     1      -3.354   5.790   0.051  0.00  0.00    +0.063 C 
ATOM     12  C   UNL     1      -4.714   5.241   0.054  0.00  0.00    +0.121 C 
ATOM     13  C   UNL     1      -5.602   6.254   0.064  0.00  0.00    +0.174 C 
ATOM     14  C   UNL     1      -4.878   7.545   0.068  0.00  0.00    +0.027 A 
ATOM     15  C   UNL     1      -3.498   7.271   0.060  0.00  0.00    +0.008 A 
ATOM     16  C   UNL     1      -2.585   8.309   0.062  0.00  0.00    +0.010 A 
ATOM     17  C   UNL     1      -3.034   9.624   0.072  0.00  0.00    +0.001 A 
ATOM     18  C   UNL     1      -4.386   9.898   0.079  0.00  0.00    +0.001 A 
ATOM     19  C   UNL     1      -5.313   8.864   0.078  0.00  0.00    +0.012 A 
ATOM     20  O   UNL     1      -6.948   6.113   0.069  0.00  0.00    -0.291 OA
ATOM     21  N   UNL     1      -0.011   0.966   0.007  0.00  0.00    -0.329 N 
ATOM     22  H   UNL     1       0.002  -0.004   0.002  0.00  0.00    +0.145 HD
ATOM     23  H   UNL     1       0.822   1.462   0.002  0.00  0.00    +0.145 HD
ENDROOT
BRANCH   1  27
ATOM     24  C   UNL     1      -7.112   2.617  -3.405  0.00  0.00    -0.045 A 
ATOM     25  C   UNL     1      -7.635   2.412  -2.141  0.00  0.00    +0.004 A 
ATOM     26  C   UNL     1      -6.904   2.773  -1.025  0.00  0.00    +0.004 A 
ATOM     27  C   UNL     1      -5.651   3.338  -1.171  0.00  0.00    -0.039 A 
ATOM     28  C   UNL     1      -5.131   3.548  -2.435  0.00  0.00    +0.004 A 
ATOM     29  C   UNL     1      -5.859   3.182  -3.551  0.00  0.00    +0.004 A 
BRANCH  24  31
ATOM     30  C   UNL     1      -8.160   3.460  -5.488  0.00  0.00    +0.012 C 
ATOM     31  C   UNL     1      -7.909   2.224  -4.622  0.00  0.00    +0.013 C 
ATOM     32  C   UNL     1      -7.128   1.186  -5.430  0.00  0.00    +0.012 C 
ENDBRANCH  24  31
ENDBRANCH   1  27
TORSDOF 2
