REMARK  Name = ZINC04897140
REMARK  6 active torsions:
REMARK  status: ('A' for Active; 'I' for Inactive)
REMARK    1  A    between atoms: C_1  and  C_2
REMARK    2  A    between atoms: C_2  and  C_4
REMARK    3  A    between atoms: C_2  and  O_31
REMARK    4  A    between atoms: C_10  and  C_30
REMARK    5  A    between atoms: C_22  and  C_29
REMARK    6  A    between atoms: C_25  and  O_28
REMARK                            x       y       z     vdW  Elec       q    Type
REMARK                         _______ _______ _______ _____ _____    ______ ____
ROOT
ATOM      1  C   UNL     1      -0.173   1.279   2.573  0.00  0.00    +0.024 C 
ATOM      2  C   UNL     1      -1.388   1.207   3.533  0.00  0.00    +0.007 C 
ATOM      3  C   UNL     1      -2.661   1.338   2.649  0.00  0.00    +0.005 C 
ATOM      4  C   UNL     1      -2.146   0.911   1.271  0.00  0.00    -0.001 C 
ATOM      5  C   UNL     1      -0.776   1.618   1.205  0.00  0.00    -0.017 C 
ATOM      6  C   UNL     1      -0.058   1.083  -0.017  0.00  0.00    +0.082 C 
ATOM      7  C   UNL     1      -0.857   1.577  -1.224  0.00  0.00    +0.138 C 
ATOM      8  O   UNL     1      -0.276   1.752  -2.282  0.00  0.00    -0.297 OA
ATOM      9  C   UNL     1      -2.322   1.856  -1.086  0.00  0.00    +0.065 C 
ATOM     10  C   UNL     1      -3.000   1.146   0.074  0.00  0.00    +0.003 C 
ATOM     11  C   UNL     1      -4.330   1.826   0.405  0.00  0.00    +0.005 C 
ATOM     12  C   UNL     1      -5.052   2.164  -0.912  0.00  0.00    +0.004 C 
ATOM     13  C   UNL     1      -4.538   1.218  -1.983  0.00  0.00    -0.002 C 
ATOM     14  C   UNL     1      -3.099   1.573  -2.371  0.00  0.00    -0.019 C 
ATOM     15  C   UNL     1      -2.538   0.422  -3.193  0.00  0.00    +0.010 C 
ATOM     16  C   UNL     1      -3.393   0.226  -4.449  0.00  0.00    +0.032 C 
ATOM     17  C   UNL     1      -4.863   0.007  -4.111  0.00  0.00    +0.115 C 
ATOM     18  C   UNL     1      -5.410   1.133  -3.224  0.00  0.00    +0.035 C 
ATOM     19  C   UNL     1      -3.080   2.856  -3.206  0.00  0.00    +0.012 C 
ATOM     20  C   UNL     1      -0.917   3.141   1.129  0.00  0.00    +0.012 C 
ENDROOT
BRANCH   1  22
ATOM     21  C   UNL     1       1.147  -0.343   3.932  0.00  0.00    +0.038 C 
ATOM     22  C   UNL     1       0.567  -0.054   2.546  0.00  0.00    +0.115 C 
BRANCH  22  23
ATOM     23  O   UNL     1       1.627   0.008   1.589  0.00  0.00    -0.392 OA
ATOM     24  H   UNL     1       2.282   0.695   1.773  0.00  0.00    +0.210 HD
ENDBRANCH  22  23
ENDBRANCH   1  22
BRANCH  17  25
ATOM     25  O   UNL     1      -5.623  -0.044  -5.321  0.00  0.00    -0.392 OA
ATOM     26  H   UNL     1      -5.358  -0.753  -5.923  0.00  0.00    +0.210 HD
ENDBRANCH  17  25
TORSDOF 3
