REMARK  Name = ZINC56904053
REMARK  8 active torsions:
REMARK  status: ('A' for Active; 'I' for Inactive)
REMARK    1  A    between atoms: C_1  and  C_2
REMARK    2  A    between atoms: C_2  and  N_3
REMARK    3  A    between atoms: N_3  and  C_4
REMARK    4  A    between atoms: C_4  and  C_5
REMARK    5  A    between atoms: N_13  and  C_14
REMARK    6  A    between atoms: C_14  and  C_16
REMARK    7  A    between atoms: C_14  and  C_17
REMARK    8  A    between atoms: C_18  and  C_26
REMARK                            x       y       z     vdW  Elec       q    Type
REMARK                         _______ _______ _______ _____ _____    ______ ____
ROOT
ATOM      1  N   UNL     1       0.713  -0.504  -1.384  0.00  0.00    -0.286 N 
ATOM      2  C   UNL     1       0.108  -0.617  -2.583  0.00  0.00    +0.303 C 
ATOM      3  O   UNL     1       0.743  -0.983  -3.553  0.00  0.00    -0.253 OA
ATOM      4  N   UNL     1      -1.202  -0.324  -2.707  0.00  0.00    -0.290 N 
ATOM      5  H   UNL     1      -1.709  -0.032  -1.933  0.00  0.00    +0.151 HD
ENDROOT
BRANCH   1   7
ATOM      6  C   UNL     1      -0.111   1.361  -0.033  0.00  0.00    +0.024 C 
ATOM      7  C   UNL     1      -0.073  -0.160  -0.196  0.00  0.00    +0.106 C 
ENDBRANCH   1   7
BRANCH   4   8
ATOM      8  C   UNL     1      -1.860  -0.447  -4.010  0.00  0.00    +0.138 C 
ATOM      9  C   UNL     1      -2.314  -1.893  -4.218  0.00  0.00    +0.036 C 
BRANCH   8  10
ATOM     10  C   UNL     1      -3.057   0.467  -4.056  0.00  0.00    +0.129 A 
ATOM     11  C   UNL     1      -3.375   1.264  -5.086  0.00  0.00    +0.000 A 
ATOM     12  C   UNL     1      -4.605   1.964  -4.697  0.00  0.00    +0.023 A 
ATOM     13  C   UNL     1      -5.425   2.908  -5.312  0.00  0.00    +0.012 A 
ATOM     14  C   UNL     1      -6.532   3.373  -4.659  0.00  0.00    +0.001 A 
ATOM     15  C   UNL     1      -6.843   2.912  -3.388  0.00  0.00    +0.004 A 
ATOM     16  C   UNL     1      -6.044   1.978  -2.763  0.00  0.00    +0.047 A 
ATOM     17  C   UNL     1      -4.915   1.492  -3.410  0.00  0.00    +0.136 A 
ATOM     18  O   UNL     1      -3.965   0.597  -3.073  0.00  0.00    -0.458 OA
ATOM     19  C   UNL     1      -2.621   1.411  -6.382  0.00  0.00    +0.048 C 
ENDBRANCH   8  10
ENDBRANCH   4   8
BRANCH   1  20
ATOM     20  C   UNL     1       2.156  -0.725  -1.268  0.00  0.00    +0.115 C 
BRANCH  20  21
ATOM     21  C   UNL     1       2.417  -2.161  -0.808  0.00  0.00    +0.034 C 
ATOM     22  C   UNL     1       3.937  -2.415  -0.661  0.00  0.00    +0.035 C 
ATOM     23  C   UNL     1       4.085  -3.846  -1.238  0.00  0.00    +0.160 C 
ATOM     24  O   UNL     1       3.143  -3.866  -2.332  0.00  0.00    -0.379 OA
ATOM     25  C   UNL     1       1.966  -3.164  -1.888  0.00  0.00    +0.165 C 
ENDBRANCH  20  21
ENDBRANCH   1  20
TORSDOF 5
