REMARK  Name = ZINC36633794
REMARK  6 active torsions:
REMARK  status: ('A' for Active; 'I' for Inactive)
REMARK    1  A    between atoms: N_11  and  C_15
REMARK    2  A    between atoms: C_15  and  C_16
REMARK    3  A    between atoms: C_16  and  C_17
REMARK    4  A    between atoms: N_19  and  C_20
REMARK    5  A    between atoms: C_23  and  S_26
REMARK    6  A    between atoms: S_26  and  N_29
REMARK                            x       y       z     vdW  Elec       q    Type
REMARK                         _______ _______ _______ _____ _____    ______ ____
ROOT
ATOM      1  C   UNL     1       0.036   1.373   0.017  0.00  0.00    +0.001 A 
ATOM      2  C   UNL     1       1.229   2.072   0.013  0.00  0.00    +0.004 A 
ATOM      3  C   UNL     1       2.428   1.390   0.004  0.00  0.00    +0.046 A 
ATOM      4  C   UNL     1       2.442  -0.001  -0.004  0.00  0.00    +0.124 A 
ATOM      5  C   UNL     1       1.246  -0.699  -0.004  0.00  0.00    +0.003 A 
ATOM      6  C   UNL     1       0.046  -0.008   0.009  0.00  0.00    +0.008 A 
ATOM      7  C   UNL     1       1.222  -2.204  -0.021  0.00  0.00    +0.069 C 
ATOM      8  C   UNL     1       0.118  -2.734   0.822  0.00  0.00    +0.033 A 
ATOM      9  C   UNL     1       0.179  -3.344   2.023  0.00  0.00    +0.090 A 
ATOM     10  N   UNL     1      -1.032  -3.720   2.551  0.00  0.00    -0.296 N 
ATOM     11  C   UNL     1      -2.167  -3.474   1.870  0.00  0.00    +0.292 A 
ATOM     12  O   UNL     1      -3.312  -3.739   2.189  0.00  0.00    -0.259 OA
ATOM     13  S   UNL     1      -1.623  -2.712   0.472  0.00  0.00    -0.030 S 
ATOM     14  S   UNL     1       1.746  -3.616   2.822  0.00  0.00    -0.106 S 
ATOM     15  C   UNL     1       2.847  -2.530   1.865  0.00  0.00    +0.083 C 
ATOM     16  C   UNL     1       2.579  -2.759   0.394  0.00  0.00    +0.049 C 
ATOM     17  C   UNL     1       3.667  -2.015  -0.394  0.00  0.00    +0.234 C 
ATOM     18  O   UNL     1       3.641  -0.640  -0.008  0.00  0.00    -0.491 OA
ENDROOT
BRANCH  10  19
ATOM     19  C   UNL     1      -1.088  -4.388   3.853  0.00  0.00    +0.135 C 
BRANCH  19  20
ATOM     20  C   UNL     1      -1.222  -3.340   4.959  0.00  0.00    +0.118 C 
BRANCH  20  21
ATOM     21  C   UNL     1      -1.280  -4.027   6.299  0.00  0.00    +0.219 C 
ATOM     22  O   UNL     1      -1.221  -5.237   6.363  0.00  0.00    -0.275 OA
ATOM     23  N   UNL     1      -1.399  -3.297   7.426  0.00  0.00    -0.285 N 
ATOM     24  H   UNL     1      -1.379  -2.329   7.381  0.00  0.00    +0.155 HD
BRANCH  23  25
ATOM     25  C   UNL     1      -1.550  -3.938   8.661  0.00  0.00    +0.033 A 
ATOM     26  C   UNL     1      -2.354  -3.374   9.643  0.00  0.00    +0.025 A 
ATOM     27  C   UNL     1      -2.502  -4.008  10.861  0.00  0.00    +0.030 A 
ATOM     28  C   UNL     1      -1.850  -5.203  11.103  0.00  0.00    +0.105 A 
ATOM     29  C   UNL     1      -1.048  -5.767  10.128  0.00  0.00    +0.030 A 
ATOM     30  C   UNL     1      -0.901  -5.141   8.905  0.00  0.00    +0.025 A 
BRANCH  28  31
ATOM     31  S   UNL     1      -2.040  -6.009  12.658  0.00  0.00    +0.056 S 
ATOM     32  O   UNL     1      -0.895  -6.832  12.832  0.00  0.00    -0.153 OA
ATOM     33  O   UNL     1      -2.406  -5.005  13.594  0.00  0.00    -0.153 OA
BRANCH  31  34
ATOM     34  N   UNL     1      -3.339  -7.028  12.526  0.00  0.00    -0.204 NA
ATOM     35  H   UNL     1      -3.828  -7.084  11.690  0.00  0.00    +0.144 HD
ATOM     36  H   UNL     1      -3.611  -7.569  13.284  0.00  0.00    +0.144 HD
ENDBRANCH  31  34
ENDBRANCH  28  31
ENDBRANCH  23  25
ENDBRANCH  20  21
ENDBRANCH  19  20
ENDBRANCH  10  19
TORSDOF 6
