REMARK  Name = ZINC20830230
REMARK  5 active torsions:
REMARK  status: ('A' for Active; 'I' for Inactive)
REMARK    1  A    between atoms: C_1  and  C_2
REMARK    2  A    between atoms: C_2  and  C_3
REMARK    3  A    between atoms: C_2  and  N_4
REMARK    4  A    between atoms: C_13  and  C_15
REMARK    5  A    between atoms: C_19  and  N_21
REMARK                            x       y       z     vdW  Elec       q    Type
REMARK                         _______ _______ _______ _____ _____    ______ ____
ROOT
ATOM      1  N   UNL     1      -1.376  -0.512   0.012  0.00  0.00    -0.295 NA
ATOM      2  C   UNL     1      -1.395  -1.982  -0.003  0.00  0.00    +0.091 C 
ATOM      3  C   UNL     1      -2.785  -2.500   0.382  0.00  0.00    +0.071 C 
ATOM      4  C   UNL     1      -3.811  -1.801  -0.499  0.00  0.00    +0.056 A 
ATOM      5  C   UNL     1      -3.468  -0.661  -1.156  0.00  0.00    +0.028 A 
ATOM      6  S   UNL     1      -4.957  -0.251  -2.019  0.00  0.00    -0.055 S 
ATOM      7  C   UNL     1      -5.888  -1.549  -1.479  0.00  0.00    +0.165 A 
ATOM      8  N   UNL     1      -5.058  -2.209  -0.699  0.00  0.00    -0.229 NA
ATOM      9  N   UNL     1      -7.210  -1.849  -1.782  0.00  0.00    -0.261 N 
ATOM     10  C   UNL     1      -7.793  -2.941  -1.250  0.00  0.00    +0.250 C 
ATOM     11  O   UNL     1      -7.161  -3.664  -0.505  0.00  0.00    -0.270 OA
ATOM     12  C   UNL     1      -2.150   0.033  -1.121  0.00  0.00    +0.129 C 
ATOM     13  H   UNL     1      -7.714  -1.272  -2.378  0.00  0.00    +0.157 HD
ENDROOT
BRANCH  10  14
ATOM     14  C   UNL     1      -9.199  -3.260  -1.573  0.00  0.00    +0.039 A 
ATOM     15  C   UNL     1      -9.925  -2.435  -2.434  0.00  0.00    +0.013 A 
ATOM     16  C   UNL     1     -11.237  -2.738  -2.732  0.00  0.00    +0.003 A 
ATOM     17  C   UNL     1     -11.834  -3.858  -2.179  0.00  0.00    +0.033 A 
ATOM     18  C   UNL     1     -11.120  -4.680  -1.326  0.00  0.00    +0.127 A 
ATOM     19  C   UNL     1      -9.806  -4.391  -1.024  0.00  0.00    +0.045 A 
BRANCH  18  20
ATOM     20  N   UNL     1     -11.767  -5.875  -0.739  0.00  0.00    +0.056 N 
ATOM     21  O   UNL     1     -12.918  -6.132  -1.006  0.00  0.00    -0.126 OA
ATOM     22  O   UNL     1     -11.145  -6.595   0.007  0.00  0.00    -0.126 OA
ENDBRANCH  18  20
ENDBRANCH  10  14
BRANCH   1  24
ATOM     23  C   UNL     1      -0.019   1.526   0.010  0.00  0.00    +0.024 C 
ATOM     24  C   UNL     1       0.002  -0.004   0.002  0.00  0.00    +0.051 C 
ATOM     25  C   UNL     1       0.742  -0.511   1.242  0.00  0.00    +0.024 C 
ENDBRANCH   1  24
TORSDOF 3
