REMARK  Name = ZINC35399197
REMARK  8 active torsions:
REMARK  status: ('A' for Active; 'I' for Inactive)
REMARK    1  A    between atoms: C_4  and  N_7
REMARK    2  A    between atoms: C_13  and  C_16
REMARK    3  A    between atoms: C_16  and  C_17
REMARK    4  A    between atoms: N_19  and  C_20
REMARK    5  A    between atoms: C_20  and  C_21
REMARK    6  A    between atoms: C_21  and  C_22
REMARK    7  A    between atoms: C_22  and  N_23
REMARK    8  A    between atoms: C_26  and  N_29
REMARK                            x       y       z     vdW  Elec       q    Type
REMARK                         _______ _______ _______ _____ _____    ______ ____
ROOT
ATOM      1  C   UNL     1       4.473  -5.654   7.288  0.00  0.00    +0.213 C 
ATOM      2  O   UNL     1       5.437  -5.834   6.574  0.00  0.00    -0.276 OA
ATOM      3  N   UNL     1       4.157  -6.559   8.236  0.00  0.00    -0.315 N 
ATOM      4  H   UNL     1       3.386  -6.415   8.806  0.00  0.00    +0.149 HD
ENDROOT
BRANCH   1   5
ATOM      5  C   UNL     1       3.627  -4.419   7.115  0.00  0.00    +0.099 C 
BRANCH   5  12
ATOM      6  N   UNL     1       3.404  -2.449   1.298  0.00  0.00    -0.296 N 
ATOM      7  C   UNL     1       3.471  -1.681   2.404  0.00  0.00    +0.302 C 
ATOM      8  O   UNL     1       3.024  -0.550   2.387  0.00  0.00    -0.253 OA
ATOM      9  N   UNL     1       4.034  -2.166   3.528  0.00  0.00    -0.286 N 
ATOM     10  C   UNL     1       4.012  -1.386   4.773  0.00  0.00    +0.109 C 
ATOM     11  C   UNL     1       3.416  -2.253   5.887  0.00  0.00    +0.023 C 
ATOM     12  C   UNL     1       4.198  -3.565   5.981  0.00  0.00    +0.001 C 
ATOM     13  C   UNL     1       4.079  -4.328   4.659  0.00  0.00    +0.023 C 
ATOM     14  C   UNL     1       4.677  -3.487   3.533  0.00  0.00    +0.109 C 
ATOM     15  H   UNL     1       3.825  -3.322   1.288  0.00  0.00    +0.151 HD
BRANCH   6  19
ATOM     16  C   UNL     1       2.421  -1.782  -2.800  0.00  0.00    +0.000 C 
ATOM     17  C   UNL     1       1.480  -2.650  -1.961  0.00  0.00    +0.002 C 
ATOM     18  C   UNL     1       2.221  -3.156  -0.722  0.00  0.00    +0.022 C 
ATOM     19  C   UNL     1       2.694  -1.964   0.112  0.00  0.00    +0.074 C 
ATOM     20  C   UNL     1       3.635  -1.096  -0.727  0.00  0.00    +0.022 C 
ATOM     21  C   UNL     1       2.893  -0.590  -1.965  0.00  0.00    +0.002 C 
ENDBRANCH   6  19
ENDBRANCH   5  12
ENDBRANCH   1   5
BRANCH   3  22
ATOM     22  C   UNL     1       4.979  -7.760   8.404  0.00  0.00    +0.102 C 
BRANCH  22  23
ATOM     23  C   UNL     1       4.408  -8.614   9.538  0.00  0.00    +0.000 C 
BRANCH  23  24
ATOM     24  C   UNL     1       5.267  -9.868   9.714  0.00  0.00    -0.077 C 
BRANCH  24  25
ATOM     25  N   UNL     1       4.719 -10.688  10.803  0.00  0.00    +0.380 N 
ATOM     26  C   UNL     1       4.827  -9.952  12.069  0.00  0.00    -0.077 C 
ATOM     27  C   UNL     1       4.184 -10.767  13.193  0.00  0.00    +0.000 C 
ATOM     28  C   UNL     1       4.907 -12.112  13.319  0.00  0.00    +0.053 C 
ATOM     29  C   UNL     1       4.852 -12.838  11.971  0.00  0.00    +0.000 C 
ATOM     30  C   UNL     1       5.470 -11.946  10.892  0.00  0.00    -0.077 C 
ATOM     31  H   UNL     1       3.748 -10.889  10.616  0.00  0.00    -0.082 HD
BRANCH  28  32
ATOM     32  N   UNL     1       4.247 -12.930  14.345  0.00  0.00    -0.300 NA
ATOM     33  C   UNL     1       4.184 -12.217  15.627  0.00  0.00    +0.084 C 
ATOM     34  C   UNL     1       3.366 -13.036  16.628  0.00  0.00    +0.015 C 
ATOM     35  C   UNL     1       4.022 -14.406  16.817  0.00  0.00    +0.002 C 
ATOM     36  C   UNL     1       4.119 -15.108  15.459  0.00  0.00    +0.015 C 
ATOM     37  C   UNL     1       4.915 -14.229  14.492  0.00  0.00    +0.084 C 
ENDBRANCH  28  32
ENDBRANCH  24  25
ENDBRANCH  23  24
ENDBRANCH  22  23
ENDBRANCH   3  22
TORSDOF 8
