REMARK  Name = ZINC38700488
REMARK  9 active torsions:
REMARK  status: ('A' for Active; 'I' for Inactive)
REMARK    1  A    between atoms: C_1  and  C_2
REMARK    2  A    between atoms: C_5  and  C_36
REMARK    3  A    between atoms: C_6  and  C_12
REMARK    4  A    between atoms: C_10  and  C_11
REMARK    5  A    between atoms: C_12  and  O_14
REMARK    6  A    between atoms: O_14  and  C_15
REMARK    7  A    between atoms: C_22  and  N_35
REMARK    8  A    between atoms: C_23  and  C_33
REMARK    9  A    between atoms: C_24  and  C_26
REMARK                            x       y       z     vdW  Elec       q    Type
REMARK                         _______ _______ _______ _____ _____    ______ ____
ROOT
ATOM      1  C   UNL     1       0.134  -7.864  -2.287  0.00  0.00    +0.136 A 
ATOM      2  C   UNL     1       0.204  -7.787  -3.671  0.00  0.00    +0.047 A 
ATOM      3  C   UNL     1       0.251  -8.943  -4.426  0.00  0.00    +0.012 A 
ATOM      4  C   UNL     1       0.229 -10.180  -3.807  0.00  0.00    +0.008 A 
ATOM      5  C   UNL     1       0.160 -10.263  -2.425  0.00  0.00    +0.138 A 
ATOM      6  C   UNL     1       0.118  -9.102  -1.665  0.00  0.00    +0.093 A 
ATOM      7  O   UNL     1       0.138 -11.467  -1.801  0.00  0.00    -0.441 OA
ATOM      8  C   UNL     1      -0.202 -12.571  -2.486  0.00  0.00    +0.199 C 
ATOM      9  C   UNL     1      -0.156 -12.618  -3.839  0.00  0.00    +0.098 C 
ATOM     10  C   UNL     1       0.281 -11.429  -4.647  0.00  0.00    +0.098 C 
ENDROOT
BRANCH  10  11
ATOM     11  C   UNL     1       1.692 -11.646  -5.131  0.00  0.00    -0.032 A 
ATOM     12  C   UNL     1       2.717 -11.816  -4.220  0.00  0.00    +0.005 A 
ATOM     13  C   UNL     1       4.011 -12.015  -4.662  0.00  0.00    +0.003 A 
ATOM     14  C   UNL     1       4.282 -12.043  -6.017  0.00  0.00    +0.038 A 
ATOM     15  C   UNL     1       3.256 -11.872  -6.931  0.00  0.00    +0.124 A 
ATOM     16  C   UNL     1       1.959 -11.679  -6.487  0.00  0.00    +0.043 A 
ATOM     17  F   UNL     1       3.520 -11.899  -8.256  0.00  0.00    -0.205 F 
ENDBRANCH  10  11
BRANCH   8  18
ATOM     18  N   UNL     1      -0.607 -13.686  -1.795  0.00  0.00    -0.328 N 
ATOM     19  H   UNL     1      -0.644 -13.668  -0.826  0.00  0.00    +0.145 HD
ATOM     20  H   UNL     1      -0.855 -14.491  -2.275  0.00  0.00    +0.145 HD
ENDBRANCH   8  18
BRANCH   9  21
ATOM     21  C   UNL     1      -0.531 -13.824  -4.512  0.00  0.00    +0.101 C 
ATOM     22  N   UNL     1      -0.829 -14.782  -5.046  0.00  0.00    -0.191 NA
ENDBRANCH   9  21
BRANCH   1  23
ATOM     23  O   UNL     1       0.089  -6.728  -1.543  0.00  0.00    -0.420 OA
BRANCH  23  24
ATOM     24  C   UNL     1       1.217  -6.334  -0.918  0.00  0.00    +0.380 C 
ATOM     25  O   UNL     1       2.209  -7.036  -0.955  0.00  0.00    -0.241 OA
BRANCH  24  31
ATOM     26  C   UNL     1       2.501  -0.129   3.017  0.00  0.00    +0.044 C 
ATOM     27  C   UNL     1       1.827  -1.187   2.182  0.00  0.00    -0.047 A 
ATOM     28  C   UNL     1       2.524  -2.302   1.808  0.00  0.00    +0.015 A 
ATOM     29  C   UNL     1       1.898  -3.282   1.035  0.00  0.00    +0.024 A 
ATOM     30  C   UNL     1       2.324  -4.562   0.472  0.00  0.00    +0.010 A 
ATOM     31  C   UNL     1       1.248  -5.059  -0.193  0.00  0.00    +0.216 A 
ATOM     32  O   UNL     1       0.211  -4.201  -0.085  0.00  0.00    -0.448 OA
ATOM     33  C   UNL     1       0.555  -3.121   0.642  0.00  0.00    +0.137 A 
ATOM     34  C   UNL     1      -0.132  -1.979   1.035  0.00  0.00    +0.050 A 
ATOM     35  C   UNL     1       0.502  -1.026   1.803  0.00  0.00    -0.044 A 
ATOM     36  C   UNL     1      -0.250   0.208   2.230  0.00  0.00    +0.044 C 
ATOM     37  C   UNL     1       3.683  -5.202   0.602  0.00  0.00    +0.048 C 
ENDBRANCH  24  31
ENDBRANCH  23  24
ENDBRANCH   1  23
TORSDOF 6
