REMARK  Name = ZINC39666119
REMARK  9 active torsions:
REMARK  status: ('A' for Active; 'I' for Inactive)
REMARK    1  A    between atoms: C_1  and  C_2
REMARK    2  A    between atoms: C_5  and  O_8
REMARK    3  A    between atoms: O_8  and  C_9
REMARK    4  A    between atoms: C_9  and  C_11
REMARK    5  A    between atoms: C_9  and  C_12
REMARK    6  A    between atoms: C_12  and  N_13
REMARK    7  A    between atoms: C_14  and  C_16
REMARK    8  A    between atoms: C_27  and  C_29
REMARK    9  A    between atoms: C_32  and  C_37
REMARK                            x       y       z     vdW  Elec       q    Type
REMARK                         _______ _______ _______ _____ _____    ______ ____
ROOT
ATOM      1  C   UNL     1      -3.612  -6.973  -0.038  0.00  0.00    +0.100 C 
ATOM      2  C   UNL     1      -3.729  -6.451  -1.488  0.00  0.00    +0.121 C 
ATOM      3  N   UNL     1      -3.813  -7.673  -2.321  0.00  0.00    -0.296 N 
ATOM      4  C   UNL     1      -4.670  -8.595  -1.537  0.00  0.00    +0.115 C 
ATOM      5  C   UNL     1      -4.233  -8.379  -0.074  0.00  0.00    -0.004 C 
ATOM      6  C   UNL     1      -3.197  -9.425   0.326  0.00  0.00    -0.010 C 
ATOM      7  C   UNL     1      -3.854 -10.809   0.338  0.00  0.00    -0.082 C 
ATOM      8  N   UNL     1      -4.974 -10.812   1.287  0.00  0.00    +0.379 N 
ATOM      9  C   UNL     1      -6.009  -9.870   0.844  0.00  0.00    -0.082 C 
ATOM     10  C   UNL     1      -5.443  -8.447   0.853  0.00  0.00    -0.010 C 
ATOM     11  C   UNL     1      -3.240  -7.897  -3.520  0.00  0.00    +0.250 C 
ATOM     12  O   UNL     1      -2.633  -7.005  -4.079  0.00  0.00    -0.270 OA
ATOM     13  H   UNL     1      -5.367 -11.740   1.338  0.00  0.00    -0.086 HD
ATOM     14  H   UNL     1      -4.642 -10.540   2.199  0.00  0.00    -0.086 HD
ENDROOT
BRANCH  11  15
ATOM     15  C   UNL     1      -3.352  -9.226  -4.156  0.00  0.00    +0.075 A 
ATOM     16  C   UNL     1      -4.558  -9.928  -4.106  0.00  0.00    +0.016 A 
ATOM     17  C   UNL     1      -4.656 -11.168  -4.701  0.00  0.00    +0.007 A 
ATOM     18  C   UNL     1      -3.563 -11.720  -5.347  0.00  0.00    -0.012 A 
ATOM     19  C   UNL     1      -2.364 -11.033  -5.402  0.00  0.00    +0.162 A 
ATOM     20  C   UNL     1      -2.252  -9.784  -4.814  0.00  0.00    +0.171 A 
ATOM     21  F   UNL     1      -1.083  -9.109  -4.872  0.00  0.00    -0.202 F 
ATOM     22  F   UNL     1      -1.302 -11.579  -6.034  0.00  0.00    -0.202 F 
ATOM     23  C   UNL     1      -3.681 -13.077  -5.993  0.00  0.00    +0.047 C 
ENDBRANCH  11  15
BRANCH   1  25
ATOM     24  N   UNL     1      -1.837  -7.018   1.684  0.00  0.00    -0.312 N 
ATOM     25  C   UNL     1      -2.165  -7.049   0.377  0.00  0.00    +0.218 C 
ATOM     26  O   UNL     1      -1.296  -7.139  -0.465  0.00  0.00    -0.275 OA
ATOM     27  H   UNL     1      -2.531  -6.947   2.357  0.00  0.00    +0.149 HD
BRANCH  24  28
ATOM     28  C   UNL     1      -0.430  -7.092   2.087  0.00  0.00    +0.148 C 
BRANCH  28  29
ATOM     29  C   UNL     1      -0.334  -7.038   3.613  0.00  0.00    +0.187 C 
ATOM     30  C   UNL     1       1.135  -7.115   4.035  0.00  0.00    +0.053 C 
BRANCH  29  31
ATOM     31  O   UNL     1      -0.900  -5.812   4.082  0.00  0.00    -0.488 OA
BRANCH  31  36
ATOM     32  C   UNL     1      -2.810  -5.742   9.381  0.00  0.00    +0.044 C 
ATOM     33  C   UNL     1      -2.300  -5.761   7.963  0.00  0.00    -0.050 A 
ATOM     34  C   UNL     1      -1.770  -6.924   7.436  0.00  0.00    +0.007 A 
ATOM     35  C   UNL     1      -1.301  -6.944   6.137  0.00  0.00    +0.046 A 
ATOM     36  C   UNL     1      -1.362  -5.796   5.361  0.00  0.00    +0.121 A 
ATOM     37  C   UNL     1      -1.894  -4.630   5.892  0.00  0.00    +0.046 A 
ATOM     38  C   UNL     1      -2.367  -4.617   7.190  0.00  0.00    +0.007 A 
ENDBRANCH  31  36
ENDBRANCH  29  31
ENDBRANCH  28  29
ENDBRANCH  24  28
ENDBRANCH   1  25
TORSDOF 6
