REMARK  Name = ZINC64664333
REMARK  4 active torsions:
REMARK  status: ('A' for Active; 'I' for Inactive)
REMARK    1  A    between atoms: C_5  and  C_7
REMARK    2  A    between atoms: C_10  and  C_12
REMARK    3  A    between atoms: C_13  and  N_24
REMARK    4  A    between atoms: N_14  and  C_17
REMARK                            x       y       z     vdW  Elec       q    Type
REMARK                         _______ _______ _______ _____ _____    ______ ____
ROOT
ATOM      1  C   UNL     1       3.618  -5.030  -0.054  0.00  0.00    +0.159 A 
ATOM      2  C   UNL     1       3.583  -6.414  -0.068  0.00  0.00    +0.150 A 
ATOM      3  N   UNL     1       4.882  -6.829  -0.076  0.00  0.00    -0.198 N 
ATOM      4  N   UNL     1       5.674  -5.672  -0.067  0.00  0.00    -0.058 NA
ATOM      5  N   UNL     1       4.904  -4.642  -0.059  0.00  0.00    -0.125 NA
ENDROOT
BRANCH   3   6
ATOM      6  C   UNL     1       5.338  -8.155  -0.090  0.00  0.00    +0.072 A 
ATOM      7  C   UNL     1       4.631  -9.140   0.587  0.00  0.00    +0.028 A 
ATOM      8  C   UNL     1       5.081 -10.446   0.572  0.00  0.00    +0.005 A 
ATOM      9  C   UNL     1       6.234 -10.775  -0.116  0.00  0.00    +0.038 A 
ATOM     10  C   UNL     1       6.941  -9.795  -0.793  0.00  0.00    +0.125 A 
ATOM     11  C   UNL     1       6.492  -8.487  -0.786  0.00  0.00    +0.066 A 
ATOM     12  F   UNL     1       8.068 -10.118  -1.464  0.00  0.00    -0.205 F 
ENDBRANCH   3   6
BRANCH   1  16
ATOM     13  C   UNL     1       1.246  -2.165  -0.023  0.00  0.00    +0.080 A 
ATOM     14  C   UNL     1       0.077  -2.876  -0.020  0.00  0.00    +0.075 A 
ATOM     15  S   UNL     1       0.706  -4.550  -0.034  0.00  0.00    -0.073 S 
ATOM     16  C   UNL     1       2.444  -4.135  -0.042  0.00  0.00    +0.132 A 
ATOM     17  N   UNL     1       2.400  -2.811  -0.039  0.00  0.00    -0.237 NA
BRANCH  13  22
ATOM     18  C   UNL     1      -0.017   1.376   0.010  0.00  0.00    +0.001 A 
ATOM     19  C   UNL     1       1.170   2.087   0.002  0.00  0.00    +0.001 A 
ATOM     20  C   UNL     1       2.382   1.421  -0.013  0.00  0.00    +0.020 A 
ATOM     21  C   UNL     1       2.413   0.039  -0.022  0.00  0.00    +0.050 A 
ATOM     22  C   UNL     1       1.220  -0.682  -0.014  0.00  0.00    +0.019 A 
ATOM     23  C   UNL     1       0.002  -0.004   0.002  0.00  0.00    +0.011 A 
ATOM     24 CL   UNL     1       3.935  -0.796  -0.043  0.00  0.00    -0.083 Cl
ENDBRANCH  13  22
ENDBRANCH   1  16
BRANCH   2  25
ATOM     25  N   UNL     1       2.453  -7.217  -0.072  0.00  0.00    -0.341 N 
ATOM     26  H   UNL     1       1.571  -6.814  -0.066  0.00  0.00    +0.144 HD
ATOM     27  H   UNL     1       2.545  -8.183  -0.082  0.00  0.00    +0.144 HD
ENDBRANCH   2  25
TORSDOF 4
