REMARK  Name = ZINC20351756
REMARK  10 active torsions:
REMARK  status: ('A' for Active; 'I' for Inactive)
REMARK    1  A    between atoms: C_1  and  C_2
REMARK    2  A    between atoms: C_2  and  O_3
REMARK    3  A    between atoms: O_3  and  C_4
REMARK    4  A    between atoms: C_4  and  C_6
REMARK    5  A    between atoms: C_7  and  C_35
REMARK    6  A    between atoms: C_11  and  C_13
REMARK    7  A    between atoms: C_25  and  C_31
REMARK    8  A    between atoms: C_27  and  C_30
REMARK    9  A    between atoms: C_31  and  O_33
REMARK   10  A    between atoms: O_33  and  C_34
REMARK                            x       y       z     vdW  Elec       q    Type
REMARK                         _______ _______ _______ _____ _____    ______ ____
ROOT
ATOM      1  C   UNL     1       0.051  -0.095  -0.035  0.00  0.00    +0.065 C 
ATOM      2  C   UNL     1       1.209  -0.681  -0.385  0.00  0.00    +0.016 C 
ATOM      3  N   UNL     1       2.298   0.077  -0.715  0.00  0.00    -0.321 N 
ATOM      4  C   UNL     1       2.377   1.388  -0.329  0.00  0.00    +0.016 C 
ATOM      5  C   UNL     1       1.266   2.065   0.030  0.00  0.00    +0.025 C 
ATOM      6  C   UNL     1      -0.086   1.399  -0.001  0.00  0.00    +0.093 C 
ATOM      7  C   UNL     1       1.337   3.407   0.444  0.00  0.00    +0.176 C 
ATOM      8  O   UNL     1       0.316   3.990   0.754  0.00  0.00    -0.291 OA
ATOM      9  C   UNL     1       2.652   4.135   0.510  0.00  0.00    +0.171 C 
ATOM     10  C   UNL     1       3.769   3.121   0.778  0.00  0.00    +0.013 C 
ATOM     11  C   UNL     1       3.731   2.054  -0.319  0.00  0.00    +0.055 C 
ATOM     12  C   UNL     1       3.557   2.463   2.143  0.00  0.00    +0.009 C 
ATOM     13  C   UNL     1       1.308  -2.185  -0.414  0.00  0.00    +0.061 C 
ATOM     14  H   UNL     1       3.120  -0.365  -1.296  0.00  0.00    +0.152 HD
ENDROOT
BRANCH   6  15
ATOM     15  C   UNL     1      -0.835   1.854  -1.227  0.00  0.00    -0.018 A 
ATOM     16  C   UNL     1      -0.323   1.593  -2.485  0.00  0.00    +0.055 A 
ATOM     17  C   UNL     1      -1.012   2.007  -3.613  0.00  0.00    +0.167 A 
ATOM     18  C   UNL     1      -2.216   2.695  -3.477  0.00  0.00    +0.167 A 
ATOM     19  C   UNL     1      -2.720   2.957  -2.214  0.00  0.00    +0.065 A 
ATOM     20  C   UNL     1      -2.029   2.538  -1.091  0.00  0.00    +0.026 A 
ATOM     21 BR   UNL     1      -2.720   2.898   0.632  0.00  0.00    -0.050 Br
ATOM     22  O   UNL     1      -2.690   2.994  -4.721  0.00  0.00    -0.453 OA
ATOM     23  C   UNL     1      -1.566   2.843  -5.608  0.00  0.00    +0.466 C 
ATOM     24  O   UNL     1      -0.733   1.875  -4.943  0.00  0.00    -0.453 OA
ENDBRANCH   6  15
BRANCH   1  25
ATOM     25  C   UNL     1      -1.058  -0.902   0.309  0.00  0.00    +0.338 C 
ATOM     26  O   UNL     1      -0.994  -2.111   0.184  0.00  0.00    -0.245 OA
BRANCH  25  27
ATOM     27  O   UNL     1      -2.188  -0.331   0.776  0.00  0.00    -0.462 OA
BRANCH  27  29
ATOM     28  C   UNL     1      -4.455  -0.384   1.613  0.00  0.00    +0.048 C 
ATOM     29  C   UNL     1      -3.270  -1.206   1.104  0.00  0.00    +0.229 C 
ENDBRANCH  27  29
ENDBRANCH  25  27
ENDBRANCH   1  25
BRANCH   9  30
ATOM     30  C   UNL     1       2.612   5.147   1.625  0.00  0.00    +0.318 C 
ATOM     31  O   UNL     1       3.396   5.069   2.541  0.00  0.00    -0.250 OA
BRANCH  30  32
ATOM     32  O   UNL     1       1.705   6.137   1.601  0.00  0.00    -0.467 OA
ATOM     33  C   UNL     1       1.725   7.076   2.708  0.00  0.00    +0.280 C 
ENDBRANCH  30  32
ENDBRANCH   9  30
TORSDOF 6
