REMARK  Name = ZINC15017295
REMARK  5 active torsions:
REMARK  status: ('A' for Active; 'I' for Inactive)
REMARK    1  A    between atoms: C_4  and  C_7
REMARK    2  A    between atoms: C_7  and  O_29
REMARK    3  A    between atoms: C_8  and  C_27
REMARK    4  A    between atoms: C_10  and  C_20
REMARK    5  A    between atoms: C_12  and  C_17
REMARK                            x       y       z     vdW  Elec       q    Type
REMARK                         _______ _______ _______ _____ _____    ______ ____
ROOT
ATOM      1  C   UNL     1       4.256   0.444  -1.484  0.00  0.00    +0.175 C 
ATOM      2  C   UNL     1       3.027   1.337  -1.311  0.00  0.00    +0.155 C 
ATOM      3  C   UNL     1       2.399   1.048   0.058  0.00  0.00    +0.061 C 
ATOM      4  C   UNL     1       3.364   1.530   1.144  0.00  0.00    +0.169 C 
ATOM      5  C   UNL     1       4.747   1.016   0.864  0.00  0.00    +0.228 C 
ATOM      6  O   UNL     1       5.556   1.021   1.768  0.00  0.00    -0.275 OA
ATOM      7  N   UNL     1       5.133   0.553  -0.326  0.00  0.00    -0.282 N 
ATOM      8  H   UNL     1       6.056   0.272  -0.426  0.00  0.00    +0.152 HD
ENDROOT
BRANCH   3   9
ATOM      9  C   UNL     1       1.089   1.782   0.181  0.00  0.00    -0.040 A 
ATOM     10  C   UNL     1       0.467   2.279  -0.949  0.00  0.00    +0.004 A 
ATOM     11  C   UNL     1      -0.735   2.953  -0.837  0.00  0.00    +0.002 A 
ATOM     12  C   UNL     1      -1.315   3.131   0.406  0.00  0.00    +0.020 A 
ATOM     13  C   UNL     1      -0.695   2.628   1.536  0.00  0.00    +0.041 A 
ATOM     14  C   UNL     1       0.510   1.959   1.424  0.00  0.00    +0.024 A 
ATOM     15 CL   UNL     1      -1.427   2.844   3.095  0.00  0.00    -0.084 Cl
ENDBRANCH   3   9
BRANCH   1  19
ATOM     16  C   UNL     1       6.388   1.643  -4.987  0.00  0.00    +0.000 A 
ATOM     17  C   UNL     1       6.758   2.136  -3.750  0.00  0.00    +0.000 A 
ATOM     18  C   UNL     1       6.069   1.748  -2.616  0.00  0.00    +0.008 A 
ATOM     19  C   UNL     1       5.008   0.867  -2.720  0.00  0.00    +0.003 A 
ATOM     20  C   UNL     1       4.641   0.370  -3.957  0.00  0.00    +0.008 A 
ATOM     21  C   UNL     1       5.328   0.761  -5.091  0.00  0.00    +0.000 A 
ENDBRANCH   1  19
BRANCH   4  22
ATOM     22  C   UNL     1       3.384   3.037   1.163  0.00  0.00    +0.223 C 
ATOM     23  O   UNL     1       2.394   3.660   0.845  0.00  0.00    -0.275 OA
ATOM     24  N   UNL     1       4.503   3.691   1.533  0.00  0.00    -0.329 N 
ATOM     25  H   UNL     1       5.295   3.192   1.787  0.00  0.00    +0.145 HD
ATOM     26  H   UNL     1       4.516   4.661   1.545  0.00  0.00    +0.145 HD
ENDBRANCH   4  22
BRANCH   2  27
ATOM     27  C   UNL     1       3.429   2.751  -1.381  0.00  0.00    +0.071 C 
ATOM     28  N   UNL     1       3.740   3.843  -1.435  0.00  0.00    -0.196 NA
ENDBRANCH   2  27
BRANCH   1  29
ATOM     29  O   UNL     1       3.837  -0.913  -1.633  0.00  0.00    -0.366 OA
ATOM     30  H   UNL     1       4.564  -1.540  -1.748  0.00  0.00    +0.212 HD
ENDBRANCH   1  29
TORSDOF 5
