REMARK  Name = ZINC09750786
REMARK  9 active torsions:
REMARK  status: ('A' for Active; 'I' for Inactive)
REMARK    1  A    between atoms: C_1  and  C_2
REMARK    2  A    between atoms: C_2  and  N_3
REMARK    3  A    between atoms: C_7  and  C_28
REMARK    4  A    between atoms: C_12  and  S_13
REMARK    5  A    between atoms: S_13  and  C_14
REMARK    6  A    between atoms: C_14  and  C_15
REMARK    7  A    between atoms: N_17  and  C_18
REMARK    8  A    between atoms: C_22  and  N_25
REMARK    9  A    between atoms: C_23  and  C_24
REMARK                            x       y       z     vdW  Elec       q    Type
REMARK                         _______ _______ _______ _____ _____    ______ ____
ROOT
ATOM      1  N   UNL     1       5.331   4.524   3.196  0.00  0.00    -0.288 N 
ATOM      2  C   UNL     1       4.624   3.682   2.420  0.00  0.00    +0.264 A 
ATOM      3  O   UNL     1       4.594   2.489   2.672  0.00  0.00    -0.267 OA
ATOM      4  C   UNL     1       3.904   4.204   1.302  0.00  0.00    +0.080 A 
ATOM      5  C   UNL     1       3.081   3.497   0.325  0.00  0.00    +0.010 A 
ATOM      6  C   UNL     1       2.493   4.208  -0.668  0.00  0.00    +0.057 A 
ATOM      7  S   UNL     1       3.021   5.880  -0.347  0.00  0.00    -0.076 S 
ATOM      8  C   UNL     1       4.010   5.590   1.098  0.00  0.00    +0.117 A 
ATOM      9  N   UNL     1       4.727   6.368   1.901  0.00  0.00    -0.216 NA
ATOM     10  C   UNL     1       5.377   5.861   2.929  0.00  0.00    +0.173 A 
ENDROOT
BRANCH   5  11
ATOM     11  C   UNL     1       2.888   2.035   0.419  0.00  0.00    +0.021 A 
ATOM     12  C   UNL     1       1.724   1.314   0.389  0.00  0.00    +0.016 A 
ATOM     13  C   UNL     1       1.793  -0.060   0.490  0.00  0.00    +0.008 A 
ATOM     14  C   UNL     1       3.006  -0.653   0.625  0.00  0.00    +0.046 A 
ATOM     15  S   UNL     1       4.113   0.748   0.600  0.00  0.00    -0.097 S 
ENDBRANCH   5  11
BRANCH   1  17
ATOM     16  C   UNL     1       5.164   4.016   5.582  0.00  0.00    +0.027 C 
ATOM     17  C   UNL     1       6.066   3.994   4.347  0.00  0.00    +0.124 C 
ENDBRANCH   1  17
BRANCH  10  18
ATOM     18  S   UNL     1       6.318   6.925   3.973  0.00  0.00    -0.078 S 
BRANCH  18  19
ATOM     19  C   UNL     1       6.015   8.513   3.159  0.00  0.00    +0.173 C 
BRANCH  19  20
ATOM     20  C   UNL     1       6.743   9.604   3.900  0.00  0.00    +0.227 C 
ATOM     21  O   UNL     1       7.402   9.335   4.882  0.00  0.00    -0.275 OA
ATOM     22  N   UNL     1       6.662  10.879   3.472  0.00  0.00    -0.285 N 
ATOM     23  H   UNL     1       6.197  11.085   2.646  0.00  0.00    +0.155 HD
BRANCH  22  24
ATOM     24  C   UNL     1       7.248  11.907   4.219  0.00  0.00    +0.038 A 
ATOM     25  C   UNL     1       7.542  11.710   5.562  0.00  0.00    +0.024 A 
ATOM     26  C   UNL     1       8.121  12.726   6.297  0.00  0.00    +0.004 A 
ATOM     27  C   UNL     1       8.408  13.938   5.696  0.00  0.00    +0.033 A 
ATOM     28  C   UNL     1       8.117  14.137   4.359  0.00  0.00    +0.131 A 
ATOM     29  C   UNL     1       7.543  13.123   3.618  0.00  0.00    +0.001 A 
ATOM     30  C   UNL     1       7.231  13.339   2.159  0.00  0.00    +0.048 C 
BRANCH  28  31
ATOM     31  N   UNL     1       8.426  15.437   3.721  0.00  0.00    +0.057 N 
ATOM     32  O   UNL     1       9.058  16.280   4.331  0.00  0.00    -0.126 OA
ATOM     33  O   UNL     1       8.047  15.662   2.586  0.00  0.00    -0.126 OA
ENDBRANCH  28  31
ENDBRANCH  22  24
ENDBRANCH  19  20
ENDBRANCH  18  19
ENDBRANCH  10  18
TORSDOF 7
