REMARK  Name = ZINC39767544
REMARK  2 active torsions:
REMARK  status: ('A' for Active; 'I' for Inactive)
REMARK    1  A    between atoms: C_1  and  C_2
REMARK    2  A    between atoms: C_6  and  C_8
REMARK                            x       y       z     vdW  Elec       q    Type
REMARK                         _______ _______ _______ _____ _____    ______ ____
ROOT
ATOM      1  C   UNL     1       0.063  -2.847   2.469  0.00  0.00    +0.248 C 
ATOM      2  O   UNL     1       0.181  -2.259   3.527  0.00  0.00    -0.270 OA
ATOM      3  N   UNL     1       0.070  -4.207   2.443  0.00  0.00    -0.281 N 
ATOM      4  C   UNL     1      -0.791  -4.884   3.175  0.00  0.00    +0.036 C 
ATOM      5  C   UNL     1      -1.845  -4.176   3.913  0.00  0.00    +0.025 C 
ATOM      6  C   UNL     1      -2.729  -4.862   4.663  0.00  0.00    +0.032 C 
ATOM      7  C   UNL     1      -2.645  -6.322   4.746  0.00  0.00    +0.095 C 
ATOM      8  N   UNL     1      -3.341  -7.250   5.376  0.00  0.00    -0.190 NA
ATOM      9  C   UNL     1      -2.823  -8.457   5.100  0.00  0.00    +0.369 C 
ATOM     10  O   UNL     1      -3.306  -9.624   5.589  0.00  0.00    -0.243 OA
ATOM     11  N   UNL     1      -1.789  -8.364   4.295  0.00  0.00    -0.190 NA
ATOM     12  C   UNL     1      -1.591  -7.045   4.009  0.00  0.00    +0.097 C 
ATOM     13  C   UNL     1      -0.702  -6.358   3.247  0.00  0.00    +0.053 C 
ATOM     14  H   UNL     1       0.710  -4.678   1.886  0.00  0.00    +0.155 HD
ENDROOT
BRANCH   1  20
ATOM     15  C   UNL     1      -0.246   1.525   0.082  0.00  0.00    +0.044 C 
ATOM     16  C   UNL     1      -0.237   0.018   0.059  0.00  0.00    -0.050 A 
ATOM     17  C   UNL     1      -0.371  -0.656  -1.144  0.00  0.00    +0.003 A 
ATOM     18  C   UNL     1      -0.364  -2.039  -1.174  0.00  0.00    +0.001 A 
ATOM     19  C   UNL     1      -0.224  -2.757  -0.005  0.00  0.00    +0.013 A 
ATOM     20  C   UNL     1      -0.088  -2.084   1.212  0.00  0.00    +0.037 A 
ATOM     21  C   UNL     1      -0.090  -0.687   1.235  0.00  0.00    +0.016 A 
ENDBRANCH   1  20
TORSDOF 1
