REMARK  Name = ZINC00857163
REMARK  5 active torsions:
REMARK  status: ('A' for Active; 'I' for Inactive)
REMARK    1  A    between atoms: C_3  and  N_26
REMARK    2  A    between atoms: C_6  and  C_7
REMARK    3  A    between atoms: N_9  and  N_10
REMARK    4  A    between atoms: N_10  and  C_11
REMARK    5  A    between atoms: N_16  and  C_19
REMARK                            x       y       z     vdW  Elec       q    Type
REMARK                         _______ _______ _______ _____ _____    ______ ____
ROOT
ATOM      1  N   UNL     1      -2.055  -2.920   0.022  0.00  0.00    -0.228 NA
ATOM      2  H   UNL     1      -2.488  -2.597   0.875  0.00  0.00    +0.145 HD
ENDROOT
BRANCH   1   3
ATOM      3  C   UNL     1      -2.074  -4.387  -0.054  0.00  0.00    +0.168 C 
ATOM      4  C   UNL     1      -3.423  -4.885  -0.612  0.00  0.00    +0.126 C 
ATOM      5  C   UNL     1      -3.987  -5.720   0.517  0.00  0.00    +0.228 C 
ATOM      6  O   UNL     1      -5.049  -6.304   0.496  0.00  0.00    -0.275 OA
ATOM      7  N   UNL     1      -3.127  -5.712   1.543  0.00  0.00    -0.209 N 
ATOM      8  C   UNL     1      -2.013  -4.994   1.331  0.00  0.00    +0.245 C 
ATOM      9  O   UNL     1      -1.104  -4.852   2.120  0.00  0.00    -0.273 OA
BRANCH   7  10
ATOM     10  C   UNL     1      -3.369  -6.399   2.741  0.00  0.00    +0.044 A 
ATOM     11  C   UNL     1      -3.388  -7.787   2.756  0.00  0.00    +0.025 A 
ATOM     12  C   UNL     1      -3.627  -8.461   3.937  0.00  0.00    +0.017 A 
ATOM     13  C   UNL     1      -3.847  -7.754   5.106  0.00  0.00    +0.018 A 
ATOM     14  C   UNL     1      -3.828  -6.371   5.095  0.00  0.00    +0.017 A 
ATOM     15  C   UNL     1      -3.584  -5.692   3.917  0.00  0.00    +0.025 A 
ATOM     16 BR   UNL     1      -4.174  -8.681   6.722  0.00  0.00    -0.050 Br
ENDBRANCH   7  10
ENDBRANCH   1   3
BRANCH   1  19
ATOM     17  C   UNL     1      -0.555  -1.113  -0.046  0.00  0.00    +0.258 C 
ATOM     18  O   UNL     1      -1.484  -0.342   0.098  0.00  0.00    -0.269 OA
ATOM     19  N   UNL     1      -0.781  -2.440  -0.092  0.00  0.00    -0.246 N 
ATOM     20  H   UNL     1      -0.040  -3.055  -0.207  0.00  0.00    +0.169 HD
BRANCH  17  26
ATOM     21  C   UNL     1       1.062   0.781  -0.122  0.00  0.00    +0.015 A 
ATOM     22  C   UNL     1       2.351   1.260  -0.238  0.00  0.00    +0.033 A 
ATOM     23  C   UNL     1       3.406   0.380  -0.401  0.00  0.00    +0.126 A 
ATOM     24  C   UNL     1       3.177  -0.984  -0.449  0.00  0.00    +0.033 A 
ATOM     25  C   UNL     1       1.893  -1.475  -0.335  0.00  0.00    +0.015 A 
ATOM     26  C   UNL     1       0.824  -0.593  -0.170  0.00  0.00    +0.038 A 
BRANCH  23  27
ATOM     27  N   UNL     1       4.786   0.900  -0.525  0.00  0.00    +0.056 N 
ATOM     28  O   UNL     1       4.989   2.091  -0.484  0.00  0.00    -0.126 OA
ATOM     29  O   UNL     1       5.710   0.134  -0.668  0.00  0.00    -0.126 OA
ENDBRANCH  23  27
ENDBRANCH  17  26
ENDBRANCH   1  19
TORSDOF 5
