REMARK  Name = ZINC63795461
REMARK  2 active torsions:
REMARK  status: ('A' for Active; 'I' for Inactive)
REMARK    1  A    between atoms: C_6  and  C_7
REMARK    2  A    between atoms: C_13  and  C_14
REMARK                            x       y       z     vdW  Elec       q    Type
REMARK                         _______ _______ _______ _____ _____    ______ ____
ROOT
ATOM      1  C   UNL     1      -1.501  -0.808  -0.196  0.00  0.00    +0.159 C 
ATOM      2  N   UNL     1      -1.352  -2.172  -0.739  0.00  0.00    -0.331 N 
ATOM      3  C   UNL     1      -1.272  -3.204   0.125  0.00  0.00    +0.020 C 
ATOM      4  C   UNL     1      -1.870  -2.952   1.505  0.00  0.00    +0.121 C 
ATOM      5  S   UNL     1      -1.641  -1.119   1.615  0.00  0.00    -0.128 S 
ATOM      6  C   UNL     1      -0.701  -4.380  -0.208  0.00  0.00    +0.087 C 
ATOM      7  H   UNL     1      -1.314  -2.322  -1.696  0.00  0.00    +0.147 HD
ENDROOT
BRANCH   6   8
ATOM      8  C   UNL     1      -0.036  -4.516  -1.448  0.00  0.00    +0.244 C 
ATOM      9  O   UNL     1       0.114  -3.546  -2.169  0.00  0.00    -0.270 OA
ATOM     10  N   UNL     1       0.432  -5.720  -1.833  0.00  0.00    -0.260 N 
ATOM     11  C   UNL     1       1.086  -5.854  -3.053  0.00  0.00    +0.188 A 
ATOM     12  N   UNL     1       1.361  -4.945  -3.978  0.00  0.00    -0.126 NA
ATOM     13  N   UNL     1       1.970  -5.241  -5.041  0.00  0.00    -0.148 NA
ATOM     14  C   UNL     1       2.373  -6.469  -5.301  0.00  0.00    +0.183 A 
ATOM     15  S   UNL     1       1.805  -7.303  -3.821  0.00  0.00    -0.039 S 
ATOM     16  H   UNL     1       0.313  -6.493  -1.260  0.00  0.00    +0.157 HD
ENDBRANCH   6   8
BRANCH   1  22
ATOM     17  C   UNL     1      -0.401   1.401  -0.612  0.00  0.00    +0.009 A 
ATOM     18  C   UNL     1       0.713   2.169  -0.894  0.00  0.00    +0.039 A 
ATOM     19  C   UNL     1       1.945   1.562  -1.070  0.00  0.00    +0.123 A 
ATOM     20  C   UNL     1       2.059   0.186  -0.962  0.00  0.00    +0.039 A 
ATOM     21  C   UNL     1       0.944  -0.580  -0.679  0.00  0.00    +0.009 A 
ATOM     22  C   UNL     1      -0.285   0.028  -0.504  0.00  0.00    -0.017 A 
ATOM     23  F   UNL     1       3.034   2.311  -1.347  0.00  0.00    -0.205 F 
ENDBRANCH   1  22
TORSDOF 2
