REMARK  Name = ZINC12697752
REMARK  8 active torsions:
REMARK  status: ('A' for Active; 'I' for Inactive)
REMARK    1  A    between atoms: C_2  and  C_3
REMARK    2  A    between atoms: C_3  and  N_4
REMARK    3  A    between atoms: C_7  and  C_10
REMARK    4  A    between atoms: C_16  and  C_18
REMARK    5  A    between atoms: C_18  and  S_19
REMARK    6  A    between atoms: S_19  and  C_20
REMARK    7  A    between atoms: C_23  and  C_26
REMARK    8  A    between atoms: N_24  and  N_25
REMARK                            x       y       z     vdW  Elec       q    Type
REMARK                         _______ _______ _______ _____ _____    ______ ____
ROOT
ATOM      1  N   UNL     1       1.079   2.586  -1.069  0.00  0.00    -0.246 N 
ATOM      2  C   UNL     1       2.338   2.048  -1.307  0.00  0.00    +0.168 A 
ATOM      3  N   UNL     1       2.705   0.782  -1.379  0.00  0.00    -0.224 NA
ATOM      4  C   UNL     1       3.963   0.444  -1.617  0.00  0.00    +0.080 A 
ATOM      5  C   UNL     1       4.900   1.424  -1.791  0.00  0.00    +0.076 A 
ATOM      6  S   UNL     1       3.888   2.886  -1.604  0.00  0.00    -0.060 S 
ATOM      7  C   UNL     1       0.024   1.771  -0.873  0.00  0.00    +0.232 C 
ATOM      8  O   UNL     1       0.173   0.567  -0.904  0.00  0.00    -0.274 OA
ENDROOT
BRANCH   4   9
ATOM      9  C   UNL     1       4.352  -0.986  -1.693  0.00  0.00    +0.001 A 
ATOM     10  C   UNL     1       5.676  -1.338  -1.949  0.00  0.00    +0.010 A 
ATOM     11  C   UNL     1       6.034  -2.669  -2.014  0.00  0.00    +0.001 A 
ATOM     12  C   UNL     1       5.078  -3.654  -1.838  0.00  0.00    +0.000 A 
ATOM     13  C   UNL     1       3.761  -3.310  -1.589  0.00  0.00    +0.001 A 
ATOM     14  C   UNL     1       3.394  -1.982  -1.516  0.00  0.00    +0.010 A 
ENDBRANCH   4   9
BRANCH   1  15
ATOM     15  C   UNL     1       0.899   4.039  -1.031  0.00  0.00    +0.142 C 
BRANCH  15  17
ATOM     16  C   UNL     1       1.977   5.475   0.624  0.00  0.00    +0.005 C 
ATOM     17  C   UNL     1       1.099   4.534   0.379  0.00  0.00    -0.015 C 
ENDBRANCH  15  17
ENDBRANCH   1  15
BRANCH   7  18
ATOM     18  C   UNL     1      -1.343   2.354  -0.621  0.00  0.00    +0.173 C 
BRANCH  18  19
ATOM     19  S   UNL     1      -2.541   1.014  -0.406  0.00  0.00    -0.075 S 
BRANCH  19  20
ATOM     20  C   UNL     1      -4.006   1.955  -0.135  0.00  0.00    +0.209 A 
ATOM     21  N   UNL     1      -4.097   3.265  -0.108  0.00  0.00    -0.121 NA
ATOM     22  N   UNL     1      -5.313   3.619   0.111  0.00  0.00    -0.127 NA
ATOM     23  C   UNL     1      -6.072   2.555   0.245  0.00  0.00    +0.182 A 
ATOM     24  N   UNL     1      -5.258   1.457   0.092  0.00  0.00    -0.224 N 
BRANCH  23  25
ATOM     25  C   UNL     1      -7.526   2.541   0.512  0.00  0.00    +0.021 A 
ATOM     26  C   UNL     1      -8.287   3.692   0.301  0.00  0.00    +0.014 A 
ATOM     27  C   UNL     1      -9.644   3.672   0.547  0.00  0.00    +0.039 A 
ATOM     28  C   UNL     1     -10.250   2.515   1.013  0.00  0.00    +0.123 A 
ATOM     29  C   UNL     1      -9.497   1.372   1.229  0.00  0.00    +0.039 A 
ATOM     30  C   UNL     1      -8.140   1.379   0.981  0.00  0.00    +0.014 A 
ATOM     31  F   UNL     1     -11.578   2.503   1.257  0.00  0.00    -0.205 F 
ENDBRANCH  23  25
BRANCH  24  32
ATOM     32  N   UNL     1      -5.625   0.143   0.154  0.00  0.00    -0.295 N 
ATOM     33  H   UNL     1      -5.640  -0.184   1.109  0.00  0.00    +0.163 HD
ATOM     34  H   UNL     1      -6.517  -0.005  -0.293  0.00  0.00    +0.163 HD
ENDBRANCH  24  32
ENDBRANCH  19  20
ENDBRANCH  18  19
ENDBRANCH   7  18
TORSDOF 8
