REMARK  Name = ZINC37076803
REMARK  6 active torsions:
REMARK  status: ('A' for Active; 'I' for Inactive)
REMARK    1  A    between atoms: C_1  and  C_2
REMARK    2  A    between atoms: C_5  and  N_12
REMARK    3  A    between atoms: C_8  and  C_10
REMARK    4  A    between atoms: C_8  and  C_11
REMARK    5  A    between atoms: N_12  and  C_13
REMARK    6  A    between atoms: C_15  and  N_21
REMARK                            x       y       z     vdW  Elec       q    Type
REMARK                         _______ _______ _______ _____ _____    ______ ____
ROOT
ATOM      1  N   UNL     1      -2.787  -2.571   0.015  0.00  0.00    -0.339 N 
ATOM      2  H   UNL     1      -3.209  -2.812   0.855  0.00  0.00    +0.146 HD
ENDROOT
BRANCH   1   6
ATOM      3  C   UNL     1      -0.019   1.526   0.010  0.00  0.00    +0.007 C 
ATOM      4  C   UNL     1       0.002  -0.004   0.002  0.00  0.00    -0.012 C 
ATOM      5  C   UNL     1      -1.433  -0.534   0.013  0.00  0.00    +0.025 C 
ATOM      6  C   UNL     1      -1.413  -2.063   0.004  0.00  0.00    +0.071 C 
ATOM      7  C   UNL     1      -0.673  -2.570   1.244  0.00  0.00    +0.028 C 
ATOM      8  C   UNL     1       0.763  -2.041   1.233  0.00  0.00    -0.033 C 
ATOM      9  C   UNL     1       0.742  -0.511   1.242  0.00  0.00    +0.009 C 
ATOM     10  C   UNL     1       1.479  -2.534  -0.026  0.00  0.00    +0.011 C 
ATOM     11  C   UNL     1       1.503  -2.548   2.473  0.00  0.00    +0.011 C 
ENDBRANCH   1   6
BRANCH   1  12
ATOM     12  C   UNL     1      -3.492  -2.707  -1.187  0.00  0.00    +0.065 A 
ATOM     13  C   UNL     1      -2.888  -2.368  -2.390  0.00  0.00    +0.061 A 
ATOM     14  C   UNL     1      -3.584  -2.504  -3.575  0.00  0.00    +0.163 A 
ATOM     15  C   UNL     1      -4.885  -2.978  -3.565  0.00  0.00    +0.156 A 
ATOM     16  C   UNL     1      -5.492  -3.317  -2.367  0.00  0.00    +0.081 A 
ATOM     17  C   UNL     1      -4.796  -3.188  -1.178  0.00  0.00    +0.147 A 
ATOM     18  F   UNL     1      -5.386  -3.524  -0.010  0.00  0.00    -0.203 F 
ATOM     19  F   UNL     1      -5.564  -3.110  -4.725  0.00  0.00    -0.203 F 
BRANCH  14  20
ATOM     20  N   UNL     1      -2.940  -2.142  -4.857  0.00  0.00    +0.059 N 
ATOM     21  O   UNL     1      -1.804  -1.727  -4.867  0.00  0.00    -0.126 OA
ATOM     22  O   UNL     1      -3.549  -2.260  -5.895  0.00  0.00    -0.126 OA
ENDBRANCH  14  20
ENDBRANCH   1  12
TORSDOF 3
