REMARK  Name = ZINC08917864
REMARK  15 active torsions:
REMARK  status: ('A' for Active; 'I' for Inactive)
REMARK    1  A    between atoms: C_1  and  C_2
REMARK    2  A    between atoms: C_2  and  N_3
REMARK    3  A    between atoms: N_3  and  C_4
REMARK    4  A    between atoms: N_3  and  C_6
REMARK    5  A    between atoms: C_4  and  C_5
REMARK    6  A    between atoms: C_9  and  C_12
REMARK    7  A    between atoms: C_20  and  O_40
REMARK    8  A    between atoms: C_24  and  C_26
REMARK    9  A    between atoms: C_27  and  C_28
REMARK   10  A    between atoms: C_30  and  O_38
REMARK   11  A    between atoms: C_31  and  O_36
REMARK   12  A    between atoms: C_32  and  O_34
REMARK   13  A    between atoms: O_34  and  C_35
REMARK   14  A    between atoms: O_36  and  C_37
REMARK   15  A    between atoms: O_38  and  C_39
REMARK                            x       y       z     vdW  Elec       q    Type
REMARK                         _______ _______ _______ _____ _____    ______ ____
ROOT
ATOM      1  C   UNL     1      -9.721   0.518  -0.117  0.00  0.00    +0.112 C 
ATOM      2  C   UNL     1     -10.123  -0.045  -1.484  0.00  0.00    +0.046 C 
ATOM      3  C   UNL     1     -11.440   0.597  -1.927  0.00  0.00    +0.008 C 
ATOM      4  C   UNL     1     -12.525   0.295  -0.891  0.00  0.00    +0.001 C 
ATOM      5  C   UNL     1     -12.712  -1.219  -0.773  0.00  0.00    +0.003 C 
ATOM      6  C   UNL     1     -11.394  -1.863  -0.336  0.00  0.00    +0.035 C 
ATOM      7  C   UNL     1     -10.311  -1.560  -1.373  0.00  0.00    +0.072 C 
ATOM      8  C   UNL     1      -8.996  -2.212  -0.942  0.00  0.00    +0.054 C 
ATOM      9  C   UNL     1      -8.579  -1.673   0.421  0.00  0.00    +0.111 C 
ATOM     10  N   UNL     1      -8.535  -0.205   0.363  0.00  0.00    -0.290 N 
ATOM     11  C   UNL     1      -7.427   0.464   0.737  0.00  0.00    +0.240 C 
ATOM     12  O   UNL     1      -7.430   1.681   0.761  0.00  0.00    -0.271 OA
ENDROOT
BRANCH   1  16
ATOM     13  C   UNL     1      -8.808   4.676  -0.491  0.00  0.00    +0.030 A 
ATOM     14  C   UNL     1      -9.803   4.258   0.384  0.00  0.00    +0.023 A 
ATOM     15  C   UNL     1     -10.095   2.913   0.502  0.00  0.00    +0.007 A 
ATOM     16  C   UNL     1      -9.399   1.984  -0.249  0.00  0.00    -0.027 A 
ATOM     17  C   UNL     1      -8.404   2.397  -1.116  0.00  0.00    +0.007 A 
ATOM     18  C   UNL     1      -8.111   3.740  -1.244  0.00  0.00    +0.023 A 
BRANCH  13  19
ATOM     19  N   UNL     1      -8.510   6.035  -0.614  0.00  0.00    -0.330 N 
BRANCH  19  21
ATOM     20  C   UNL     1      -8.073   6.747  -2.912  0.00  0.00    +0.024 C 
ATOM     21  C   UNL     1      -7.461   6.475  -1.537  0.00  0.00    +0.102 C 
ENDBRANCH  19  21
BRANCH  19  22
ATOM     22  C   UNL     1      -9.247   7.021   0.181  0.00  0.00    +0.102 C 
ATOM     23  C   UNL     1      -8.527   7.246   1.512  0.00  0.00    +0.024 C 
ENDBRANCH  19  22
ENDBRANCH  13  19
ENDBRANCH   1  16
BRANCH  11  24
ATOM     24  C   UNL     1      -6.220  -0.272   1.114  0.00  0.00    +0.068 C 
ATOM     25  C   UNL     1      -5.078   0.396   1.379  0.00  0.00    +0.013 C 
BRANCH  25  26
ATOM     26  C   UNL     1      -3.865  -0.343   1.758  0.00  0.00    -0.018 A 
ATOM     27  C   UNL     1      -3.893  -1.740   1.843  0.00  0.00    +0.057 A 
ATOM     28  C   UNL     1      -2.751  -2.432   2.199  0.00  0.00    +0.166 A 
ATOM     29  C   UNL     1      -1.572  -1.741   2.467  0.00  0.00    +0.204 A 
ATOM     30  C   UNL     1      -1.542  -0.351   2.389  0.00  0.00    +0.166 A 
ATOM     31  C   UNL     1      -2.680   0.348   2.033  0.00  0.00    +0.057 A 
BRANCH  30  32
ATOM     32  O   UNL     1      -0.389   0.320   2.657  0.00  0.00    -0.491 OA
ATOM     33  C   UNL     1      -0.428   1.744   2.551  0.00  0.00    +0.277 C 
ENDBRANCH  30  32
BRANCH  29  34
ATOM     34  O   UNL     1      -0.449  -2.425   2.811  0.00  0.00    -0.488 OA
ATOM     35  C   UNL     1      -0.243  -2.676   4.203  0.00  0.00    +0.277 C 
ENDBRANCH  29  34
BRANCH  28  36
ATOM     36  O   UNL     1      -2.777  -3.789   2.281  0.00  0.00    -0.491 OA
ATOM     37  C   UNL     1      -4.019  -4.433   1.987  0.00  0.00    +0.277 C 
ENDBRANCH  28  36
ENDBRANCH  25  26
ENDBRANCH  11  24
BRANCH   7  38
ATOM     38  O   UNL     1     -10.708  -2.084  -2.641  0.00  0.00    -0.388 OA
ATOM     39  H   UNL     1     -10.846  -3.041  -2.645  0.00  0.00    +0.210 HD
ENDBRANCH   7  38
TORSDOF 10
