REMARK  Name = ZINC21246203
REMARK  6 active torsions:
REMARK  status: ('A' for Active; 'I' for Inactive)
REMARK    1  A    between atoms: C_1  and  C_2
REMARK    2  A    between atoms: C_2  and  C_3
REMARK    3  A    between atoms: C_2  and  O_4
REMARK    4  A    between atoms: O_4  and  C_5
REMARK    5  A    between atoms: C_8  and  C_11
REMARK    6  A    between atoms: C_16  and  C_26
REMARK                            x       y       z     vdW  Elec       q    Type
REMARK                         _______ _______ _______ _____ _____    ______ ____
ROOT
ATOM      1  C   UNL     1       3.961   2.775  -4.265  0.00  0.00    +0.032 C 
ATOM      2  C   UNL     1       4.324   4.006  -3.437  0.00  0.00    +0.059 C 
ATOM      3  C   UNL     1       3.957   3.781  -1.979  0.00  0.00    +0.017 C 
ATOM      4  C   UNL     1       4.006   2.548  -1.448  0.00  0.00    +0.037 C 
ATOM      5  C   UNL     1       3.673   2.185  -0.020  0.00  0.00    +0.140 C 
ATOM      6  N   UNL     1       3.528   3.319   0.868  0.00  0.00    -0.331 N 
ATOM      7  C   UNL     1       2.505   4.244   0.684  0.00  0.00    +0.049 A 
ATOM      8  C   UNL     1       1.486   4.389   1.613  0.00  0.00    +0.025 A 
ATOM      9  C   UNL     1       0.461   5.285   1.367  0.00  0.00    +0.002 A 
ATOM     10  C   UNL     1       0.446   6.030   0.202  0.00  0.00    +0.002 A 
ATOM     11  C   UNL     1       1.471   5.903  -0.720  0.00  0.00    +0.025 A 
ATOM     12  C   UNL     1       2.509   5.025  -0.463  0.00  0.00    +0.052 A 
ATOM     13  N   UNL     1       3.611   4.907  -1.302  0.00  0.00    -0.316 N 
ATOM     14  C   UNL     1       4.394   1.443  -2.242  0.00  0.00    +0.163 C 
ATOM     15  O   UNL     1       4.449   0.342  -1.729  0.00  0.00    -0.292 OA
ATOM     16  C   UNL     1       4.739   1.583  -3.694  0.00  0.00    +0.088 C 
ATOM     17  H   UNL     1       4.232   3.458   1.702  0.00  0.00    +0.147 HD
ATOM     18  H   UNL     1       4.223   5.816  -1.399  0.00  0.00    +0.152 HD
ENDROOT
BRANCH   5  19
ATOM     19  C   UNL     1       2.384   1.404  -0.013  0.00  0.00    +0.031 A 
ATOM     20  C   UNL     1       1.622   1.316  -1.165  0.00  0.00    +0.130 A 
ATOM     21  C   UNL     1       0.438   0.598  -1.157  0.00  0.00    +0.039 A 
ATOM     22  C   UNL     1       0.018  -0.030  -0.000  0.00  0.00    +0.004 A 
ATOM     23  C   UNL     1       0.779   0.058   1.150  0.00  0.00    +0.020 A 
ATOM     24  C   UNL     1       1.963   0.775   1.144  0.00  0.00    +0.049 A 
ATOM     25 CL   UNL     1       2.918   0.886   2.590  0.00  0.00    -0.083 Cl
ATOM     26  F   UNL     1       2.033   1.930  -2.296  0.00  0.00    -0.205 F 
ENDBRANCH   5  19
BRANCH   1  30
ATOM     27  C   UNL     1       5.055   3.402  -8.348  0.00  0.00    +0.121 A 
ATOM     28  C   UNL     1       3.731   3.158  -8.013  0.00  0.00    +0.046 A 
ATOM     29  C   UNL     1       3.380   2.956  -6.692  0.00  0.00    +0.007 A 
ATOM     30  C   UNL     1       4.347   2.997  -5.705  0.00  0.00    -0.043 A 
ATOM     31  C   UNL     1       5.666   3.245  -6.035  0.00  0.00    +0.007 A 
ATOM     32  C   UNL     1       6.023   3.442  -7.355  0.00  0.00    +0.046 A 
BRANCH  27  33
ATOM     33  O   UNL     1       5.403   3.602  -9.646  0.00  0.00    -0.489 OA
BRANCH  33  35
ATOM     34  C   UNL     1       4.794   4.475 -11.816  0.00  0.00    +0.051 C 
ATOM     35  C   UNL     1       4.341   3.665 -10.600  0.00  0.00    +0.167 C 
ATOM     36  C   UNL     1       3.967   2.248 -11.042  0.00  0.00    +0.051 C 
ENDBRANCH  33  35
ENDBRANCH  27  33
ENDBRANCH   1  30
TORSDOF 4
