REMARK  Name = ZINC40657904
REMARK  4 active torsions:
REMARK  status: ('A' for Active; 'I' for Inactive)
REMARK    1  A    between atoms: C_14  and  N_30
REMARK    2  A    between atoms: C_15  and  N_19
REMARK    3  A    between atoms: N_19  and  N_20
REMARK    4  A    between atoms: C_21  and  C_23
REMARK                            x       y       z     vdW  Elec       q    Type
REMARK                         _______ _______ _______ _____ _____    ______ ____
ROOT
ATOM      1  C   UNL     1       2.355   1.423   2.381  0.00  0.00    +0.005 A 
ATOM      2  C   UNL     1       2.361   2.079   1.157  0.00  0.00    +0.018 A 
ATOM      3  C   UNL     1       2.400   1.339  -0.007  0.00  0.00    +0.084 A 
ATOM      4  N   UNL     1       2.432   0.020   0.030  0.00  0.00    -0.350 N 
ATOM      5  C   UNL     1       2.427  -0.642   1.177  0.00  0.00    +0.099 A 
ATOM      6  C   UNL     1       2.389   0.040   2.389  0.00  0.00    +0.042 A 
ATOM      7  N   UNL     1       2.460  -2.032   1.170  0.00  0.00    -0.314 N 
ATOM      8  C   UNL     1       2.587  -2.783   2.426  0.00  0.00    +0.125 C 
ATOM      9  C   UNL     1       1.421  -3.775   2.524  0.00  0.00    +0.125 C 
ATOM     10  N   UNL     1       1.330  -4.519   1.260  0.00  0.00    -0.310 N 
ATOM     11  C   UNL     1       1.203  -3.767   0.004  0.00  0.00    +0.125 C 
ATOM     12  C   UNL     1       2.364  -2.776  -0.094  0.00  0.00    +0.125 C 
ATOM     13  C   UNL     1       1.364  -5.905   1.253  0.00  0.00    +0.157 A 
ATOM     14  C   UNL     1       0.182  -6.639   1.250  0.00  0.00    +0.207 A 
ATOM     15  C   UNL     1       0.269  -8.028   1.242  0.00  0.00    +0.171 A 
ATOM     16  N   UNL     1       1.472  -8.600   1.238  0.00  0.00    -0.217 NA
ATOM     17  C   UNL     1       2.568  -7.869   1.242  0.00  0.00    +0.225 A 
ATOM     18  N   UNL     1       2.527  -6.552   1.244  0.00  0.00    -0.218 NA
ATOM     19  H   UNL     1       2.459  -0.476  -0.802  0.00  0.00    +0.166 HD
ENDROOT
BRANCH  14  20
ATOM     20  N   UNL     1      -1.134  -5.961   1.255  0.00  0.00    +0.063 N 
ATOM     21  O   UNL     1      -1.714  -5.759   0.213  0.00  0.00    -0.126 OA
ATOM     22  O   UNL     1      -1.629  -5.610   2.300  0.00  0.00    -0.126 OA
ENDBRANCH  14  20
BRANCH  15  23
ATOM     23  N   UNL     1      -0.879  -8.805   1.239  0.00  0.00    -0.246 N 
ATOM     24  H   UNL     1      -1.751  -8.381   1.242  0.00  0.00    +0.172 HD
BRANCH  23  25
ATOM     25  N   UNL     1      -0.779 -10.202   1.231  0.00  0.00    -0.231 N 
ATOM     26  C   UNL     1      -1.895 -10.958   1.228  0.00  0.00    +0.260 C 
ATOM     27  O   UNL     1      -2.989 -10.427   1.232  0.00  0.00    -0.269 OA
ATOM     28  H   UNL     1       0.093 -10.626   1.228  0.00  0.00    +0.173 HD
BRANCH  26  29
ATOM     29  C   UNL     1      -1.790 -12.432   1.220  0.00  0.00    +0.038 A 
ATOM     30  C   UNL     1      -0.536 -13.045   1.222  0.00  0.00    +0.014 A 
ATOM     31  C   UNL     1      -0.444 -14.421   1.214  0.00  0.00    +0.016 A 
ATOM     32  C   UNL     1      -1.593 -15.194   1.205  0.00  0.00    +0.018 A 
ATOM     33  C   UNL     1      -2.840 -14.592   1.204  0.00  0.00    +0.016 A 
ATOM     34  C   UNL     1      -2.944 -13.217   1.217  0.00  0.00    +0.014 A 
ATOM     35 BR   UNL     1      -1.458 -17.081   1.194  0.00  0.00    -0.050 Br
ENDBRANCH  26  29
ENDBRANCH  23  25
ENDBRANCH  15  23
TORSDOF 4
