REMARK  Name = ZINC39657130
REMARK  5 active torsions:
REMARK  status: ('A' for Active; 'I' for Inactive)
REMARK    1  A    between atoms: C_1  and  C_2
REMARK    2  A    between atoms: C_2  and  C_4
REMARK    3  A    between atoms: C_2  and  N_11
REMARK    4  A    between atoms: C_12  and  C_14
REMARK    5  A    between atoms: C_25  and  C_27
REMARK                            x       y       z     vdW  Elec       q    Type
REMARK                         _______ _______ _______ _____ _____    ______ ____
ROOT
ATOM      1  C   UNL     1       1.220  -1.910  -3.725  0.00  0.00    +0.100 C 
ATOM      2  C   UNL     1       1.816  -0.538  -4.112  0.00  0.00    +0.121 C 
ATOM      3  N   UNL     1       1.750  -0.505  -5.592  0.00  0.00    -0.300 N 
ATOM      4  C   UNL     1       0.449  -1.138  -5.917  0.00  0.00    +0.115 C 
ATOM      5  C   UNL     1       0.323  -2.300  -4.912  0.00  0.00    -0.004 C 
ATOM      6  C   UNL     1      -1.126  -2.446  -4.454  0.00  0.00    -0.010 C 
ATOM      7  C   UNL     1      -1.988  -2.890  -5.639  0.00  0.00    -0.082 C 
ATOM      8  N   UNL     1      -1.487  -4.168  -6.159  0.00  0.00    +0.379 N 
ATOM      9  C   UNL     1      -0.127  -3.997  -6.682  0.00  0.00    -0.082 C 
ATOM     10  C   UNL     1       0.815  -3.599  -5.542  0.00  0.00    -0.010 C 
ATOM     11  C   UNL     1       2.666  -0.012  -6.449  0.00  0.00    +0.219 C 
ATOM     12  O   UNL     1       3.725   0.405  -6.030  0.00  0.00    -0.275 OA
ATOM     13  H   UNL     1      -1.477  -4.851  -5.416  0.00  0.00    -0.086 HD
ATOM     14  H   UNL     1      -2.093  -4.489  -6.899  0.00  0.00    -0.086 HD
ENDROOT
BRANCH  11  15
ATOM     15  C   UNL     1       2.374   0.020  -7.927  0.00  0.00    +0.079 C 
ATOM     16  C   UNL     1       3.691   0.004  -8.713  0.00  0.00    +0.017 C 
ATOM     17  C   UNL     1       3.365  -0.142 -10.201  0.00  0.00    +0.027 C 
ATOM     18  C   UNL     1       2.317   0.855 -10.601  0.00  0.00    -0.031 C 
ATOM     19  C   UNL     1       1.554   1.481  -9.763  0.00  0.00    -0.030 C 
ATOM     20  C   UNL     1       1.614   1.303  -8.273  0.00  0.00    +0.039 C 
ENDBRANCH  11  15
BRANCH   1  22
ATOM     21  N   UNL     1       0.261  -2.853  -1.649  0.00  0.00    -0.308 N 
ATOM     22  C   UNL     1       0.401  -1.790  -2.465  0.00  0.00    +0.219 C 
ATOM     23  O   UNL     1      -0.133  -0.737  -2.187  0.00  0.00    -0.275 OA
ATOM     24  H   UNL     1       0.687  -3.695  -1.871  0.00  0.00    +0.149 HD
BRANCH  21  26
ATOM     25  C   UNL     1       0.337  -2.172   0.699  0.00  0.00    +0.033 C 
ATOM     26  C   UNL     1      -0.535  -2.736  -0.424  0.00  0.00    +0.100 C 
BRANCH  26  27
ATOM     27  C   UNL     1      -1.049  -4.096  -0.027  0.00  0.00    -0.027 A 
ATOM     28  C   UNL     1      -0.231  -5.205  -0.145  0.00  0.00    +0.006 A 
ATOM     29  C   UNL     1      -0.702  -6.452   0.219  0.00  0.00    +0.015 A 
ATOM     30  C   UNL     1      -1.991  -6.591   0.702  0.00  0.00    +0.018 A 
ATOM     31  C   UNL     1      -2.808  -5.482   0.820  0.00  0.00    +0.015 A 
ATOM     32  C   UNL     1      -2.335  -4.234   0.460  0.00  0.00    +0.006 A 
ATOM     33 BR   UNL     1      -2.635  -8.298   1.200  0.00  0.00    -0.050 Br
ENDBRANCH  26  27
ENDBRANCH  21  26
ENDBRANCH   1  22
TORSDOF 4
