REMARK  Name = ZINC60410040
REMARK  8 active torsions:
REMARK  status: ('A' for Active; 'I' for Inactive)
REMARK    1  A    between atoms: C_1  and  C_2
REMARK    2  A    between atoms: C_2  and  C_3
REMARK    3  A    between atoms: C_2  and  C_4
REMARK    4  A    between atoms: C_7  and  C_10
REMARK    5  A    between atoms: C_11  and  C_12
REMARK    6  A    between atoms: N_14  and  C_15
REMARK    7  A    between atoms: C_19  and  S_21
REMARK    8  A    between atoms: S_21  and  N_24
REMARK                            x       y       z     vdW  Elec       q    Type
REMARK                         _______ _______ _______ _____ _____    ______ ____
ROOT
ATOM      1  C   UNL     1      -7.203  -3.281  -0.955  0.00  0.00    +0.241 C 
ATOM      2  O   UNL     1      -7.946  -3.006  -0.031  0.00  0.00    -0.270 OA
ATOM      3  N   UNL     1      -7.642  -4.059  -1.964  0.00  0.00    -0.282 N 
ATOM      4  H   UNL     1      -7.073  -4.224  -2.732  0.00  0.00    +0.155 HD
ENDROOT
BRANCH   3   5
ATOM      5  C   UNL     1      -8.917  -4.629  -1.904  0.00  0.00    +0.038 A 
ATOM      6  C   UNL     1      -9.139  -5.895  -2.429  0.00  0.00    +0.061 A 
ATOM      7  C   UNL     1     -10.402  -6.455  -2.368  0.00  0.00    +0.127 A 
ATOM      8  C   UNL     1     -11.444  -5.754  -1.783  0.00  0.00    +0.067 A 
ATOM      9  C   UNL     1     -11.224  -4.493  -1.260  0.00  0.00    +0.109 A 
ATOM     10  C   UNL     1      -9.963  -3.931  -1.313  0.00  0.00    +0.052 A 
ATOM     11  F   UNL     1     -10.621  -7.687  -2.879  0.00  0.00    -0.205 F 
BRANCH   9  12
ATOM     12  S   UNL     1     -12.552  -3.605  -0.517  0.00  0.00    +0.056 S 
ATOM     13  O   UNL     1     -12.212  -2.228  -0.592  0.00  0.00    -0.153 OA
ATOM     14  O   UNL     1     -13.751  -4.125  -1.075  0.00  0.00    -0.153 OA
BRANCH  12  15
ATOM     15  N   UNL     1     -12.568  -4.002   1.091  0.00  0.00    -0.204 NA
ATOM     16  H   UNL     1     -11.912  -4.623   1.443  0.00  0.00    +0.144 HD
ATOM     17  H   UNL     1     -13.233  -3.612   1.680  0.00  0.00    +0.144 HD
ENDBRANCH  12  15
ENDBRANCH   9  12
ENDBRANCH   3   5
BRANCH   1  19
ATOM     18  C   UNL     1      -5.393  -1.990   0.040  0.00  0.00    +0.013 C 
ATOM     19  C   UNL     1      -5.832  -2.768  -0.970  0.00  0.00    +0.068 C 
BRANCH  18  23
ATOM     20  C   UNL     1      -1.420  -0.502  -0.003  0.00  0.00    -0.045 A 
ATOM     21  C   UNL     1      -2.262  -0.186   1.049  0.00  0.00    +0.004 A 
ATOM     22  C   UNL     1      -3.555  -0.666   1.070  0.00  0.00    +0.008 A 
ATOM     23  C   UNL     1      -4.014  -1.473   0.025  0.00  0.00    -0.025 A 
ATOM     24  C   UNL     1      -3.157  -1.788  -1.034  0.00  0.00    +0.008 A 
ATOM     25  C   UNL     1      -1.869  -1.296  -1.043  0.00  0.00    +0.004 A 
BRANCH  20  27
ATOM     26  C   UNL     1      -0.037   1.556  -0.003  0.00  0.00    +0.012 C 
ATOM     27  C   UNL     1      -0.009   0.026  -0.018  0.00  0.00    +0.013 C 
ATOM     28  C   UNL     1       0.739  -0.481   1.216  0.00  0.00    +0.012 C 
ENDBRANCH  20  27
ENDBRANCH  18  23
ENDBRANCH   1  19
TORSDOF 6
