REMARK  Name = ZINC36564330
REMARK  17 active torsions:
REMARK  status: ('A' for Active; 'I' for Inactive)
REMARK    1  A    between atoms: C_1  and  C_2
REMARK    2  A    between atoms: C_2  and  C_3
REMARK    3  A    between atoms: C_3  and  C_4
REMARK    4  A    between atoms: C_4  and  C_5
REMARK    5  A    between atoms: C_5  and  C_7
REMARK    6  A    between atoms: C_5  and  C_9
REMARK    7  A    between atoms: C_7  and  C_8
REMARK    8  A    between atoms: N_11  and  C_12
REMARK    9  A    between atoms: N_11  and  C_15
REMARK   10  A    between atoms: C_12  and  C_13
REMARK   11  A    between atoms: C_13  and  C_14
REMARK   12  A    between atoms: C_15  and  C_17
REMARK   13  A    between atoms: C_15  and  C_26
REMARK   14  A    between atoms: C_18  and  O_25
REMARK   15  A    between atoms: C_20  and  O_24
REMARK   16  A    between atoms: C_22  and  O_23
REMARK   17  A    between atoms: N_28  and  C_29
REMARK                            x       y       z     vdW  Elec       q    Type
REMARK                         _______ _______ _______ _____ _____    ______ ____
ROOT
ATOM      1  C   UNL     1       2.801  -5.869   3.716  0.00  0.00    +0.199 C 
ENDROOT
BRANCH   1   2
ATOM      2  C   UNL     1       4.274  -6.146   3.557  0.00  0.00    +0.065 A 
ATOM      3  C   UNL     1       5.193  -5.497   4.368  0.00  0.00    +0.129 A 
ATOM      4  C   UNL     1       6.548  -5.752   4.221  0.00  0.00    +0.091 A 
ATOM      5  C   UNL     1       6.984  -6.655   3.264  0.00  0.00    +0.124 A 
ATOM      6  C   UNL     1       6.065  -7.304   2.453  0.00  0.00    +0.091 A 
ATOM      7  C   UNL     1       4.710  -7.053   2.603  0.00  0.00    +0.129 A 
BRANCH   7   8
ATOM      8  O   UNL     1       3.808  -7.692   1.811  0.00  0.00    -0.506 OA
ATOM      9  H   UNL     1       3.606  -7.225   0.989  0.00  0.00    +0.292 HD
ENDBRANCH   7   8
BRANCH   5  10
ATOM     10  O   UNL     1       8.312  -6.904   3.119  0.00  0.00    -0.507 OA
ATOM     11  H   UNL     1       8.638  -7.631   3.668  0.00  0.00    +0.292 HD
ENDBRANCH   5  10
BRANCH   3  12
ATOM     12  O   UNL     1       4.766  -4.612   5.306  0.00  0.00    -0.506 OA
ATOM     13  H   UNL     1       4.660  -4.994   6.188  0.00  0.00    +0.292 HD
ENDBRANCH   3  12
ENDBRANCH   1   2
BRANCH   1  14
ATOM     14  C   UNL     1       2.283  -6.589   4.934  0.00  0.00    +0.239 C 
ATOM     15  O   UNL     1       1.510  -6.033   5.685  0.00  0.00    -0.273 OA
ATOM     16  N   UNL     1       2.680  -7.852   5.189  0.00  0.00    -0.311 N 
ATOM     17  H   UNL     1       3.298  -8.297   4.589  0.00  0.00    +0.149 HD
BRANCH  16  18
ATOM     18  C   UNL     1       2.176  -8.552   6.374  0.00  0.00    +0.073 C 
ATOM     19  C   UNL     1       3.040  -8.192   7.584  0.00  0.00    +0.022 C 
ATOM     20  C   UNL     1       2.514  -8.924   8.821  0.00  0.00    +0.002 C 
ATOM     21  C   UNL     1       2.573 -10.434   8.584  0.00  0.00    +0.000 C 
ATOM     22  C   UNL     1       1.710 -10.794   7.373  0.00  0.00    +0.002 C 
ATOM     23  C   UNL     1       2.235 -10.062   6.136  0.00  0.00    +0.022 C 
ENDBRANCH  16  18
ENDBRANCH   1  14
BRANCH   1  26
ATOM     24  C   UNL     1       2.692  -3.610   2.807  0.00  0.00    +0.220 C 
ATOM     25  O   UNL     1       3.045  -4.054   1.735  0.00  0.00    -0.275 OA
ATOM     26  N   UNL     1       2.589  -4.428   3.874  0.00  0.00    -0.285 N 
BRANCH  24  27
ATOM     27  C   UNL     1       2.370  -2.145   2.947  0.00  0.00    +0.075 C 
BRANCH  27  28
ATOM     28  C   UNL     1       1.720  -1.640   1.657  0.00  0.00    +0.009 C 
ATOM     29  C   UNL     1       0.349  -2.297   1.486  0.00  0.00    +0.004 C 
ENDBRANCH  27  28
BRANCH  27  30
ATOM     30  C   UNL     1       3.658  -1.362   3.209  0.00  0.00    +0.013 C 
BRANCH  30  31
ATOM     31  C   UNL     1       3.318   0.106   3.475  0.00  0.00    +0.000 C 
BRANCH  31  33
ATOM     32  C   UNL     1       4.266   2.356   4.002  0.00  0.00    +0.004 C 
ATOM     33  C   UNL     1       4.606   0.888   3.737  0.00  0.00    -0.003 C 
ENDBRANCH  31  33
ENDBRANCH  30  31
ENDBRANCH  27  30
ENDBRANCH  24  27
BRANCH  26  34
ATOM     34  C   UNL     1       2.265  -3.875   5.192  0.00  0.00    +0.108 C 
BRANCH  34  35
ATOM     35  C   UNL     1       0.753  -3.675   5.303  0.00  0.00    +0.016 C 
ATOM     36  C   UNL     1       0.407  -3.168   6.704  0.00  0.00    +0.005 C 
ENDBRANCH  34  35
ENDBRANCH  26  34
ENDBRANCH   1  26
TORSDOF 14
