REMARK  Name = ZINC12389185
REMARK  6 active torsions:
REMARK  status: ('A' for Active; 'I' for Inactive)
REMARK    1  A    between atoms: C_7  and  C_11
REMARK    2  A    between atoms: N_13  and  C_14
REMARK    3  A    between atoms: C_14  and  C_15
REMARK    4  A    between atoms: C_15  and  N_16
REMARK    5  A    between atoms: N_16  and  S_17
REMARK    6  A    between atoms: S_17  and  C_20
REMARK                            x       y       z     vdW  Elec       q    Type
REMARK                         _______ _______ _______ _____ _____    ______ ____
ROOT
ATOM      1  C   UNL     1      -2.251   4.535   0.038  0.00  0.00    +0.121 C 
ENDROOT
BRANCH   1   4
ATOM      2  C   UNL     1      -1.207   2.333   0.021  0.00  0.00    +0.246 C 
ATOM      3  O   UNL     1      -2.318   1.838   0.024  0.00  0.00    -0.270 OA
ATOM      4  N   UNL     1      -1.066   3.674   0.027  0.00  0.00    -0.310 N 
ATOM      5  H   UNL     1      -0.180   4.069   0.025  0.00  0.00    +0.149 HD
BRANCH   2  12
ATOM      6  C   UNL     1      -0.627  -2.315  -0.003  0.00  0.00    +0.001 A 
ATOM      7  C   UNL     1       0.712  -2.679  -0.018  0.00  0.00    +0.002 A 
ATOM      8  C   UNL     1       1.700  -1.718  -0.023  0.00  0.00    +0.026 A 
ATOM      9  C   UNL     1       1.357  -0.370  -0.013  0.00  0.00    +0.047 A 
ATOM     10  C   UNL     1       0.002  -0.004   0.002  0.00  0.00    +0.012 A 
ATOM     11  C   UNL     1      -0.986  -0.985   0.007  0.00  0.00    +0.011 A 
ATOM     12  C   UNL     1      -0.018   1.470   0.010  0.00  0.00    +0.062 A 
ATOM     13  C   UNL     1       1.284   1.874  -0.000  0.00  0.00    +0.096 A 
ATOM     14  N   UNL     1       2.100   0.793  -0.014  0.00  0.00    -0.360 N 
ATOM     15  H   UNL     1       3.069   0.830  -0.023  0.00  0.00    +0.165 HD
ENDBRANCH   2  12
ENDBRANCH   1   4
BRANCH   1  16
ATOM     16  C   UNL     1      -1.816   6.002   0.044  0.00  0.00    +0.124 C 
BRANCH  16  17
ATOM     17  N   UNL     1      -3.002   6.862   0.054  0.00  0.00    -0.188 NA
ATOM     18  H   UNL     1      -3.872   6.492  -0.161  0.00  0.00    +0.148 HD
BRANCH  17  19
ATOM     19  S   UNL     1      -2.856   8.468   0.433  0.00  0.00    +0.060 S 
ATOM     20  O   UNL     1      -4.157   9.029   0.332  0.00  0.00    -0.153 OA
ATOM     21  O   UNL     1      -2.088   8.535   1.628  0.00  0.00    -0.153 OA
BRANCH  19  22
ATOM     22  C   UNL     1      -1.884   9.216  -0.832  0.00  0.00    +0.125 A 
ATOM     23  C   UNL     1      -2.445  10.167  -1.663  0.00  0.00    +0.050 A 
ATOM     24  C   UNL     1      -1.681  10.758  -2.653  0.00  0.00    +0.043 A 
ATOM     25  C   UNL     1      -0.358  10.389  -2.818  0.00  0.00    +0.021 A 
ATOM     26  C   UNL     1       0.202   9.434  -1.992  0.00  0.00    +0.023 A 
ATOM     27  C   UNL     1      -0.561   8.847  -0.998  0.00  0.00    +0.067 A 
ATOM     28 CL   UNL     1       0.142   7.647   0.041  0.00  0.00    -0.082 Cl
ATOM     29 CL   UNL     1      -2.384  11.958  -3.692  0.00  0.00    -0.083 Cl
ENDBRANCH  19  22
ENDBRANCH  17  19
ENDBRANCH  16  17
ENDBRANCH   1  16
TORSDOF 6
