REMARK  Name = ZINC09421223
REMARK  5 active torsions:
REMARK  status: ('A' for Active; 'I' for Inactive)
REMARK    1  A    between atoms: C_7  and  C_11
REMARK    2  A    between atoms: C_11  and  C_12
REMARK    3  A    between atoms: C_12  and  N_13
REMARK    4  A    between atoms: C_14  and  C_31
REMARK    5  A    between atoms: C_17  and  C_24
REMARK                            x       y       z     vdW  Elec       q    Type
REMARK                         _______ _______ _______ _____ _____    ______ ____
ROOT
ATOM      1  N   UNL     1      -0.824  -4.732  -1.283  0.00  0.00    -0.283 N 
ATOM      2  C   UNL     1      -0.273  -6.090  -1.383  0.00  0.00    +0.160 C 
ATOM      3  C   UNL     1      -1.454  -7.021  -1.355  0.00  0.00    +0.036 A 
ATOM      4  C   UNL     1      -1.916  -8.341  -1.391  0.00  0.00    +0.099 A 
ATOM      5  N   UNL     1      -3.231  -8.301  -1.309  0.00  0.00    -0.173 NA
ATOM      6  N   UNL     1      -3.646  -7.087  -1.225  0.00  0.00    -0.272 N 
ATOM      7  H   UNL     1      -4.575  -6.819  -1.156  0.00  0.00    +0.189 HD
ATOM      8  C   UNL     1      -2.582  -6.230  -1.248  0.00  0.00    +0.126 A 
ATOM      9  C   UNL     1      -2.163  -4.825  -1.201  0.00  0.00    +0.266 C 
ATOM     10  O   UNL     1      -2.920  -3.878  -1.103  0.00  0.00    -0.268 OA
ENDROOT
BRANCH   4  11
ATOM     11  C   UNL     1      -1.079  -9.562  -1.502  0.00  0.00    +0.003 A 
ATOM     12  C   UNL     1       0.108  -9.663  -0.780  0.00  0.00    +0.011 A 
ATOM     13  C   UNL     1       0.882 -10.800  -0.886  0.00  0.00    +0.020 A 
ATOM     14  C   UNL     1       0.481 -11.840  -1.707  0.00  0.00    +0.041 A 
ATOM     15  C   UNL     1      -0.698 -11.744  -2.426  0.00  0.00    +0.020 A 
ATOM     16  C   UNL     1      -1.482 -10.613  -2.323  0.00  0.00    +0.011 A 
ATOM     17 CL   UNL     1       1.460 -13.268  -1.837  0.00  0.00    -0.084 Cl
ENDBRANCH   4  11
BRANCH   2  18
ATOM     18  C   UNL     1       0.485  -6.249  -2.675  0.00  0.00    +0.066 A 
ATOM     19  C   UNL     1       1.458  -7.225  -2.781  0.00  0.00    +0.025 A 
ATOM     20  C   UNL     1       2.150  -7.363  -3.974  0.00  0.00    +0.003 A 
ATOM     21  C   UNL     1       1.836  -6.510  -5.021  0.00  0.00    +0.020 A 
ATOM     22  C   UNL     1       0.851  -5.558  -4.842  0.00  0.00    +0.111 A 
ATOM     23  N   UNL     1       0.209  -5.459  -3.694  0.00  0.00    -0.258 NA
ENDBRANCH   2  18
BRANCH   1  24
ATOM     24  C   UNL     1      -0.047  -3.490  -1.270  0.00  0.00    +0.114 C 
BRANCH  24  25
ATOM     25  C   UNL     1       0.317  -3.131   0.172  0.00  0.00    +0.056 C 
BRANCH  25  32
ATOM     26  C   UNL     1      -0.882   1.401   0.181  0.00  0.00    +0.001 A 
ATOM     27  C   UNL     1       0.216   2.251   0.197  0.00  0.00    +0.002 A 
ATOM     28  C   UNL     1       1.496   1.744   0.206  0.00  0.00    +0.026 A 
ATOM     29  C   UNL     1       1.695   0.367   0.202  0.00  0.00    +0.047 A 
ATOM     30  C   UNL     1       0.579  -0.490   0.187  0.00  0.00    +0.003 A 
ATOM     31  C   UNL     1      -0.710   0.046   0.176  0.00  0.00    +0.010 A 
ATOM     32  C   UNL     1       1.116  -1.853   0.185  0.00  0.00    -0.021 A 
ATOM     33  C   UNL     1       2.454  -1.748   0.199  0.00  0.00    +0.087 A 
ATOM     34  N   UNL     1       2.818  -0.429   0.209  0.00  0.00    -0.360 N 
ATOM     35  H   UNL     1       3.732  -0.104   0.219  0.00  0.00    +0.165 HD
ENDBRANCH  25  32
ENDBRANCH  24  25
ENDBRANCH   1  24
TORSDOF 5
