REMARK  Name = ZINC14002144
REMARK  7 active torsions:
REMARK  status: ('A' for Active; 'I' for Inactive)
REMARK    1  A    between atoms: C_4  and  C_7
REMARK    2  A    between atoms: C_10  and  C_13
REMARK    3  A    between atoms: N_15  and  N_16
REMARK    4  A    between atoms: N_16  and  C_17
REMARK    5  A    between atoms: C_17  and  N_19
REMARK    6  A    between atoms: C_20  and  C_22
REMARK    7  A    between atoms: C_22  and  C_23
REMARK                            x       y       z     vdW  Elec       q    Type
REMARK                         _______ _______ _______ _____ _____    ______ ____
ROOT
ATOM      1  C   UNL     1      -0.076   5.728   0.033  0.00  0.00    +0.260 C 
ATOM      2  O   UNL     1       0.969   6.350   0.026  0.00  0.00    -0.269 OA
ATOM      3  N   UNL     1      -1.252   6.386   0.048  0.00  0.00    -0.231 N 
ATOM      4  H   UNL     1      -2.085   5.889   0.053  0.00  0.00    +0.173 HD
ENDROOT
BRANCH   1   8
ATOM      5  C   UNL     1      -0.018   1.479   0.010  0.00  0.00    -0.018 A 
ATOM      6  C   UNL     1      -1.236   2.159   0.020  0.00  0.00    +0.009 A 
ATOM      7  C   UNL     1      -1.256   3.535   0.033  0.00  0.00    +0.014 A 
ATOM      8  C   UNL     1      -0.056   4.251   0.025  0.00  0.00    +0.038 A 
ATOM      9  C   UNL     1       1.163   3.568   0.010  0.00  0.00    +0.014 A 
ATOM     10  C   UNL     1       1.181   2.192   0.003  0.00  0.00    +0.009 A 
BRANCH   5  14
ATOM     11  C   UNL     1       0.040  -2.772  -0.013  0.00  0.00    +0.000 A 
ATOM     12  C   UNL     1      -1.169  -2.100   0.002  0.00  0.00    +0.001 A 
ATOM     13  C   UNL     1      -1.194  -0.720   0.010  0.00  0.00    +0.008 A 
ATOM     14  C   UNL     1       0.002  -0.004   0.002  0.00  0.00    -0.018 A 
ATOM     15  C   UNL     1       1.217  -0.687  -0.019  0.00  0.00    +0.008 A 
ATOM     16  C   UNL     1       1.230  -2.067  -0.021  0.00  0.00    +0.001 A 
ENDBRANCH   5  14
ENDBRANCH   1   8
BRANCH   3  17
ATOM     17  N   UNL     1      -1.271   7.787   0.055  0.00  0.00    -0.245 N 
ATOM     18  H   UNL     1      -0.438   8.283   0.049  0.00  0.00    +0.172 HD
BRANCH  17  19
ATOM     19  C   UNL     1      -2.447   8.445   0.070  0.00  0.00    +0.153 C 
ATOM     20  S   UNL     1      -2.470  10.156   0.079  0.00  0.00    -0.017 S 
BRANCH  19  21
ATOM     21  N   UNL     1      -3.605   7.755   0.078  0.00  0.00    -0.266 N 
ATOM     22  C   UNL     1      -4.781   8.413   0.092  0.00  0.00    +0.223 C 
ATOM     23  O   UNL     1      -4.798   9.625   0.099  0.00  0.00    -0.275 OA
ATOM     24  H   UNL     1      -3.592   6.785   0.073  0.00  0.00    +0.157 HD
BRANCH  22  25
ATOM     25  C   UNL     1      -6.076   7.642   0.101  0.00  0.00    +0.131 C 
BRANCH  25  26
ATOM     26  C   UNL     1      -7.234   8.605   0.117  0.00  0.00    -0.039 A 
ATOM     27  C   UNL     1      -7.758   9.037   1.322  0.00  0.00    +0.005 A 
ATOM     28  C   UNL     1      -8.816   9.925   1.337  0.00  0.00    +0.020 A 
ATOM     29  C   UNL     1      -9.360  10.373   0.147  0.00  0.00    +0.041 A 
ATOM     30  C   UNL     1      -8.840   9.937  -1.058  0.00  0.00    +0.020 A 
ATOM     31  C   UNL     1      -7.777   9.053  -1.073  0.00  0.00    +0.005 A 
ATOM     32 CL   UNL     1     -10.694  11.484   0.165  0.00  0.00    -0.084 Cl
ENDBRANCH  25  26
ENDBRANCH  22  25
ENDBRANCH  19  21
ENDBRANCH  17  19
ENDBRANCH   3  17
TORSDOF 7
