REMARK  Name = ZINC24977724
REMARK  10 active torsions:
REMARK  status: ('A' for Active; 'I' for Inactive)
REMARK    1  A    between atoms: C_1  and  C_2
REMARK    2  A    between atoms: C_5  and  N_9
REMARK    3  A    between atoms: C_6  and  C_8
REMARK    4  A    between atoms: C_13  and  C_15
REMARK    5  A    between atoms: C_15  and  C_17
REMARK    6  A    between atoms: C_15  and  S_18
REMARK    7  A    between atoms: S_18  and  C_19
REMARK    8  A    between atoms: N_29  and  C_30
REMARK    9  A    between atoms: C_30  and  C_31
REMARK   10  A    between atoms: C_30  and  C_32
REMARK                            x       y       z     vdW  Elec       q    Type
REMARK                         _______ _______ _______ _____ _____    ______ ____
ROOT
ATOM      1  C   UNL     1       0.011   0.028  -0.005  0.00  0.00    +0.137 C 
ATOM      2  C   UNL     1       0.001   1.558  -0.007  0.00  0.00    +0.029 C 
ENDROOT
BRANCH   1   7
ATOM      3  N   UNL     1       0.029  -0.997  -4.702  0.00  0.00    -0.269 N 
ATOM      4  C   UNL     1       0.684  -0.957  -3.525  0.00  0.00    +0.310 C 
ATOM      5  O   UNL     1       1.841  -1.324  -3.461  0.00  0.00    -0.252 OA
ATOM      6  N   UNL     1       0.057  -0.510  -2.419  0.00  0.00    -0.239 N 
ATOM      7  C   UNL     1       0.713  -0.471  -1.242  0.00  0.00    +0.234 C 
ATOM      8  O   UNL     1       1.867  -0.837  -1.178  0.00  0.00    -0.274 OA
ATOM      9  H   UNL     1      -1.043  -0.753  -4.743  0.00  0.00    +0.156 HD
ATOM     10  H   UNL     1      -0.990  -0.178  -2.476  0.00  0.00    +0.159 HD
BRANCH   3  15
ATOM     11  C   UNL     1       2.797  -2.421  -9.444  0.00  0.00    +0.044 C 
ATOM     12  C   UNL     1       2.062  -2.042  -8.185  0.00  0.00    -0.050 A 
ATOM     13  C   UNL     1       2.756  -1.506  -7.115  0.00  0.00    +0.005 A 
ATOM     14  C   UNL     1       2.085  -1.158  -5.959  0.00  0.00    +0.024 A 
ATOM     15  C   UNL     1       0.712  -1.348  -5.872  0.00  0.00    +0.038 A 
ATOM     16  C   UNL     1       0.019  -1.891  -6.945  0.00  0.00    -0.029 A 
ATOM     17  C   UNL     1       0.695  -2.232  -8.100  0.00  0.00    +0.008 A 
ATOM     18  C   UNL     1      -1.470  -2.104  -6.852  0.00  0.00    +0.045 C 
ENDBRANCH   3  15
ENDBRANCH   1   7
BRANCH   1  19
ATOM     19  S   UNL     1       0.883  -0.567   1.465  0.00  0.00    -0.075 S 
BRANCH  19  20
ATOM     20  C   UNL     1      -0.203   0.017   2.723  0.00  0.00    +0.173 A 
ATOM     21  N   UNL     1      -1.278   0.675   2.364  0.00  0.00    -0.223 NA
ATOM     22  C   UNL     1      -2.152   1.151   3.273  0.00  0.00    +0.079 A 
ATOM     23  C   UNL     1      -3.298   1.854   2.890  0.00  0.00    +0.028 A 
ATOM     24  C   UNL     1      -4.157   2.318   3.846  0.00  0.00    +0.002 A 
ATOM     25  C   UNL     1      -3.910   2.102   5.196  0.00  0.00    +0.001 A 
ATOM     26  C   UNL     1      -2.798   1.417   5.601  0.00  0.00    +0.015 A 
ATOM     27  C   UNL     1      -1.904   0.932   4.648  0.00  0.00    +0.065 A 
ATOM     28  C   UNL     1      -0.693   0.191   5.025  0.00  0.00    +0.263 A 
ATOM     29  O   UNL     1      -0.425  -0.029   6.192  0.00  0.00    -0.267 OA
ATOM     30  N   UNL     1       0.110  -0.244   4.027  0.00  0.00    -0.285 N 
BRANCH  30  31
ATOM     31  C   UNL     1       1.328  -0.993   4.346  0.00  0.00    +0.087 C 
ATOM     32  C   UNL     1       2.242  -0.132   5.220  0.00  0.00    +0.031 C 
ATOM     33  C   UNL     1       0.957  -2.271   5.102  0.00  0.00    +0.031 C 
ENDBRANCH  30  31
ENDBRANCH  19  20
ENDBRANCH   1  19
TORSDOF 5
