REMARK  Name = ZINC27359157
REMARK  7 active torsions:
REMARK  status: ('A' for Active; 'I' for Inactive)
REMARK    1  A    between atoms: C_1  and  C_2
REMARK    2  A    between atoms: C_2  and  C_4
REMARK    3  A    between atoms: C_2  and  N_14
REMARK    4  A    between atoms: N_10  and  C_11
REMARK    5  A    between atoms: N_10  and  C_12
REMARK    6  A    between atoms: N_17  and  C_20
REMARK    7  A    between atoms: C_20  and  C_21
REMARK                            x       y       z     vdW  Elec       q    Type
REMARK                         _______ _______ _______ _____ _____    ______ ____
ROOT
ATOM      1  C   UNL     1       7.354  -2.382  -5.043  0.00  0.00    -0.005 C 
ATOM      2  C   UNL     1       5.859  -2.055  -5.024  0.00  0.00    -0.002 C 
ENDROOT
BRANCH   2   3
ATOM      3  C   UNL     1       5.092  -3.170  -5.688  0.00  0.00    +0.123 A 
ATOM      4  N   UNL     1       4.916  -4.316  -5.055  0.00  0.00    -0.201 NA
ATOM      5  C   UNL     1       4.235  -5.302  -5.636  0.00  0.00    +0.217 A 
ATOM      6  N   UNL     1       3.741  -5.135  -6.858  0.00  0.00    -0.181 NA
ATOM      7  C   UNL     1       3.925  -3.982  -7.493  0.00  0.00    +0.222 A 
ATOM      8  N   UNL     1       4.602  -3.000  -6.903  0.00  0.00    -0.201 NA
ATOM      9  N   UNL     1       3.413  -3.804  -8.762  0.00  0.00    -0.306 N 
ATOM     10  C   UNL     1       3.616  -2.533  -9.461  0.00  0.00    +0.132 C 
ATOM     11  C   UNL     1       2.668  -4.886  -9.410  0.00  0.00    +0.132 C 
ATOM     12  N   UNL     1       4.047  -6.497  -4.972  0.00  0.00    -0.327 N 
ATOM     13  H   UNL     1       3.485  -7.310  -5.453  0.00  0.00    +0.145 HD
ATOM     14  H   UNL     1       4.460  -6.636  -3.962  0.00  0.00    +0.145 HD
ENDBRANCH   2   3
BRANCH   2  15
ATOM     15  N   UNL     1       5.407  -1.910  -3.634  0.00  0.00    +0.388 N 
ATOM     16  C   UNL     1       6.135  -0.830  -2.953  0.00  0.00    -0.062 C 
ATOM     17  C   UNL     1       5.694  -0.764  -1.489  0.00  0.00    +0.066 C 
ATOM     18  N   UNL     1       4.243  -0.538  -1.427  0.00  0.00    -0.301 NA
ATOM     19  C   UNL     1       3.515  -1.619  -2.108  0.00  0.00    +0.066 C 
ATOM     20  C   UNL     1       3.957  -1.685  -3.572  0.00  0.00    -0.062 C 
ATOM     21  H   UNL     1       5.628  -2.852  -3.108  0.00  0.00    -0.081 HD
BRANCH  18  22
ATOM     22  C   UNL     1       3.792  -0.394  -0.037  0.00  0.00    +0.126 C 
BRANCH  22  23
ATOM     23  C   UNL     1       2.360   0.077  -0.020  0.00  0.00    +0.005 A 
ATOM     24  C   UNL     1       1.221  -0.657  -0.013  0.00  0.00    +0.014 A 
ATOM     25  C   UNL     1       0.002  -0.004   0.002  0.00  0.00    +0.028 A 
ATOM     26  C   UNL     1      -0.016   1.352   0.009  0.00  0.00    +0.078 A 
ATOM     27  S   UNL     1       1.725   1.745  -0.005  0.00  0.00    -0.080 S 
ATOM     28 CL   UNL     1      -1.379   2.427   0.022  0.00  0.00    -0.076 Cl
ENDBRANCH  22  23
ENDBRANCH  18  22
ENDBRANCH   2  15
TORSDOF 4
