REMARK  Name = ZINC09642003
REMARK  11 active torsions:
REMARK  status: ('A' for Active; 'I' for Inactive)
REMARK    1  A    between atoms: C_1  and  O_2
REMARK    2  A    between atoms: O_2  and  C_3
REMARK    3  A    between atoms: C_6  and  C_9
REMARK    4  A    between atoms: C_11  and  C_14
REMARK    5  A    between atoms: C_14  and  C_15
REMARK    6  A    between atoms: N_17  and  C_18
REMARK    7  A    between atoms: C_18  and  C_19
REMARK    8  A    between atoms: C_19  and  C_21
REMARK    9  A    between atoms: C_19  and  N_61
REMARK   10  A    between atoms: C_24  and  O_27
REMARK   11  A    between atoms: O_27  and  C_28
REMARK                            x       y       z     vdW  Elec       q    Type
REMARK                         _______ _______ _______ _____ _____    ______ ____
ROOT
ATOM      1  C   UNL     1       0.590   4.292  -0.867  0.00  0.00    +0.219 C 
ATOM      2  O   UNL     1       0.545   3.457  -1.745  0.00  0.00    -0.275 OA
ATOM      3  N   UNL     1       0.052   5.511  -1.068  0.00  0.00    -0.316 N 
ATOM      4  H   UNL     1       0.088   6.179  -0.366  0.00  0.00    +0.149 HD
ENDROOT
BRANCH   1   5
ATOM      5  C   UNL     1       1.249   3.967   0.449  0.00  0.00    +0.151 C 
BRANCH   5   8
ATOM      6  C   UNL     1       1.382   0.308   0.088  0.00  0.00    +0.109 A 
ATOM      7  N   UNL     1       0.953   1.562   0.124  0.00  0.00    -0.243 NA
ATOM      8  C   UNL     1       1.765   2.551   0.416  0.00  0.00    +0.058 A 
ATOM      9  C   UNL     1       3.072   2.297   0.687  0.00  0.00    +0.071 A 
ATOM     10  S   UNL     1       3.108   0.518   0.505  0.00  0.00    -0.075 S 
BRANCH   6  14
ATOM     11  C   UNL     1      -0.767  -3.253  -0.783  0.00  0.00    +0.120 A 
ATOM     12  C   UNL     1       0.587  -3.317  -0.481  0.00  0.00    +0.046 A 
ATOM     13  C   UNL     1       1.288  -2.164  -0.198  0.00  0.00    +0.014 A 
ATOM     14  C   UNL     1       0.634  -0.931  -0.215  0.00  0.00    +0.007 A 
ATOM     15  C   UNL     1      -0.728  -0.871  -0.513  0.00  0.00    +0.014 A 
ATOM     16  C   UNL     1      -1.420  -2.028  -0.801  0.00  0.00    +0.046 A 
BRANCH  11  18
ATOM     17  C   UNL     1      -2.843  -4.253  -1.364  0.00  0.00    +0.277 C 
ATOM     18  O   UNL     1      -1.454  -4.391  -1.062  0.00  0.00    -0.495 OA
ENDBRANCH  11  18
ENDBRANCH   6  14
ENDBRANCH   5   8
ENDBRANCH   1   5
BRANCH   3  19
ATOM     19  C   UNL     1      -0.588   5.827  -2.348  0.00  0.00    +0.093 C 
BRANCH  19  20
ATOM     20  C   UNL     1      -0.963   7.310  -2.377  0.00  0.00    -0.020 C 
BRANCH  20  21
ATOM     21  C   UNL     1      -1.694   7.618  -3.659  0.00  0.00    -0.059 A 
ATOM     22  C   UNL     1      -0.996   7.690  -4.851  0.00  0.00    +0.005 A 
ATOM     23  C   UNL     1      -1.664   7.966  -6.028  0.00  0.00    +0.046 A 
ATOM     24  C   UNL     1      -3.034   8.183  -6.012  0.00  0.00    +0.120 A 
ATOM     25  C   UNL     1      -3.731   8.117  -4.814  0.00  0.00    +0.046 A 
ATOM     26  C   UNL     1      -3.059   7.834  -3.640  0.00  0.00    +0.005 A 
BRANCH  24  27
ATOM     27  O   UNL     1      -3.693   8.462  -7.168  0.00  0.00    -0.495 OA
ATOM     28  C   UNL     1      -2.912   8.514  -8.363  0.00  0.00    +0.277 C 
ENDBRANCH  24  27
ENDBRANCH  20  21
BRANCH  20  33
ATOM     29  C   UNL     1      -0.033   9.548  -2.613  0.00  0.00    -0.078 C 
ATOM     30  C   UNL     1       1.169  10.300  -1.989  0.00  0.00    -0.020 C 
ATOM     31  C   UNL     1       1.436   9.507  -0.690  0.00  0.00    -0.020 C 
ATOM     32  C   UNL     1       0.814   8.119  -0.931  0.00  0.00    -0.078 C 
ATOM     33  N   UNL     1       0.273   8.146  -2.291  0.00  0.00    +0.385 N 
ATOM     34  H   UNL     1       0.971   7.782  -2.949  0.00  0.00    -0.081 HD
ENDBRANCH  20  33
ENDBRANCH  19  20
ENDBRANCH   3  19
TORSDOF 9
