REMARK  Name = ZINC20338732
REMARK  8 active torsions:
REMARK  status: ('A' for Active; 'I' for Inactive)
REMARK    1  A    between atoms: C_1  and  C_2
REMARK    2  A    between atoms: C_2  and  C_3
REMARK    3  A    between atoms: C_3  and  C_4
REMARK    4  A    between atoms: C_4  and  C_5
REMARK    5  A    between atoms: C_5  and  N_6
REMARK    6  A    between atoms: C_10  and  N_25
REMARK    7  A    between atoms: C_15  and  C_16
REMARK    8  A    between atoms: C_19  and  C_22
REMARK                            x       y       z     vdW  Elec       q    Type
REMARK                         _______ _______ _______ _____ _____    ______ ____
ROOT
ATOM      1  N   UNL     1       4.085   2.066   0.630  0.00  0.00    -0.262 N 
ATOM      2  C   UNL     1       2.794   1.516   0.615  0.00  0.00    +0.079 A 
ATOM      3  C   UNL     1       1.694   2.324   0.863  0.00  0.00    +0.029 A 
ATOM      4  C   UNL     1       0.422   1.785   0.846  0.00  0.00    +0.025 A 
ATOM      5  C   UNL     1       0.241   0.433   0.580  0.00  0.00    +0.028 A 
ATOM      6  C   UNL     1       1.339  -0.380   0.332  0.00  0.00    +0.071 A 
ATOM      7  C   UNL     1       2.614   0.159   0.349  0.00  0.00    +0.152 A 
ATOM      8  O   UNL     1       3.695  -0.635   0.108  0.00  0.00    -0.449 OA
ATOM      9  C   UNL     1       4.797  -0.007  -0.404  0.00  0.00    +0.191 C 
ATOM     10  C   UNL     1       5.567  -0.591  -1.349  0.00  0.00    +0.059 C 
ATOM     11  C   UNL     1       5.110   1.339   0.123  0.00  0.00    +0.286 C 
ATOM     12  O   UNL     1       6.245   1.777   0.102  0.00  0.00    -0.266 OA
ENDROOT
BRANCH  10  13
ATOM     13  C   UNL     1       6.625   0.183  -2.017  0.00  0.00    -0.021 A 
ATOM     14  C   UNL     1       7.839  -0.427  -2.348  0.00  0.00    +0.008 A 
ATOM     15  C   UNL     1       8.824   0.303  -2.980  0.00  0.00    +0.004 A 
ATOM     16  C   UNL     1       8.617   1.639  -3.276  0.00  0.00    -0.050 A 
ATOM     17  C   UNL     1       7.420   2.251  -2.947  0.00  0.00    +0.004 A 
ATOM     18  C   UNL     1       6.423   1.533  -2.321  0.00  0.00    +0.008 A 
ATOM     19  C   UNL     1       9.700   2.431  -3.962  0.00  0.00    +0.044 C 
ENDBRANCH  10  13
BRANCH   5  20
ATOM     20  N   UNL     1      -1.048  -0.109   0.563  0.00  0.00    -0.358 N 
ATOM     21  H   UNL     1      -1.192  -1.179   0.353  0.00  0.00    +0.142 HD
ATOM     22  H   UNL     1      -1.918   0.535   0.760  0.00  0.00    +0.142 HD
ENDBRANCH   5  20
BRANCH   1  23
ATOM     23  C   UNL     1       4.320   3.402   1.183  0.00  0.00    +0.114 C 
BRANCH  23  24
ATOM     24  C   UNL     1       4.634   3.288   2.676  0.00  0.00    +0.019 C 
BRANCH  24  25
ATOM     25  C   UNL     1       4.880   4.683   3.254  0.00  0.00    +0.001 C 
BRANCH  25  27
ATOM     26  C   UNL     1       5.439   5.964   5.324  0.00  0.00    +0.004 C 
ATOM     27  C   UNL     1       5.194   4.569   4.747  0.00  0.00    -0.003 C 
ENDBRANCH  25  27
ENDBRANCH  24  25
ENDBRANCH  23  24
ENDBRANCH   1  23
TORSDOF 6
