REMARK  Name = ZINC05489520
REMARK  9 active torsions:
REMARK  status: ('A' for Active; 'I' for Inactive)
REMARK    1  A    between atoms: C_1  and  C_2
REMARK    2  A    between atoms: C_2  and  C_3
REMARK    3  A    between atoms: C_6  and  C_9
REMARK    4  A    between atoms: C_12  and  C_23
REMARK    5  A    between atoms: C_18  and  N_22
REMARK    6  A    between atoms: C_19  and  C_20
REMARK    7  A    between atoms: C_26  and  O_29
REMARK    8  A    between atoms: O_29  and  C_30
REMARK    9  A    between atoms: C_30  and  C_31
REMARK                            x       y       z     vdW  Elec       q    Type
REMARK                         _______ _______ _______ _____ _____    ______ ____
ROOT
ATOM      1  C   UNL     1      -5.419  -2.005   0.043  0.00  0.00    +0.102 C 
ATOM      2  C   UNL     1      -6.325  -1.035  -0.671  0.00  0.00    +0.054 A 
ATOM      3  C   UNL     1      -6.765   0.185  -0.278  0.00  0.00    +0.074 A 
ATOM      4  N   UNL     1      -7.563   0.668  -1.276  0.00  0.00    -0.273 N 
ATOM      5  H   UNL     1      -8.021   1.523  -1.278  0.00  0.00    +0.189 HD
ATOM      6  N   UNL     1      -7.604  -0.292  -2.299  0.00  0.00    -0.135 NA
ATOM      7  C   UNL     1      -6.869  -1.307  -1.942  0.00  0.00    +0.245 A 
ATOM      8  O   UNL     1      -6.610  -2.468  -2.603  0.00  0.00    -0.421 OA
ATOM      9  C   UNL     1      -6.041  -3.469  -1.901  0.00  0.00    +0.201 C 
ATOM     10  C   UNL     1      -5.479  -3.326  -0.682  0.00  0.00    +0.098 C 
ENDROOT
BRANCH   1  14
ATOM     11  C   UNL     1      -1.412  -0.526   0.013  0.00  0.00    -0.048 A 
ATOM     12  C   UNL     1      -2.051  -0.766   1.215  0.00  0.00    +0.004 A 
ATOM     13  C   UNL     1      -3.348  -1.244   1.225  0.00  0.00    +0.005 A 
ATOM     14  C   UNL     1      -4.006  -1.482   0.032  0.00  0.00    -0.035 A 
ATOM     15  C   UNL     1      -3.367  -1.241  -1.170  0.00  0.00    +0.005 A 
ATOM     16  C   UNL     1      -2.072  -0.758  -1.179  0.00  0.00    +0.004 A 
BRANCH  11  18
ATOM     17  C   UNL     1      -0.019   1.526   0.010  0.00  0.00    +0.009 C 
ATOM     18  C   UNL     1       0.002  -0.004   0.002  0.00  0.00    +0.032 C 
ENDBRANCH  11  18
ENDBRANCH   1  14
BRANCH   3  19
ATOM     19  C   UNL     1      -6.441   0.867   0.995  0.00  0.00    +0.000 A 
ATOM     20  C   UNL     1      -6.480   0.159   2.197  0.00  0.00    +0.013 A 
ATOM     21  C   UNL     1      -6.178   0.798   3.381  0.00  0.00    +0.046 A 
ATOM     22  C   UNL     1      -5.834   2.143   3.377  0.00  0.00    +0.121 A 
ATOM     23  C   UNL     1      -5.794   2.850   2.183  0.00  0.00    +0.046 A 
ATOM     24  C   UNL     1      -6.090   2.217   0.995  0.00  0.00    +0.013 A 
BRANCH  22  25
ATOM     25  O   UNL     1      -5.536   2.769   4.546  0.00  0.00    -0.492 OA
BRANCH  25  26
ATOM     26  C   UNL     1      -5.191   4.154   4.471  0.00  0.00    +0.225 C 
ATOM     27  C   UNL     1      -4.891   4.682   5.875  0.00  0.00    +0.048 C 
ENDBRANCH  25  26
ENDBRANCH  22  25
ENDBRANCH   3  19
BRANCH   9  28
ATOM     28  N   UNL     1      -6.033  -4.720  -2.465  0.00  0.00    -0.328 N 
ATOM     29  H   UNL     1      -6.428  -4.860  -3.340  0.00  0.00    +0.145 HD
ATOM     30  H   UNL     1      -5.632  -5.464  -1.989  0.00  0.00    +0.145 HD
ENDBRANCH   9  28
BRANCH  10  31
ATOM     31  C   UNL     1      -4.914  -4.479  -0.049  0.00  0.00    +0.101 C 
ATOM     32  N   UNL     1      -4.466  -5.394   0.454  0.00  0.00    -0.191 NA
ENDBRANCH  10  31
TORSDOF 7
