REMARK  Name = ZINC58572076
REMARK  6 active torsions:
REMARK  status: ('A' for Active; 'I' for Inactive)
REMARK    1  A    between atoms: C_1  and  C_2
REMARK    2  A    between atoms: C_5  and  C_8
REMARK    3  A    between atoms: C_9  and  C_33
REMARK    4  A    between atoms: C_17  and  C_19
REMARK    5  A    between atoms: C_22  and  C_25
REMARK    6  A    between atoms: C_25  and  N_26
REMARK                            x       y       z     vdW  Elec       q    Type
REMARK                         _______ _______ _______ _____ _____    ______ ____
ROOT
ATOM      1  C   UNL     1       0.061  -4.255  -0.021  0.00  0.00    +0.007 A 
ATOM      2  C   UNL     1      -0.987  -4.957  -0.518  0.00  0.00    -0.003 A 
ATOM      3  S   UNL     1      -0.486  -6.654  -0.305  0.00  0.00    -0.073 S 
ATOM      4  C   UNL     1       1.103  -6.385   0.438  0.00  0.00    +0.117 A 
ATOM      5  C   UNL     1       1.210  -4.984   0.499  0.00  0.00    +0.080 A 
ATOM      6  C   UNL     1       2.423  -4.476   1.064  0.00  0.00    +0.261 A 
ATOM      7  O   UNL     1       2.602  -3.274   1.161  0.00  0.00    -0.267 OA
ATOM      8  N   UNL     1       3.363  -5.341   1.486  0.00  0.00    -0.306 N 
ATOM      9  H   UNL     1       4.186  -5.001   1.870  0.00  0.00    +0.170 HD
ATOM     10  C   UNL     1       3.177  -6.692   1.384  0.00  0.00    +0.142 A 
ATOM     11  N   UNL     1       2.067  -7.185   0.877  0.00  0.00    -0.222 NA
ATOM     12  C   UNL     1      -2.269  -4.428  -1.108  0.00  0.00    +0.052 C 
ENDROOT
BRANCH   1  17
ATOM     13  C   UNL     1      -0.018   1.503   0.010  0.00  0.00    +0.044 C 
ATOM     14  C   UNL     1       0.002  -0.004   0.002  0.00  0.00    -0.050 A 
ATOM     15  C   UNL     1       0.006  -0.686  -1.201  0.00  0.00    +0.004 A 
ATOM     16  C   UNL     1       0.025  -2.066  -1.215  0.00  0.00    +0.009 A 
ATOM     17  C   UNL     1       0.041  -2.772  -0.013  0.00  0.00    -0.016 A 
ATOM     18  C   UNL     1       0.037  -2.079   1.196  0.00  0.00    +0.009 A 
ATOM     19  C   UNL     1       0.023  -0.699   1.198  0.00  0.00    +0.004 A 
ENDBRANCH   1  17
BRANCH  10  20
ATOM     20  C   UNL     1       4.232  -7.611   1.859  0.00  0.00    +0.017 A 
ATOM     21  C   UNL     1       5.408  -7.102   2.414  0.00  0.00    +0.012 A 
ATOM     22  C   UNL     1       6.389  -7.965   2.856  0.00  0.00    +0.006 A 
ATOM     23  C   UNL     1       6.209  -9.333   2.750  0.00  0.00    -0.030 A 
ATOM     24  C   UNL     1       5.046  -9.845   2.202  0.00  0.00    +0.006 A 
ATOM     25  C   UNL     1       4.055  -8.992   1.761  0.00  0.00    +0.012 A 
BRANCH  23  26
ATOM     26  C   UNL     1       7.286 -10.270   3.234  0.00  0.00    +0.153 C 
BRANCH  26  27
ATOM     27  N   UNL     1       7.053 -10.595   4.644  0.00  0.00    -0.220 N 
ATOM     28  C   UNL     1       7.552  -9.886   5.676  0.00  0.00    +0.240 C 
ATOM     29  O   UNL     1       8.252  -8.898   5.615  0.00  0.00    -0.273 OA
ATOM     30  C   UNL     1       7.057 -10.581   6.928  0.00  0.00    +0.202 C 
ATOM     31  N   UNL     1       6.261 -11.707   6.407  0.00  0.00    -0.290 N 
ATOM     32  C   UNL     1       6.315 -11.627   5.066  0.00  0.00    +0.309 C 
ATOM     33  O   UNL     1       5.757 -12.408   4.320  0.00  0.00    -0.252 OA
ATOM     34  H   UNL     1       5.788 -12.373   6.930  0.00  0.00    +0.151 HD
ENDBRANCH  26  27
ENDBRANCH  23  26
ENDBRANCH  10  20
TORSDOF 4
