REMARK  Name = ZINC67010539
REMARK  11 active torsions:
REMARK  status: ('A' for Active; 'I' for Inactive)
REMARK    1  A    between atoms: C_1  and  C_2
REMARK    2  A    between atoms: C_4  and  C_25
REMARK    3  A    between atoms: C_5  and  C_9
REMARK    4  A    between atoms: C_7  and  C_8
REMARK    5  A    between atoms: C_9  and  N_10
REMARK    6  A    between atoms: N_10  and  C_11
REMARK    7  A    between atoms: C_11  and  C_13
REMARK    8  A    between atoms: C_11  and  C_14
REMARK    9  A    between atoms: C_18  and  S_20
REMARK   10  A    between atoms: S_20  and  N_23
REMARK   11  A    between atoms: N_23  and  C_24
REMARK                            x       y       z     vdW  Elec       q    Type
REMARK                         _______ _______ _______ _____ _____    ______ ____
ROOT
ATOM      1  C   UNL     1       1.447  -6.215  -0.280  0.00  0.00    -0.044 C 
ATOM      2  C   UNL     1       0.620  -6.729  -1.460  0.00  0.00    -0.009 C 
ENDROOT
BRANCH   1   3
ATOM      3  C   UNL     1       2.868  -6.698  -0.414  0.00  0.00    -0.060 A 
ATOM      4  C   UNL     1       3.744  -6.044  -1.262  0.00  0.00    +0.002 A 
ATOM      5  C   UNL     1       5.047  -6.488  -1.385  0.00  0.00    +0.002 A 
ATOM      6  C   UNL     1       5.475  -7.585  -0.661  0.00  0.00    +0.028 A 
ATOM      7  C   UNL     1       4.601  -8.238   0.187  0.00  0.00    +0.105 A 
ATOM      8  C   UNL     1       3.298  -7.792   0.314  0.00  0.00    +0.030 A 
BRANCH   7   9
ATOM      9  S   UNL     1       5.146  -9.636   1.110  0.00  0.00    +0.058 S 
ATOM     10  O   UNL     1       3.987 -10.399   1.415  0.00  0.00    -0.153 OA
ATOM     11  O   UNL     1       6.253 -10.181   0.404  0.00  0.00    -0.153 OA
BRANCH   9  12
ATOM     12  N   UNL     1       5.735  -9.072   2.551  0.00  0.00    -0.193 NA
ATOM     13  C   UNL     1       4.835  -8.421   3.506  0.00  0.00    +0.127 C 
ATOM     14  H   UNL     1       6.676  -9.172   2.763  0.00  0.00    +0.148 HD
ENDBRANCH   9  12
ENDBRANCH   7   9
ENDBRANCH   1   3
BRANCH   1  15
ATOM     15  N   UNL     1       1.428  -4.746  -0.272  0.00  0.00    +0.386 N 
ATOM     16  H   UNL     1       1.744  -4.401  -1.166  0.00  0.00    -0.085 HD
ATOM     17  H   UNL     1       2.039  -4.406   0.455  0.00  0.00    -0.085 HD
BRANCH  15  18
ATOM     18  C   UNL     1       0.059  -4.275  -0.021  0.00  0.00    -0.046 C 
BRANCH  18  23
ATOM     19  C   UNL     1      -0.018   1.503   0.010  0.00  0.00    +0.044 C 
ATOM     20  C   UNL     1       0.002  -0.004   0.002  0.00  0.00    -0.047 A 
ATOM     21  C   UNL     1       0.006  -0.689  -1.199  0.00  0.00    +0.007 A 
ATOM     22  C   UNL     1       0.025  -2.071  -1.207  0.00  0.00    -0.049 A 
ATOM     23  C   UNL     1       0.040  -2.768  -0.013  0.00  0.00    -0.061 A 
ATOM     24  C   UNL     1       0.037  -2.084   1.188  0.00  0.00    +0.005 A 
ATOM     25  C   UNL     1       0.023  -0.702   1.195  0.00  0.00    -0.047 A 
ATOM     26  C   UNL     1       0.025   0.045   2.504  0.00  0.00    +0.044 C 
ATOM     27  C   UNL     1       0.027  -2.817  -2.516  0.00  0.00    +0.044 C 
ENDBRANCH  18  23
ENDBRANCH  15  18
ENDBRANCH   1  15
TORSDOF 6
