REMARK  Name = ZINC28286508
REMARK  7 active torsions:
REMARK  status: ('A' for Active; 'I' for Inactive)
REMARK    1  A    between atoms: C_1  and  C_2
REMARK    2  A    between atoms: C_4  and  C_27
REMARK    3  A    between atoms: C_18  and  N_21
REMARK    4  A    between atoms: N_21  and  C_22
REMARK    5  A    between atoms: C_22  and  C_23
REMARK    6  A    between atoms: C_23  and  C_25
REMARK    7  A    between atoms: C_23  and  O_26
REMARK                            x       y       z     vdW  Elec       q    Type
REMARK                         _______ _______ _______ _____ _____    ______ ____
ROOT
ATOM      1  C   UNL     1       0.002  -0.004   0.002  0.00  0.00    +0.067 C 
ATOM      2  C   UNL     1      -0.018   1.503   0.010  0.00  0.00    +0.061 A 
ATOM      3  C   UNL     1       1.106   2.337   0.004  0.00  0.00    +0.048 A 
ATOM      4  C   UNL     1       0.675   3.619   0.015  0.00  0.00    +0.045 A 
ATOM      5  N   UNL     1      -0.685   3.595   0.028  0.00  0.00    -0.206 N 
ATOM      6  N   UNL     1      -1.089   2.253   0.019  0.00  0.00    -0.169 NA
ATOM      7  C   UNL     1      -1.522   4.700   0.042  0.00  0.00    +0.219 C 
ATOM      8  N   UNL     1      -1.002   5.913   0.049  0.00  0.00    -0.207 NA
ATOM      9  C   UNL     1      -1.847   6.959   0.136  0.00  0.00    +0.111 A 
ATOM     10  C   UNL     1      -3.190   6.876   0.441  0.00  0.00    +0.023 A 
ATOM     11  C   UNL     1      -3.923   8.066   0.476  0.00  0.00    -0.029 A 
ATOM     12  C   UNL     1      -3.253   9.221   0.212  0.00  0.00    -0.005 A 
ATOM     13  S   UNL     1      -1.587   8.693  -0.097  0.00  0.00    -0.073 S 
ATOM     14  C   UNL     1      -3.804  10.610   0.188  0.00  0.00    +0.043 C 
ATOM     15  C   UNL     1      -5.338  10.521   0.148  0.00  0.00    +0.005 C 
ATOM     16  C   UNL     1      -5.799   9.520   1.212  0.00  0.00    +0.005 C 
ATOM     17  C   UNL     1      -5.416   8.100   0.795  0.00  0.00    +0.036 C 
ATOM     18  C   UNL     1      -3.770   5.490   0.720  0.00  0.00    +0.175 C 
ATOM     19  N   UNL     1      -2.885   4.522   0.054  0.00  0.00    -0.294 N 
ATOM     20  C   UNL     1       1.543   4.850   0.014  0.00  0.00    +0.066 C 
ATOM     21  H   UNL     1      -3.312   3.639  -0.445  0.00  0.00    +0.151 HD
ENDROOT
BRANCH  18  22
ATOM     22  N   UNL     1      -3.794   5.237   2.167  0.00  0.00    -0.292 NA
ATOM     23  H   UNL     1      -2.957   4.576   2.437  0.00  0.00    +0.124 HD
BRANCH  22  24
ATOM     24  C   UNL     1      -5.051   4.592   2.568  0.00  0.00    +0.114 C 
BRANCH  24  25
ATOM     25  C   UNL     1      -5.038   4.344   4.078  0.00  0.00    +0.125 C 
ATOM     26  C   UNL     1      -6.348   3.673   4.496  0.00  0.00    +0.039 C 
BRANCH  25  27
ATOM     27  O   UNL     1      -3.940   3.494   4.412  0.00  0.00    -0.391 OA
ATOM     28  H   UNL     1      -3.767   3.204   5.459  0.00  0.00    +0.210 HD
ENDBRANCH  25  27
ENDBRANCH  24  25
ENDBRANCH  22  24
ENDBRANCH  18  22
TORSDOF 4
