REMARK  Name = ZINC20431736
REMARK  4 active torsions:
REMARK  status: ('A' for Active; 'I' for Inactive)
REMARK    1  A    between atoms: C_1  and  C_2
REMARK    2  A    between atoms: N_5  and  S_11
REMARK    3  A    between atoms: C_7  and  C_10
REMARK    4  A    between atoms: S_11  and  C_14
REMARK                            x       y       z     vdW  Elec       q    Type
REMARK                         _______ _______ _______ _____ _____    ______ ____
ROOT
ATOM      1  S   UNL     1       3.507   0.539  -1.387  0.00  0.00    +0.061 S 
ATOM      2  O   UNL     1       4.051   0.858  -2.661  0.00  0.00    -0.153 OA
ATOM      3  O   UNL     1       4.184   0.836  -0.174  0.00  0.00    -0.153 OA
ENDROOT
BRANCH   1   4
ATOM      4  C   UNL     1       3.212  -1.198  -1.387  0.00  0.00    +0.106 A 
ATOM      5  C   UNL     1       3.166  -1.890  -0.190  0.00  0.00    +0.030 A 
ATOM      6  C   UNL     1       2.930  -3.250  -0.190  0.00  0.00    +0.025 A 
ATOM      7  C   UNL     1       2.752  -3.925  -1.393  0.00  0.00    +0.030 A 
ATOM      8  C   UNL     1       2.801  -3.232  -2.592  0.00  0.00    -0.025 A 
ATOM      9  C   UNL     1       3.032  -1.867  -2.583  0.00  0.00    +0.034 A 
ATOM     10  C   UNL     1       2.606  -3.929  -3.912  0.00  0.00    +0.038 C 
ATOM     11  C   UNL     1       2.870  -5.428  -3.771  0.00  0.00    +0.023 C 
ATOM     12  C   UNL     1       2.047  -5.967  -2.593  0.00  0.00    +0.102 C 
ATOM     13  N   UNL     1       2.526  -5.306  -1.371  0.00  0.00    -0.344 N 
ATOM     14  H   UNL     1       2.701  -5.896  -0.459  0.00  0.00    +0.146 HD
ENDBRANCH   1   4
BRANCH   1  18
ATOM     15  C   UNL     1      -0.731   1.580   1.265  0.00  0.00    +0.039 C 
ATOM     16  C   UNL     1      -0.013   1.086   0.008  0.00  0.00    +0.131 C 
ATOM     17  C   UNL     1       1.425   1.617  -0.003  0.00  0.00    +0.140 C 
ATOM     18  N   UNL     1       2.032   1.287  -1.302  0.00  0.00    -0.172 NA
ATOM     19  C   UNL     1       1.290   1.640  -2.522  0.00  0.00    +0.140 C 
ATOM     20  C   UNL     1      -0.141   1.107  -2.389  0.00  0.00    +0.131 C 
ATOM     21  O   UNL     1      -0.699   1.560  -1.153  0.00  0.00    -0.371 OA
ATOM     22  C   UNL     1      -0.989   1.623  -3.553  0.00  0.00    +0.039 C 
ENDBRANCH   1  18
TORSDOF 2
