REMARK  Name = ZINC12496339
REMARK  10 active torsions:
REMARK  status: ('A' for Active; 'I' for Inactive)
REMARK    1  A    between atoms: C_1  and  C_2
REMARK    2  A    between atoms: N_5  and  S_11
REMARK    3  A    between atoms: C_7  and  C_10
REMARK    4  A    between atoms: S_11  and  C_14
REMARK    5  A    between atoms: C_18  and  C_20
REMARK    6  A    between atoms: N_22  and  C_23
REMARK    7  A    between atoms: C_23  and  C_24
REMARK    8  A    between atoms: C_24  and  O_25
REMARK    9  A    between atoms: O_25  and  C_26
REMARK   10  A    between atoms: C_26  and  C_28
REMARK                            x       y       z     vdW  Elec       q    Type
REMARK                         _______ _______ _______ _____ _____    ______ ____
ROOT
ATOM      1  C   UNL     1      -8.091   3.342   3.204  0.00  0.00    +0.244 C 
ATOM      2  O   UNL     1      -8.554   2.700   4.127  0.00  0.00    -0.270 OA
ATOM      3  N   UNL     1      -7.430   2.715   2.211  0.00  0.00    -0.308 N 
ATOM      4  H   UNL     1      -7.061   3.228   1.475  0.00  0.00    +0.149 HD
ENDROOT
BRANCH   1   9
ATOM      5  C   UNL     1      -9.086   6.835   4.162  0.00  0.00    +0.106 A 
ATOM      6  C   UNL     1      -8.558   7.563   3.111  0.00  0.00    +0.028 A 
ATOM      7  C   UNL     1      -7.879   6.923   2.090  0.00  0.00    +0.003 A 
ATOM      8  C   UNL     1      -7.719   5.552   2.116  0.00  0.00    +0.013 A 
ATOM      9  C   UNL     1      -8.254   4.811   3.171  0.00  0.00    +0.039 A 
ATOM     10  C   UNL     1      -8.938   5.464   4.198  0.00  0.00    +0.041 A 
BRANCH   5  11
ATOM     11  S   UNL     1      -9.950   7.661   5.457  0.00  0.00    +0.061 S 
ATOM     12  O   UNL     1     -10.424   8.885   4.913  0.00  0.00    -0.153 OA
ATOM     13  O   UNL     1     -10.818   6.700   6.043  0.00  0.00    -0.153 OA
BRANCH  11  17
ATOM     14  C   UNL     1      -6.119   8.345   5.458  0.00  0.00    +0.039 C 
ATOM     15  C   UNL     1      -6.620   9.074   6.706  0.00  0.00    +0.131 C 
ATOM     16  C   UNL     1      -8.123   9.346   6.571  0.00  0.00    +0.140 C 
ATOM     17  N   UNL     1      -8.833   8.058   6.614  0.00  0.00    -0.172 NA
ATOM     18  C   UNL     1      -8.527   7.135   7.719  0.00  0.00    +0.140 C 
ATOM     19  C   UNL     1      -7.001   6.969   7.795  0.00  0.00    +0.131 C 
ATOM     20  O   UNL     1      -6.391   8.261   7.859  0.00  0.00    -0.371 OA
ATOM     21  C   UNL     1      -6.637   6.170   9.048  0.00  0.00    +0.039 C 
ENDBRANCH  11  17
ENDBRANCH   5  11
ENDBRANCH   1   9
BRANCH   3  22
ATOM     22  C   UNL     1      -7.269   1.260   2.244  0.00  0.00    +0.145 C 
BRANCH  22  23
ATOM     23  C   UNL     1      -6.487   0.805   1.009  0.00  0.00    +0.251 C 
BRANCH  23  24
ATOM     24  O   UNL     1      -5.139   1.342   1.065  0.00  0.00    -0.463 OA
BRANCH  24  25
ATOM     25  C   UNL     1      -4.318   1.035   0.049  0.00  0.00    +0.313 C 
ATOM     26  O   UNL     1      -4.712   0.340  -0.857  0.00  0.00    -0.250 OA
BRANCH  25  27
ATOM     27  C   UNL     1      -2.904   1.556   0.038  0.00  0.00    +0.069 C 
ATOM     28  C   UNL     1      -2.188   1.063  -1.221  0.00  0.00    +0.021 C 
ATOM     29  C   UNL     1      -0.753   1.593  -1.232  0.00  0.00    -0.009 C 
ATOM     30  C   UNL     1      -0.013   1.086   0.008  0.00  0.00    +0.007 C 
ATOM     31  C   UNL     1      -0.729   1.579   1.267  0.00  0.00    -0.009 C 
ATOM     32  C   UNL     1      -2.164   1.050   1.278  0.00  0.00    +0.021 C 
ATOM     33  C   UNL     1      -0.750   3.109   1.275  0.00  0.00    +0.007 C 
ATOM     34  C   UNL     1      -1.490   3.616   0.036  0.00  0.00    -0.009 C 
ATOM     35  C   UNL     1      -0.773   3.123  -1.223  0.00  0.00    +0.007 C 
ATOM     36  C   UNL     1      -2.925   3.086   0.047  0.00  0.00    +0.021 C 
ENDBRANCH  25  27
ENDBRANCH  24  25
ENDBRANCH  23  24
ENDBRANCH  22  23
ENDBRANCH   3  22
TORSDOF 8
