REMARK  Name = ZINC17680585
REMARK  4 active torsions:
REMARK  status: ('A' for Active; 'I' for Inactive)
REMARK    1  A    between atoms: N_9  and  C_12
REMARK    2  A    between atoms: N_16  and  N_17
REMARK    3  A    between atoms: N_17  and  C_18
REMARK    4  A    between atoms: C_18  and  N_20
REMARK                            x       y       z     vdW  Elec       q    Type
REMARK                         _______ _______ _______ _____ _____    ______ ____
ROOT
ATOM      1  C   UNL     1       0.291  -0.471  -1.430  0.00  0.00    +0.122 C 
ATOM      2  C   UNL     1       1.706  -0.031  -1.829  0.00  0.00    +0.083 C 
ATOM      3  C   UNL     1       1.883   1.417  -1.410  0.00  0.00    +0.094 C 
ATOM      4  N   UNL     1       2.416   2.284  -2.187  0.00  0.00    -0.185 NA
ATOM      5  C   UNL     1       1.391   1.782  -0.002  0.00  0.00    +0.298 C 
ATOM      6  O   UNL     1       2.012   0.858   0.916  0.00  0.00    -0.343 OA
ATOM      7  C   UNL     1       1.210  -0.337   0.904  0.00  0.00    +0.197 C 
ATOM      8  C   UNL     1       0.002  -0.004   0.002  0.00  0.00    +0.169 C 
ATOM      9  O   UNL     1      -0.018   1.444   0.010  0.00  0.00    -0.339 OA
ENDROOT
BRANCH   1  18
ATOM     10  C   UNL     1      -3.944   1.361  -5.396  0.00  0.00    +0.001 A 
ATOM     11  C   UNL     1      -3.520   2.623  -5.024  0.00  0.00    +0.001 A 
ATOM     12  C   UNL     1      -2.509   2.778  -4.088  0.00  0.00    +0.014 A 
ATOM     13  C   UNL     1      -1.921   1.659  -3.521  0.00  0.00    +0.049 A 
ATOM     14  C   UNL     1      -2.353   0.371  -3.900  0.00  0.00    +0.049 A 
ATOM     15  C   UNL     1      -3.364   0.232  -4.837  0.00  0.00    +0.014 A 
ATOM     16  C   UNL     1      -1.531  -0.577  -3.119  0.00  0.00    +0.254 C 
ATOM     17  O   UNL     1      -1.607  -1.788  -3.169  0.00  0.00    -0.270 OA
ATOM     18  N   UNL     1      -0.684   0.126  -2.346  0.00  0.00    -0.228 N 
ATOM     19  C   UNL     1      -0.854   1.449  -2.519  0.00  0.00    +0.254 C 
ATOM     20  O   UNL     1      -0.234   2.324  -1.950  0.00  0.00    -0.270 OA
ENDBRANCH   1  18
BRANCH   4  21
ATOM     21  N   UNL     1       2.561   3.611  -1.760  0.00  0.00    -0.218 N 
ATOM     22  H   UNL     1       2.257   3.872  -0.877  0.00  0.00    +0.176 HD
BRANCH  21  23
ATOM     23  C   UNL     1       3.123   4.524  -2.578  0.00  0.00    +0.147 C 
ATOM     24  S   UNL     1       3.299   6.145  -2.057  0.00  0.00    -0.017 S 
BRANCH  23  25
ATOM     25  N   UNL     1       3.545   4.160  -3.805  0.00  0.00    -0.339 N 
ATOM     26  H   UNL     1       3.445   3.241  -4.100  0.00  0.00    +0.144 HD
ATOM     27  H   UNL     1       3.949   4.817  -4.393  0.00  0.00    +0.144 HD
ENDBRANCH  23  25
ENDBRANCH  21  23
ENDBRANCH   4  21
TORSDOF 4
