REMARK  Name = ZINC56230486
REMARK  9 active torsions:
REMARK  status: ('A' for Active; 'I' for Inactive)
REMARK    1  A    between atoms: C_3  and  C_6
REMARK    2  A    between atoms: C_8  and  C_11
REMARK    3  A    between atoms: C_11  and  C_12
REMARK    4  A    between atoms: C_12  and  C_13
REMARK    5  A    between atoms: C_13  and  O_15
REMARK    6  A    between atoms: O_15  and  C_16
REMARK    7  A    between atoms: C_16  and  C_17
REMARK    8  A    between atoms: C_17  and  C_18
REMARK    9  A    between atoms: C_23  and  C_24
REMARK                            x       y       z     vdW  Elec       q    Type
REMARK                         _______ _______ _______ _____ _____    ______ ____
ROOT
ATOM      1  C   UNL     1       9.225   0.682  -1.539  0.00  0.00    +0.308 C 
ATOM      2  O   UNL     1       9.808   0.476  -0.501  0.00  0.00    -0.251 OA
ENDROOT
BRANCH   1   3
ATOM      3  C   UNL     1       7.799   1.172  -1.519  0.00  0.00    +0.130 C 
BRANCH   3   4
ATOM      4  C   UNL     1       7.333   1.324  -0.070  0.00  0.00    +0.110 C 
BRANCH   4   7
ATOM      5  C   UNL     1       3.738   1.826  -0.024  0.00  0.00    +0.209 A 
ATOM      6  N   UNL     1       4.846   1.060  -0.044  0.00  0.00    -0.191 NA
ATOM      7  C   UNL     1       5.908   1.813  -0.049  0.00  0.00    +0.228 A 
ATOM      8  O   UNL     1       5.522   3.095  -0.032  0.00  0.00    -0.338 OA
ATOM      9  N   UNL     1       4.102   3.087  -0.022  0.00  0.00    -0.056 NA
BRANCH   5  12
ATOM     10  C   UNL     1      -0.016   1.355   0.009  0.00  0.00    +0.008 A 
ATOM     11  C   UNL     1       1.176   2.042   0.002  0.00  0.00    +0.019 A 
ATOM     12  C   UNL     1       2.346   1.330  -0.013  0.00  0.00    +0.060 A 
ATOM     13  S   UNL     1       1.753  -0.354  -0.017  0.00  0.00    -0.093 S 
ATOM     14  C   UNL     1       0.002  -0.004   0.002  0.00  0.00    +0.046 A 
ENDBRANCH   5  12
ENDBRANCH   4   7
ENDBRANCH   3   4
ENDBRANCH   1   3
BRANCH   1  15
ATOM     15  O   UNL     1       9.846   0.475  -2.711  0.00  0.00    -0.464 OA
BRANCH  15  16
ATOM     16  C   UNL     1      11.197   0.011  -2.655  0.00  0.00    +0.237 C 
BRANCH  16  17
ATOM     17  C   UNL     1      11.734  -0.165  -4.077  0.00  0.00    +0.080 C 
BRANCH  17  18
ATOM     18  C   UNL     1      13.158  -0.654  -4.019  0.00  0.00    +0.005 A 
ATOM     19  C   UNL     1      14.268   0.118  -4.072  0.00  0.00    +0.109 A 
ATOM     20  N   UNL     1      15.340  -0.697  -3.990  0.00  0.00    -0.284 N 
ATOM     21  H   UNL     1      16.270  -0.420  -4.002  0.00  0.00    +0.188 HD
ATOM     22  N   UNL     1      14.874  -2.014  -3.883  0.00  0.00    -0.170 NA
ATOM     23  C   UNL     1      13.566  -1.987  -3.894  0.00  0.00    +0.168 A 
BRANCH  23  24
ATOM     24  C   UNL     1      12.656  -3.184  -3.795  0.00  0.00    +0.436 C 
ATOM     25  F   UNL     1      12.388  -3.673  -5.078  0.00  0.00    -0.164 F 
ATOM     26  F   UNL     1      13.279  -4.181  -3.037  0.00  0.00    -0.164 F 
ATOM     27  F   UNL     1      11.458  -2.809  -3.179  0.00  0.00    -0.164 F 
ENDBRANCH  23  24
ENDBRANCH  17  18
ENDBRANCH  16  17
ENDBRANCH  15  16
ENDBRANCH   1  15
TORSDOF 9
