REMARK  Name = ZINC44166630
REMARK  14 active torsions:
REMARK  status: ('A' for Active; 'I' for Inactive)
REMARK    1  A    between atoms: C_1  and  C_2
REMARK    2  A    between atoms: C_2  and  C_4
REMARK    3  A    between atoms: C_2  and  N_14
REMARK    4  A    between atoms: C_15  and  C_17
REMARK    5  A    between atoms: C_22  and  C_25
REMARK    6  A    between atoms: C_27  and  C_36
REMARK    7  A    between atoms: C_28  and  O_35
REMARK    8  A    between atoms: C_29  and  C_31
REMARK    9  A    between atoms: C_31  and  C_32
REMARK   10  A    between atoms: C_31  and  C_33
REMARK   11  A    between atoms: C_31  and  C_34
REMARK   12  A    between atoms: C_36  and  C_37
REMARK   13  A    between atoms: C_36  and  C_38
REMARK   14  A    between atoms: C_36  and  C_39
REMARK                            x       y       z     vdW  Elec       q    Type
REMARK                         _______ _______ _______ _____ _____    ______ ____
ROOT
ATOM      1  C   UNL     1      -3.311  -1.556   0.979  0.00  0.00    +0.027 C 
ATOM      2  C   UNL     1      -4.173  -0.909  -0.112  0.00  0.00    +0.062 C 
ATOM      3  S   UNL     1      -4.398   0.848   0.306  0.00  0.00    -0.163 S 
ATOM      4  C   UNL     1      -4.935   0.778   2.044  0.00  0.00    +0.058 C 
ATOM      5  C   UNL     1      -3.960  -0.121   2.813  0.00  0.00    -0.030 C 
ATOM      6  N   UNL     1      -4.003  -1.478   2.268  0.00  0.00    +0.392 N 
ATOM      7  H   UNL     1      -4.965  -1.756   2.144  0.00  0.00    -0.084 HD
ATOM      8  H   UNL     1      -3.559  -2.109   2.919  0.00  0.00    -0.084 HD
ENDROOT
BRANCH   5   9
ATOM      9  C   UNL     1      -4.350  -0.155   4.268  0.00  0.00    -0.060 A 
ATOM     10  C   UNL     1      -5.379  -0.977   4.688  0.00  0.00    +0.009 A 
ATOM     11  C   UNL     1      -5.739  -1.009   6.021  0.00  0.00    -0.000 A 
ATOM     12  C   UNL     1      -5.067  -0.215   6.939  0.00  0.00    +0.124 A 
ATOM     13  C   UNL     1      -4.034   0.609   6.515  0.00  0.00    -0.000 A 
ATOM     14  C   UNL     1      -3.675   0.633   5.182  0.00  0.00    +0.009 A 
BRANCH  13  15
ATOM     15  C   UNL     1      -3.301   1.472   7.510  0.00  0.00    -0.009 C 
ATOM     16  C   UNL     1      -2.219   2.276   6.787  0.00  0.00    +0.015 C 
ATOM     17  C   UNL     1      -4.289   2.432   8.177  0.00  0.00    +0.015 C 
ATOM     18  C   UNL     1      -2.653   0.586   8.575  0.00  0.00    +0.015 C 
ENDBRANCH  13  15
BRANCH  11  19
ATOM     19  C   UNL     1      -6.862  -1.904   6.478  0.00  0.00    -0.009 C 
ATOM     20  C   UNL     1      -7.428  -2.665   5.278  0.00  0.00    +0.015 C 
ATOM     21  C   UNL     1      -6.330  -2.902   7.509  0.00  0.00    +0.015 C 
ATOM     22  C   UNL     1      -7.966  -1.056   7.112  0.00  0.00    +0.015 C 
ENDBRANCH  11  19
BRANCH  12  23
ATOM     23  O   UNL     1      -5.419  -0.244   8.251  0.00  0.00    -0.506 OA
ATOM     24  H   UNL     1      -4.943  -0.906   8.772  0.00  0.00    +0.292 HD
ENDBRANCH  12  23
ENDBRANCH   5   9
BRANCH   1  26
ATOM     25  N   UNL     1      -1.402  -0.360  -0.043  0.00  0.00    -0.310 N 
ATOM     26  C   UNL     1      -1.994  -0.831   1.073  0.00  0.00    +0.200 C 
ATOM     27  O   UNL     1      -1.466  -0.670   2.153  0.00  0.00    -0.278 OA
ATOM     28  H   UNL     1      -1.825  -0.489  -0.906  0.00  0.00    +0.149 HD
BRANCH  25  30
ATOM     29  C   UNL     1      -0.371   1.809   0.416  0.00  0.00    +0.033 C 
ATOM     30  C   UNL     1      -0.121   0.345   0.049  0.00  0.00    +0.101 C 
BRANCH  30  31
ATOM     31  C   UNL     1       0.587   0.274  -1.279  0.00  0.00    -0.020 A 
ATOM     32  C   UNL     1      -0.128   0.151  -2.431  0.00  0.00    +0.006 A 
ATOM     33  C   UNL     1       0.509   0.084  -3.668  0.00  0.00    +0.001 A 
ATOM     34  C   UNL     1       1.866   0.138  -3.760  0.00  0.00    +0.008 A 
ATOM     35  C   UNL     1       2.639   0.264  -2.594  0.00  0.00    -0.018 A 
ATOM     36  C   UNL     1       1.990   0.339  -1.336  0.00  0.00    -0.013 A 
ATOM     37  C   UNL     1       2.762   0.471  -0.169  0.00  0.00    +0.009 A 
ATOM     38  C   UNL     1       4.118   0.531  -0.262  0.00  0.00    +0.001 A 
ATOM     39  C   UNL     1       4.756   0.464  -1.500  0.00  0.00    +0.001 A 
ATOM     40  C   UNL     1       4.042   0.323  -2.650  0.00  0.00    +0.008 A 
ENDBRANCH  30  31
ENDBRANCH  25  30
ENDBRANCH   1  26
TORSDOF 7
