REMARK  Name = ZINC35971666
REMARK  8 active torsions:
REMARK  status: ('A' for Active; 'I' for Inactive)
REMARK    1  A    between atoms: C_2  and  C_3
REMARK    2  A    between atoms: C_3  and  N_4
REMARK    3  A    between atoms: C_7  and  C_12
REMARK    4  A    between atoms: C_17  and  C_18
REMARK    5  A    between atoms: N_24  and  C_26
REMARK    6  A    between atoms: C_26  and  C_28
REMARK    7  A    between atoms: C_26  and  C_34
REMARK    8  A    between atoms: N_36  and  C_37
REMARK                            x       y       z     vdW  Elec       q    Type
REMARK                         _______ _______ _______ _____ _____    ______ ____
ROOT
ATOM      1  N   UNL     1      -1.070  -1.811  -2.603  0.00  0.00    -0.253 N 
ATOM      2  C   UNL     1      -1.744  -1.809  -3.791  0.00  0.00    +0.043 C 
ATOM      3  C   UNL     1      -1.800  -2.912  -4.564  0.00  0.00    +0.058 C 
ATOM      4  C   UNL     1      -1.088  -4.155  -4.071  0.00  0.00    +0.142 C 
ATOM      5  N   UNL     1      -0.389  -4.055  -2.779  0.00  0.00    -0.288 N 
ATOM      6  C   UNL     1      -0.419  -2.878  -2.122  0.00  0.00    +0.307 C 
ATOM      7  O   UNL     1       0.158  -2.784  -1.056  0.00  0.00    -0.252 OA
ATOM      8  C   UNL     1      -2.551  -2.656  -5.730  0.00  0.00    +0.247 C 
ATOM      9  O   UNL     1      -2.764  -3.475  -6.605  0.00  0.00    -0.270 OA
ATOM     10  N   UNL     1      -3.003  -1.389  -5.748  0.00  0.00    -0.277 N 
ATOM     11  C   UNL     1      -2.529  -0.740  -4.517  0.00  0.00    +0.160 C 
ATOM     12  H   UNL     1       0.085  -4.816  -2.410  0.00  0.00    +0.151 HD
ENDROOT
BRANCH   4  13
ATOM     13  C   UNL     1      -0.077  -4.557  -5.115  0.00  0.00    -0.011 A 
ATOM     14  C   UNL     1       1.060  -3.793  -5.306  0.00  0.00    +0.006 A 
ATOM     15  C   UNL     1       1.986  -4.162  -6.263  0.00  0.00    +0.000 A 
ATOM     16  C   UNL     1       1.776  -5.293  -7.029  0.00  0.00    +0.001 A 
ATOM     17  C   UNL     1       0.640  -6.057  -6.837  0.00  0.00    +0.013 A 
ATOM     18  C   UNL     1      -0.285  -5.691  -5.877  0.00  0.00    +0.060 A 
BRANCH  18  19
ATOM     19  C   UNL     1      -1.521  -6.526  -5.664  0.00  0.00    +0.418 C 
ATOM     20  F   UNL     1      -1.564  -7.547  -6.620  0.00  0.00    -0.166 F 
ATOM     21  F   UNL     1      -1.490  -7.087  -4.383  0.00  0.00    -0.166 F 
ATOM     22  F   UNL     1      -2.656  -5.719  -5.793  0.00  0.00    -0.166 F 
ENDBRANCH  18  19
ENDBRANCH   4  13
BRANCH   1  23
ATOM     23  C   UNL     1      -1.052  -0.576  -1.815  0.00  0.00    +0.141 C 
BRANCH  23  25
ATOM     24  C   UNL     1      -0.042   1.500  -2.611  0.00  0.00    +0.005 C 
ATOM     25  C   UNL     1       0.134   0.262  -2.221  0.00  0.00    -0.015 C 
ENDBRANCH  23  25
ENDBRANCH   1  23
BRANCH  10  26
ATOM     26  C   UNL     1      -3.814  -0.771  -6.800  0.00  0.00    +0.193 C 
BRANCH  26  27
ATOM     27  C   UNL     1      -5.126  -1.503  -6.917  0.00  0.00    -0.018 A 
ATOM     28  C   UNL     1      -5.839  -1.831  -5.779  0.00  0.00    +0.006 A 
ATOM     29  C   UNL     1      -7.042  -2.503  -5.887  0.00  0.00    +0.000 A 
ATOM     30  C   UNL     1      -7.533  -2.847  -7.133  0.00  0.00    +0.000 A 
ATOM     31  C   UNL     1      -6.821  -2.518  -8.271  0.00  0.00    +0.000 A 
ATOM     32  C   UNL     1      -5.619  -1.842  -8.163  0.00  0.00    +0.006 A 
ENDBRANCH  26  27
BRANCH  26  33
ATOM     33  C   UNL     1      -4.074   0.672  -6.451  0.00  0.00    +0.238 C 
ATOM     34  O   UNL     1      -3.626   1.138  -5.425  0.00  0.00    -0.273 OA
ATOM     35  N   UNL     1      -4.805   1.444  -7.279  0.00  0.00    -0.311 N 
ATOM     36  H   UNL     1      -5.164   1.071  -8.099  0.00  0.00    +0.149 HD
BRANCH  35  37
ATOM     37  C   UNL     1      -5.058   2.847  -6.940  0.00  0.00    +0.073 C 
ATOM     38  C   UNL     1      -6.476   3.380  -7.150  0.00  0.00    +0.024 C 
ATOM     39  C   UNL     1      -5.350   3.811  -8.092  0.00  0.00    +0.024 C 
ENDBRANCH  35  37
ENDBRANCH  26  33
ENDBRANCH  10  26
TORSDOF 8
