REMARK  Name = ZINC14463620
REMARK  6 active torsions:
REMARK  status: ('A' for Active; 'I' for Inactive)
REMARK    1  A    between atoms: C_1  and  O_2
REMARK    2  A    between atoms: O_2  and  C_3
REMARK    3  A    between atoms: C_6  and  N_9
REMARK    4  A    between atoms: N_9  and  S_10
REMARK    5  A    between atoms: S_10  and  C_13
REMARK    6  A    between atoms: C_26  and  C_29
REMARK                            x       y       z     vdW  Elec       q    Type
REMARK                         _______ _______ _______ _____ _____    ______ ____
ROOT
ATOM      1  C   UNL     1      -3.102  -1.315  -0.146  0.00  0.00    +0.109 A 
ATOM      2  C   UNL     1      -3.960  -2.004  -0.984  0.00  0.00    +0.030 A 
ATOM      3  C   UNL     1      -5.177  -1.448  -1.323  0.00  0.00    +0.025 A 
ATOM      4  C   UNL     1      -5.535  -0.201  -0.824  0.00  0.00    +0.031 A 
ATOM      5  C   UNL     1      -4.677   0.493   0.014  0.00  0.00    -0.018 A 
ATOM      6  C   UNL     1      -3.459  -0.080   0.353  0.00  0.00    +0.034 A 
ATOM      7  C   UNL     1      -5.019   1.839   0.573  0.00  0.00    +0.049 C 
ATOM      8  C   UNL     1      -5.398   1.751   2.031  0.00  0.00    -0.023 C 
ATOM      9  C   UNL     1      -6.335   2.605   2.318  0.00  0.00    -0.030 C 
ATOM     10  C   UNL     1      -6.739   3.379   1.079  0.00  0.00    +0.033 C 
ATOM     11  C   UNL     1      -6.261   2.466  -0.088  0.00  0.00    +0.029 C 
ATOM     12  C   UNL     1      -7.329   1.392  -0.318  0.00  0.00    +0.105 C 
ATOM     13  N   UNL     1      -6.774   0.347  -1.174  0.00  0.00    -0.336 N 
ATOM     14  H   UNL     1      -7.255   0.031  -1.955  0.00  0.00    +0.147 HD
ENDROOT
BRANCH  12  15
ATOM     15  C   UNL     1      -7.741   0.800   1.005  0.00  0.00    -0.019 A 
ATOM     16  C   UNL     1      -7.048  -0.247   1.531  0.00  0.00    +0.006 A 
ATOM     17  C   UNL     1      -7.410  -0.804   2.756  0.00  0.00    +0.001 A 
ATOM     18  C   UNL     1      -8.475  -0.325   3.457  0.00  0.00    +0.008 A 
ATOM     19  C   UNL     1      -9.218   0.750   2.942  0.00  0.00    -0.018 A 
ATOM     20  C   UNL     1      -8.846   1.321   1.699  0.00  0.00    -0.013 A 
ATOM     21  C   UNL     1      -9.589   2.397   1.185  0.00  0.00    +0.009 A 
ATOM     22  C   UNL     1     -10.654   2.875   1.885  0.00  0.00    +0.001 A 
ATOM     23  C   UNL     1     -11.020   2.314   3.107  0.00  0.00    +0.001 A 
ATOM     24  C   UNL     1     -10.324   1.271   3.636  0.00  0.00    +0.008 A 
ENDBRANCH  12  15
BRANCH   1  25
ATOM     25  S   UNL     1      -1.548  -2.022   0.290  0.00  0.00    +0.072 S 
ATOM     26  O   UNL     1      -1.644  -3.413   0.020  0.00  0.00    -0.150 OA
ATOM     27  O   UNL     1      -1.219  -1.516   1.577  0.00  0.00    -0.150 OA
BRANCH  25  28
ATOM     28  N   UNL     1      -0.421  -1.413  -0.760  0.00  0.00    -0.216 N 
ATOM     29  H   UNL     1       0.319  -0.883  -0.424  0.00  0.00    +0.174 HD
BRANCH  28  33
ATOM     30  C   UNL     1      -0.764  -2.157  -4.847  0.00  0.00    +0.120 A 
ATOM     31  C   UNL     1      -0.488  -0.874  -4.397  0.00  0.00    +0.047 A 
ATOM     32  C   UNL     1      -0.374  -0.627  -3.043  0.00  0.00    +0.028 A 
ATOM     33  C   UNL     1      -0.536  -1.663  -2.132  0.00  0.00    +0.048 A 
ATOM     34  C   UNL     1      -0.807  -2.947  -2.584  0.00  0.00    +0.028 A 
ATOM     35  C   UNL     1      -0.925  -3.192  -3.938  0.00  0.00    +0.047 A 
BRANCH  30  37
ATOM     36  C   UNL     1      -1.161  -3.744  -6.574  0.00  0.00    +0.277 C 
ATOM     37  O   UNL     1      -0.875  -2.400  -6.181  0.00  0.00    -0.495 OA
ENDBRANCH  30  37
ENDBRANCH  28  33
ENDBRANCH  25  28
ENDBRANCH   1  25
TORSDOF 5
