REMARK  Name = ZINC14733225
REMARK  12 active torsions:
REMARK  status: ('A' for Active; 'I' for Inactive)
REMARK    1  A    between atoms: C_1  and  C_2
REMARK    2  A    between atoms: C_2  and  C_3
REMARK    3  A    between atoms: C_2  and  C_4
REMARK    4  A    between atoms: C_4  and  C_5
REMARK    5  A    between atoms: C_5  and  N_6
REMARK    6  A    between atoms: N_9  and  C_28
REMARK    7  A    between atoms: C_17  and  C_18
REMARK    8  A    between atoms: C_17  and  N_68
REMARK    9  A    between atoms: C_28  and  C_29
REMARK   10  A    between atoms: C_29  and  N_70
REMARK   11  A    between atoms: C_30  and  N_70
REMARK   12  A    between atoms: C_31  and  N_70
REMARK                            x       y       z     vdW  Elec       q    Type
REMARK                         _______ _______ _______ _____ _____    ______ ____
ROOT
ATOM      1  N   UNL     1       1.096   1.978   0.004  0.00  0.00    -0.271 N 
ATOM      2  C   UNL     1      -0.015   1.217  -0.019  0.00  0.00    +0.312 C 
ATOM      3  O   UNL     1      -0.001   0.002  -0.058  0.00  0.00    -0.252 OA
ATOM      4  N   UNL     1      -1.136   1.949   0.000  0.00  0.00    -0.226 N 
ATOM      5  C   UNL     1      -0.866   3.270   0.047  0.00  0.00    +0.247 C 
ATOM      6  O   UNL     1      -1.665   4.182   0.077  0.00  0.00    -0.273 OA
ATOM      7  C   UNL     1       0.641   3.373   0.049  0.00  0.00    +0.112 C 
ATOM      8  C   UNL     1       1.125   4.135  -1.181  0.00  0.00    +0.017 C 
ATOM      9  C   UNL     1       2.652   4.248  -1.139  0.00  0.00    -0.076 C 
ATOM     10  C   UNL     1       2.655   4.170   1.285  0.00  0.00    -0.076 C 
ATOM     11  C   UNL     1       1.128   4.055   1.324  0.00  0.00    +0.017 C 
ATOM     12  N   UNL     1       3.044   4.960   0.096  0.00  0.00    +0.383 N 
ATOM     13  H   UNL     1       2.562   5.865   0.126  0.00  0.00    -0.081 HD
ENDROOT
BRANCH   1  14
ATOM     14  C   UNL     1       2.483   1.508  -0.014  0.00  0.00    +0.110 C 
BRANCH  14  15
ATOM     15  C   UNL     1       2.784   0.760   1.287  0.00  0.00    +0.022 C 
BRANCH  15  17
ATOM     16  C   UNL     1       4.594  -0.256   2.678  0.00  0.00    +0.007 C 
ATOM     17  C   UNL     1       4.265   0.380   1.325  0.00  0.00    -0.016 C 
ATOM     18  C   UNL     1       4.565  -0.619   0.206  0.00  0.00    +0.007 C 
ENDBRANCH  15  17
ENDBRANCH  14  15
ENDBRANCH   1  14
BRANCH  12  19
ATOM     19  C   UNL     1       4.503   5.193   0.102  0.00  0.00    -0.025 C 
BRANCH  19  20
ATOM     20  C   UNL     1       4.841   6.175  -0.990  0.00  0.00    +0.000 A 
ATOM     21  C   UNL     1       5.265   5.844  -2.220  0.00  0.00    +0.029 A 
ATOM     22  C   UNL     1       5.471   7.096  -2.953  0.00  0.00    -0.000 A 
ATOM     23  C   UNL     1       5.893   7.404  -4.248  0.00  0.00    +0.010 A 
ATOM     24  C   UNL     1       5.988   8.710  -4.637  0.00  0.00    +0.001 A 
ATOM     25  C   UNL     1       5.669   9.734  -3.756  0.00  0.00    +0.002 A 
ATOM     26  C   UNL     1       5.251   9.452  -2.474  0.00  0.00    +0.026 A 
ATOM     27  C   UNL     1       5.146   8.130  -2.056  0.00  0.00    +0.047 A 
ATOM     28  N   UNL     1       4.768   7.536  -0.872  0.00  0.00    -0.360 N 
ATOM     29  H   UNL     1       4.490   8.013  -0.074  0.00  0.00    +0.166 HD
ENDBRANCH  19  20
ENDBRANCH  12  19
BRANCH   4  30
ATOM     30  C   UNL     1      -2.488   1.385  -0.023  0.00  0.00    +0.099 C 
BRANCH  30  31
ATOM     31  C   UNL     1      -2.964   1.142   1.410  0.00  0.00    -0.060 C 
BRANCH  31  34
ATOM     32  C   UNL     1      -4.719   0.111   2.722  0.00  0.00    -0.097 C 
ATOM     33  C   UNL     1      -5.286   1.548   0.857  0.00  0.00    -0.097 C 
ATOM     34  N   UNL     1      -4.320   0.554   1.369  0.00  0.00    +0.377 N 
ATOM     35  H   UNL     1      -4.312  -0.258   0.741  0.00  0.00    -0.083 HD
ENDBRANCH  31  34
ENDBRANCH  30  31
ENDBRANCH   4  30
TORSDOF 8
