REMARK  Name = ZINC15947074
REMARK  10 active torsions:
REMARK  status: ('A' for Active; 'I' for Inactive)
REMARK    1  A    between atoms: C_1  and  C_2
REMARK    2  A    between atoms: C_2  and  O_3
REMARK    3  A    between atoms: O_3  and  C_4
REMARK    4  A    between atoms: C_4  and  C_6
REMARK    5  A    between atoms: C_9  and  C_12
REMARK    6  A    between atoms: C_15  and  C_17
REMARK    7  A    between atoms: N_26  and  C_29
REMARK    8  A    between atoms: C_29  and  C_30
REMARK    9  A    between atoms: C_29  and  C_31
REMARK   10  A    between atoms: C_32  and  O_34
REMARK                            x       y       z     vdW  Elec       q    Type
REMARK                         _______ _______ _______ _____ _____    ______ ____
ROOT
ATOM      1  C   UNL     1     -10.497  -3.781   0.047  0.00  0.00    +0.260 C 
ATOM      2  N   UNL     1     -10.643  -2.486   0.737  0.00  0.00    -0.311 N 
ATOM      3  C   UNL     1     -10.689  -2.529   2.112  0.00  0.00    +0.080 A 
ATOM      4  C   UNL     1     -11.111  -3.672   2.803  0.00  0.00    +0.067 A 
ATOM      5  C   UNL     1     -11.094  -3.571   4.248  0.00  0.00    -0.027 A 
ATOM      6  C   UNL     1     -10.678  -2.373   4.725  0.00  0.00    -0.021 A 
ATOM      7  S   UNL     1     -10.318  -1.413   3.282  0.00  0.00    -0.080 S 
ATOM      8  C   UNL     1     -10.566  -1.986   6.165  0.00  0.00    -0.035 C 
ATOM      9  N   UNL     1     -11.328  -2.960   6.968  0.00  0.00    +0.384 N 
ATOM     10  C   UNL     1     -10.932  -4.324   6.595  0.00  0.00    -0.073 C 
ATOM     11  C   UNL     1     -11.493  -4.678   5.214  0.00  0.00    +0.018 C 
ATOM     12  C   UNL     1     -11.530  -4.845   1.993  0.00  0.00    +0.220 C 
ATOM     13  N   UNL     1     -11.249  -4.833   0.720  0.00  0.00    -0.220 NA
ATOM     14  H   UNL     1     -10.701  -1.650   0.248  0.00  0.00    +0.149 HD
ATOM     15  H   UNL     1     -12.315  -2.838   6.797  0.00  0.00    -0.081 HD
ENDROOT
BRANCH   1  19
ATOM     16  C   UNL     1      -6.851  -3.993  -0.024  0.00  0.00    +0.135 A 
ATOM     17  C   UNL     1      -7.151  -5.321  -0.030  0.00  0.00    +0.050 A 
ATOM     18  C   UNL     1      -8.555  -5.419  -0.004  0.00  0.00    +0.049 A 
ATOM     19  C   UNL     1      -9.039  -4.161   0.016  0.00  0.00    +0.148 A 
ATOM     20  O   UNL     1      -8.007  -3.303   0.009  0.00  0.00    -0.456 OA
BRANCH  16  24
ATOM     21  C   UNL     1      -2.955  -2.323  -0.079  0.00  0.00    +0.059 A 
ATOM     22  C   UNL     1      -4.075  -1.485  -0.046  0.00  0.00    +0.015 A 
ATOM     23  C   UNL     1      -5.330  -2.023  -0.028  0.00  0.00    +0.012 A 
ATOM     24  C   UNL     1      -5.495  -3.412  -0.043  0.00  0.00    +0.017 A 
ATOM     25  C   UNL     1      -4.376  -4.250  -0.077  0.00  0.00    +0.012 A 
ATOM     26  C   UNL     1      -3.121  -3.712  -0.100  0.00  0.00    +0.015 A 
BRANCH  21  27
ATOM     27  C   UNL     1      -1.600  -1.742  -0.099  0.00  0.00    +0.339 C 
ATOM     28  O   UNL     1      -0.627  -2.470  -0.133  0.00  0.00    -0.245 OA
BRANCH  27  29
ATOM     29  O   UNL     1      -1.440  -0.404  -0.078  0.00  0.00    -0.461 OA
BRANCH  29  31
ATOM     30  C   UNL     1      -0.118   1.619  -0.071  0.00  0.00    +0.048 C 
ATOM     31  C   UNL     1      -0.099   0.090  -0.099  0.00  0.00    +0.229 C 
ENDBRANCH  29  31
ENDBRANCH  27  29
ENDBRANCH  21  27
ENDBRANCH  16  24
ENDBRANCH   1  19
BRANCH   9  32
ATOM     32  C   UNL     1     -11.049  -2.743   8.394  0.00  0.00    -0.074 C 
ATOM     33  C   UNL     1     -11.335  -1.284   8.754  0.00  0.00    -0.014 C 
ATOM     34  C   UNL     1     -11.942  -3.659   9.234  0.00  0.00    -0.014 C 
ENDBRANCH   9  32
BRANCH  12  35
ATOM     35  O   UNL     1     -12.181  -5.889   2.557  0.00  0.00    -0.492 OA
ATOM     36  H   UNL     1     -12.404  -6.595   1.936  0.00  0.00    +0.294 HD
ENDBRANCH  12  35
TORSDOF 7
