REMARK  Name = ZINC59040421
REMARK  4 active torsions:
REMARK  status: ('A' for Active; 'I' for Inactive)
REMARK    1  A    between atoms: C_6  and  C_7
REMARK    2  A    between atoms: C_7  and  S_8
REMARK    3  A    between atoms: S_8  and  C_9
REMARK    4  A    between atoms: N_15  and  N_16
REMARK                            x       y       z     vdW  Elec       q    Type
REMARK                         _______ _______ _______ _____ _____    ______ ____
ROOT
ATOM      1  C   UNL     1      -3.335  -1.972  -1.519  0.00  0.00    +0.191 A 
ATOM      2  N   UNL     1      -4.119  -2.434  -2.538  0.00  0.00    -0.303 N 
ATOM      3  H   UNL     1      -3.945  -2.326  -3.486  0.00  0.00    +0.171 HD
ATOM      4  C   UNL     1      -5.192  -3.077  -1.986  0.00  0.00    +0.235 A 
ATOM      5  N   UNL     1      -5.076  -3.014  -0.682  0.00  0.00    -0.111 NA
ATOM      6  N   UNL     1      -3.896  -2.320  -0.386  0.00  0.00    -0.121 NA
ATOM      7  N   UNL     1      -6.225  -3.688  -2.685  0.00  0.00    -0.205 N 
ATOM      8  H   UNL     1      -6.224  -3.682  -3.655  0.00  0.00    +0.177 HD
ENDROOT
BRANCH   7   9
ATOM      9  N   UNL     1      -7.268  -4.313  -1.989  0.00  0.00    -0.189 NA
ATOM     10  C   UNL     1      -8.220  -4.876  -2.634  0.00  0.00    +0.037 C 
ATOM     11  C   UNL     1      -8.359  -4.959  -4.140  0.00  0.00    +0.052 C 
ATOM     12  C   UNL     1      -9.668  -5.723  -4.427  0.00  0.00    +0.006 C 
ATOM     13  C   UNL     1     -10.501  -5.525  -3.136  0.00  0.00    +0.006 C 
ATOM     14  C   UNL     1      -9.415  -5.592  -2.030  0.00  0.00    +0.052 C 
ENDBRANCH   7   9
BRANCH   1  15
ATOM     15  S   UNL     1      -1.829  -1.075  -1.697  0.00  0.00    -0.081 S 
BRANCH  15  16
ATOM     16  C   UNL     1      -1.293  -0.775   0.010  0.00  0.00    +0.112 C 
BRANCH  16  22
ATOM     17  C   UNL     1      -0.017   1.378   0.010  0.00  0.00    +0.007 A 
ATOM     18  C   UNL     1       1.170   2.086   0.002  0.00  0.00    +0.038 A 
ATOM     19  C   UNL     1       2.379   1.410  -0.013  0.00  0.00    +0.123 A 
ATOM     20  C   UNL     1       2.396   0.026  -0.021  0.00  0.00    +0.038 A 
ATOM     21  C   UNL     1       1.208  -0.680  -0.013  0.00  0.00    +0.007 A 
ATOM     22  C   UNL     1       0.002  -0.004   0.002  0.00  0.00    -0.037 A 
ATOM     23  F   UNL     1       3.540   2.101  -0.021  0.00  0.00    -0.205 F 
ENDBRANCH  16  22
ENDBRANCH  15  16
ENDBRANCH   1  15
TORSDOF 4
