REMARK  Name = ZINC24880389
REMARK  6 active torsions:
REMARK  status: ('A' for Active; 'I' for Inactive)
REMARK    1  A    between atoms: C_6  and  C_7
REMARK    2  A    between atoms: C_7  and  N_8
REMARK    3  A    between atoms: N_11  and  C_14
REMARK    4  A    between atoms: C_14  and  C_15
REMARK    5  A    between atoms: C_15  and  C_16
REMARK    6  A    between atoms: N_18  and  N_19
REMARK                            x       y       z     vdW  Elec       q    Type
REMARK                         _______ _______ _______ _____ _____    ______ ____
ROOT
ATOM      1  C   UNL     1      -1.707   5.088  -2.239  0.00  0.00    +0.112 C 
ENDROOT
BRANCH   1   2
ATOM      2  C   UNL     1      -2.362   5.632  -3.483  0.00  0.00    +0.231 C 
ATOM      3  O   UNL     1      -2.596   4.894  -4.416  0.00  0.00    -0.274 OA
ATOM      4  N   UNL     1      -2.687   6.937  -3.557  0.00  0.00    -0.224 N 
ATOM      5  H   UNL     1      -2.475   7.606  -2.711  0.00  0.00    +0.174 HD
BRANCH   4   6
ATOM      6  N   UNL     1      -3.296   7.442  -4.714  0.00  0.00    -0.137 N 
ATOM      7  C   UNL     1      -4.604   7.760  -4.805  0.00  0.00    +0.263 C 
ATOM      8  O   UNL     1      -5.444   7.668  -3.936  0.00  0.00    -0.271 OA
ATOM      9  C   UNL     1      -4.801   8.257  -6.219  0.00  0.00    +0.114 C 
ATOM     10  C   UNL     1      -5.276   9.706  -6.211  0.00  0.00    +0.035 C 
ATOM     11  C   UNL     1      -5.443  10.199  -7.651  0.00  0.00    +0.003 C 
ATOM     12  C   UNL     1      -6.459   9.315  -8.377  0.00  0.00    +0.000 C 
ATOM     13  C   UNL     1      -5.957   7.870  -8.397  0.00  0.00    +0.003 C 
ATOM     14  C   UNL     1      -5.793   7.367  -6.961  0.00  0.00    +0.035 C 
ATOM     15  N   UNL     1      -3.466   8.155  -6.822  0.00  0.00    -0.284 N 
ATOM     16  C   UNL     1      -2.651   7.674  -5.864  0.00  0.00    +0.326 C 
ATOM     17  O   UNL     1      -1.464   7.471  -6.026  0.00  0.00    -0.251 OA
ATOM     18  H   UNL     1      -3.312   8.452  -7.870  0.00  0.00    +0.151 HD
ENDBRANCH   4   6
ENDBRANCH   1   2
BRANCH   1  19
ATOM     19  C   UNL     1      -1.445   3.591  -2.413  0.00  0.00    +0.093 C 
BRANCH  19  23
ATOM     20  N   UNL     1      -0.701   1.560   1.216  0.00  0.00    +0.384 N 
ATOM     21  C   UNL     1      -0.013   1.086   0.008  0.00  0.00    -0.063 C 
ATOM     22  C   UNL     1      -0.754   1.593  -1.231  0.00  0.00    +0.066 C 
ATOM     23  N   UNL     1      -0.806   3.062  -1.200  0.00  0.00    -0.305 NA
ATOM     24  C   UNL     1      -1.495   3.536   0.008  0.00  0.00    +0.066 C 
ATOM     25  C   UNL     1      -0.754   3.029   1.247  0.00  0.00    -0.063 C 
ATOM     26  H   UNL     1      -1.735   1.184   1.189  0.00  0.00    -0.081 HD
BRANCH  20  27
ATOM     27  C   UNL     1      -0.062   1.031   2.429  0.00  0.00    -0.043 C 
BRANCH  27  33
ATOM     28  C   UNL     1      -0.039   2.878   4.117  0.00  0.00    +0.003 A 
ATOM     29  C   UNL     1      -0.563   3.517   5.225  0.00  0.00    +0.020 A 
ATOM     30  C   UNL     1      -1.675   2.995   5.862  0.00  0.00    +0.041 A 
ATOM     31  C   UNL     1      -2.264   1.837   5.388  0.00  0.00    +0.020 A 
ATOM     32  C   UNL     1      -1.742   1.202   4.277  0.00  0.00    +0.003 A 
ATOM     33  C   UNL     1      -0.631   1.724   3.640  0.00  0.00    -0.064 A 
ATOM     34 CL   UNL     1      -2.330   3.794   7.258  0.00  0.00    -0.084 Cl
ENDBRANCH  27  33
ENDBRANCH  20  27
ENDBRANCH  19  23
ENDBRANCH   1  19
TORSDOF 6
