REMARK  Name = ZINC20727891
REMARK  10 active torsions:
REMARK  status: ('A' for Active; 'I' for Inactive)
REMARK    1  A    between atoms: C_1  and  C_2
REMARK    2  A    between atoms: C_2  and  C_3
REMARK    3  A    between atoms: N_9  and  C_10
REMARK    4  A    between atoms: C_10  and  C_11
REMARK    5  A    between atoms: C_11  and  C_12
REMARK    6  A    between atoms: C_12  and  N_13
REMARK    7  A    between atoms: C_14  and  C_16
REMARK    8  A    between atoms: C_16  and  N_17
REMARK    9  A    between atoms: C_26  and  C_27
REMARK   10  A    between atoms: C_30  and  C_33
REMARK                            x       y       z     vdW  Elec       q    Type
REMARK                         _______ _______ _______ _____ _____    ______ ____
ROOT
ATOM      1  N   UNL     1      -3.515   8.443   4.879  0.00  0.00    -0.257 N 
ATOM      2  C   UNL     1      -4.900   8.411   4.976  0.00  0.00    +0.051 A 
ATOM      3  C   UNL     1      -5.620   7.755   3.976  0.00  0.00    +0.024 A 
ATOM      4  C   UNL     1      -6.997   7.692   4.034  0.00  0.00    +0.002 A 
ATOM      5  C   UNL     1      -7.683   8.272   5.086  0.00  0.00    +0.001 A 
ATOM      6  C   UNL     1      -6.985   8.921   6.087  0.00  0.00    +0.017 A 
ATOM      7  C   UNL     1      -5.602   8.988   6.034  0.00  0.00    +0.034 A 
ATOM      8  S   UNL     1      -4.709   9.820   7.312  0.00  0.00    -0.082 S 
ATOM      9  C   UNL     1      -3.136   9.005   7.229  0.00  0.00    +0.076 C 
ATOM     10  C   UNL     1      -2.420   8.713   8.342  0.00  0.00    +0.028 C 
ATOM     11  C   UNL     1      -2.651   8.663   5.873  0.00  0.00    +0.258 C 
ATOM     12  O   UNL     1      -1.455   8.582   5.663  0.00  0.00    -0.269 OA
ENDROOT
BRANCH  10  13
ATOM     13  C   UNL     1      -2.869   9.202   9.654  0.00  0.00    -0.024 A 
ATOM     14  C   UNL     1      -3.548  10.420   9.756  0.00  0.00    +0.008 A 
ATOM     15  C   UNL     1      -3.969  10.870  10.989  0.00  0.00    +0.013 A 
ATOM     16  C   UNL     1      -3.712  10.124  12.127  0.00  0.00    +0.055 A 
ATOM     17  C   UNL     1      -3.036   8.919  12.035  0.00  0.00    +0.013 A 
ATOM     18  C   UNL     1      -2.613   8.454  10.808  0.00  0.00    +0.008 A 
BRANCH  16  19
ATOM     19  C   UNL     1      -4.170  10.626  13.472  0.00  0.00    +0.417 C 
ATOM     20  F   UNL     1      -3.164  11.413  14.043  0.00  0.00    -0.166 F 
ATOM     21  F   UNL     1      -5.329  11.393  13.313  0.00  0.00    -0.166 F 
ATOM     22  F   UNL     1      -4.441   9.538  14.308  0.00  0.00    -0.166 F 
ENDBRANCH  16  19
ENDBRANCH  10  13
BRANCH   1  23
ATOM     23  C   UNL     1      -2.943   8.219   3.549  0.00  0.00    +0.209 C 
BRANCH  23  25
ATOM     24  N   UNL     1      -2.164   6.301   2.194  0.00  0.00    -0.314 N 
ATOM     25  C   UNL     1      -2.691   6.746   3.352  0.00  0.00    +0.231 C 
ATOM     26  O   UNL     1      -2.962   5.961   4.236  0.00  0.00    -0.274 OA
ATOM     27  H   UNL     1      -1.919   7.013   1.392  0.00  0.00    +0.149 HD
BRANCH  24  28
ATOM     28  C   UNL     1      -1.919   4.870   2.003  0.00  0.00    +0.102 C 
BRANCH  28  29
ATOM     29  C   UNL     1      -1.322   4.635   0.614  0.00  0.00    +0.000 C 
BRANCH  29  30
ATOM     30  C   UNL     1      -1.066   3.140   0.414  0.00  0.00    -0.077 C 
BRANCH  30  36
ATOM     31  C   UNL     1       0.058   1.559  -1.034  0.00  0.00    -0.069 C 
ATOM     32  C   UNL     1       0.772   1.409  -2.379  0.00  0.00    -0.015 C 
ATOM     33  C   UNL     1      -0.223   1.673  -3.512  0.00  0.00    -0.003 C 
ATOM     34  C   UNL     1      -0.818   3.073  -3.342  0.00  0.00    -0.019 C 
ATOM     35  C   UNL     1      -1.486   3.175  -1.969  0.00  0.00    -0.078 C 
ATOM     36  N   UNL     1      -0.493   2.915  -0.919  0.00  0.00    +0.382 N 
ATOM     37  H   UNL     1       0.335   3.626  -1.058  0.00  0.00    -0.081 HD
BRANCH  31  39
ATOM     38  C   UNL     1       2.142   2.390   0.066  0.00  0.00    +0.002 C 
ATOM     39  C   UNL     1       1.053   1.316   0.102  0.00  0.00    -0.019 C 
ENDBRANCH  31  39
ENDBRANCH  30  36
ENDBRANCH  29  30
ENDBRANCH  28  29
ENDBRANCH  24  28
ENDBRANCH  23  25
ENDBRANCH   1  23
TORSDOF 9
