REMARK  Name = ZINC27529157
REMARK  8 active torsions:
REMARK  status: ('A' for Active; 'I' for Inactive)
REMARK    1  A    between atoms: C_10  and  C_11
REMARK    2  A    between atoms: C_11  and  N_12
REMARK    3  A    between atoms: N_12  and  C_13
REMARK    4  A    between atoms: C_16  and  C_19
REMARK    5  A    between atoms: C_19  and  C_20
REMARK    6  A    between atoms: C_20  and  N_21
REMARK    7  A    between atoms: N_24  and  C_27
REMARK    8  A    between atoms: C_27  and  C_28
REMARK                            x       y       z     vdW  Elec       q    Type
REMARK                         _______ _______ _______ _____ _____    ______ ____
ROOT
ATOM      1  C   UNL     1      -1.351  -4.808   0.240  0.00  0.00    +0.027 A 
ATOM      2  C   UNL     1      -1.141  -4.116   1.425  0.00  0.00    +0.023 A 
ATOM      3  C   UNL     1      -1.160  -2.735   1.429  0.00  0.00    +0.005 A 
ATOM      4  C   UNL     1      -1.389  -2.042   0.255  0.00  0.00    -0.049 A 
ATOM      5  C   UNL     1      -1.604  -2.728  -0.926  0.00  0.00    +0.005 A 
ATOM      6  C   UNL     1      -1.581  -4.109  -0.938  0.00  0.00    +0.023 A 
ENDROOT
BRANCH   1   7
ATOM      7  N   UNL     1      -1.332  -6.205   0.232  0.00  0.00    -0.340 N 
ATOM      8  H   UNL     1      -1.150  -6.758   1.165  0.00  0.00    +0.146 HD
BRANCH   7   9
ATOM      9  C   UNL     1      -1.554  -6.934  -1.020  0.00  0.00    +0.137 C 
BRANCH   9  19
ATOM     10  C   UNL     1      -4.743 -10.467   0.864  0.00  0.00    +0.001 A 
ATOM     11  C   UNL     1      -4.828  -9.096   0.628  0.00  0.00    +0.001 A 
ATOM     12  C   UNL     1      -3.777  -8.409   0.101  0.00  0.00    +0.009 A 
ATOM     13  C   UNL     1      -2.588  -9.090  -0.211  0.00  0.00    -0.013 A 
ATOM     14  C   UNL     1      -2.502 -10.484   0.029  0.00  0.00    -0.018 A 
ATOM     15  C   UNL     1      -3.608 -11.159   0.574  0.00  0.00    +0.008 A 
ATOM     16  C   UNL     1      -1.314 -11.165  -0.283  0.00  0.00    +0.008 A 
ATOM     17  C   UNL     1      -0.263 -10.479  -0.811  0.00  0.00    +0.001 A 
ATOM     18  C   UNL     1      -0.350  -9.110  -1.053  0.00  0.00    +0.006 A 
ATOM     19  C   UNL     1      -1.483  -8.416  -0.757  0.00  0.00    -0.023 A 
ENDBRANCH   9  19
ENDBRANCH   7   9
ENDBRANCH   1   7
BRANCH   4  20
ATOM     20  C   UNL     1      -1.409  -0.535   0.263  0.00  0.00    +0.016 C 
BRANCH  20  21
ATOM     21  C   UNL     1       0.002  -0.004   0.002  0.00  0.00    -0.074 C 
BRANCH  21  22
ATOM     22  N   UNL     1      -0.018   1.465   0.010  0.00  0.00    +0.382 N 
ATOM     23  C   UNL     1      -0.799   1.987  -1.120  0.00  0.00    -0.063 C 
ATOM     24  C   UNL     1      -0.862   3.514  -1.031  0.00  0.00    +0.066 C 
ATOM     25  N   UNL     1       0.503   4.059  -1.041  0.00  0.00    -0.302 NA
ATOM     26  C   UNL     1       1.284   3.537   0.089  0.00  0.00    +0.066 C 
ATOM     27  C   UNL     1       1.347   2.010   0.000  0.00  0.00    -0.063 C 
ATOM     28  H   UNL     1      -0.507   1.790   0.940  0.00  0.00    -0.082 HD
BRANCH  25  29
ATOM     29  C   UNL     1       0.483   5.528  -1.033  0.00  0.00    +0.119 C 
BRANCH  29  30
ATOM     30  C   UNL     1      -0.517   6.022  -2.046  0.00  0.00    -0.030 A 
ATOM     31  C   UNL     1      -0.117   6.270  -3.346  0.00  0.00    +0.009 A 
ATOM     32  C   UNL     1      -1.031   6.718  -4.280  0.00  0.00    +0.050 A 
ATOM     33  C   UNL     1      -2.350   6.932  -3.913  0.00  0.00    +0.166 A 
ATOM     34  C   UNL     1      -2.752   6.687  -2.602  0.00  0.00    +0.167 A 
ATOM     35  C   UNL     1      -1.831   6.232  -1.673  0.00  0.00    +0.054 A 
ATOM     36  O   UNL     1      -4.083   6.970  -2.494  0.00  0.00    -0.453 OA
ATOM     37  C   UNL     1      -4.399   7.777  -3.644  0.00  0.00    +0.466 C 
ATOM     38  O   UNL     1      -3.429   7.368  -4.626  0.00  0.00    -0.453 OA
ENDBRANCH  29  30
ENDBRANCH  25  29
ENDBRANCH  21  22
ENDBRANCH  20  21
ENDBRANCH   4  20
TORSDOF 8
