REMARK  Name = ZINC20717407
REMARK  5 active torsions:
REMARK  status: ('A' for Active; 'I' for Inactive)
REMARK    1  A    between atoms: C_1  and  O_2
REMARK    2  A    between atoms: O_2  and  C_3
REMARK    3  A    between atoms: C_3  and  C_5
REMARK    4  A    between atoms: C_10  and  N_11
REMARK    5  A    between atoms: C_23  and  C_25
REMARK                            x       y       z     vdW  Elec       q    Type
REMARK                         _______ _______ _______ _____ _____    ______ ____
ROOT
ATOM      1  N   UNL     1       1.778  -1.438  -3.279  0.00  0.00    -0.269 N 
ATOM      2  C   UNL     1       2.122  -2.123  -4.387  0.00  0.00    +0.307 C 
ATOM      3  O   UNL     1       1.891  -3.314  -4.461  0.00  0.00    -0.252 OA
ATOM      4  N   UNL     1       2.724  -1.488  -5.412  0.00  0.00    -0.272 N 
ATOM      5  C   UNL     1       2.917  -0.031  -5.388  0.00  0.00    +0.116 C 
ATOM      6  C   UNL     1       4.420   0.278  -5.365  0.00  0.00    +0.076 C 
ATOM      7  C   UNL     1       5.111  -0.590  -6.386  0.00  0.00    +0.066 A 
ATOM      8  C   UNL     1       4.576  -1.707  -6.925  0.00  0.00    +0.064 A 
ATOM      9  N   UNL     1       5.492  -2.214  -7.794  0.00  0.00    -0.346 N 
ATOM     10  H   UNL     1       5.395  -3.015  -8.332  0.00  0.00    +0.167 HD
ATOM     11  C   UNL     1       6.564  -1.389  -7.764  0.00  0.00    +0.197 A 
ATOM     12  N   UNL     1       6.325  -0.420  -6.918  0.00  0.00    -0.240 NA
ATOM     13  C   UNL     1       3.210  -2.238  -6.585  0.00  0.00    +0.159 C 
ATOM     14  H   UNL     1       1.902  -0.476  -3.245  0.00  0.00    +0.156 HD
ENDROOT
BRANCH  13  15
ATOM     15  C   UNL     1       2.278  -2.029  -7.751  0.00  0.00    +0.017 A 
ATOM     16  C   UNL     1       2.627  -1.160  -8.767  0.00  0.00    +0.047 A 
ATOM     17  C   UNL     1       1.771  -0.968  -9.838  0.00  0.00    +0.124 A 
ATOM     18  C   UNL     1       0.565  -1.646  -9.891  0.00  0.00    +0.041 A 
ATOM     19  C   UNL     1       0.216  -2.515  -8.875  0.00  0.00    +0.041 A 
ATOM     20  C   UNL     1       1.075  -2.711  -7.806  0.00  0.00    +0.129 A 
ATOM     21  F   UNL     1       0.736  -3.565  -6.815  0.00  0.00    -0.205 F 
ATOM     22  F   UNL     1       2.112  -0.118 -10.831  0.00  0.00    -0.205 F 
ENDBRANCH  13  15
BRANCH   1  28
ATOM     23  C   UNL     1       1.433  -1.606  -0.886  0.00  0.00    +0.080 A 
ATOM     24  C   UNL     1       0.886  -2.287   0.205  0.00  0.00    +0.017 A 
ATOM     25  C   UNL     1       0.173  -3.448   0.003  0.00  0.00    +0.001 A 
ATOM     26  C   UNL     1      -0.007  -3.945  -1.278  0.00  0.00    +0.002 A 
ATOM     27  C   UNL     1       0.527  -3.284  -2.365  0.00  0.00    +0.024 A 
ATOM     28  C   UNL     1       1.244  -2.109  -2.183  0.00  0.00    +0.049 A 
BRANCH  23  29
ATOM     29  C   UNL     1       2.197  -0.363  -0.678  0.00  0.00    +0.341 C 
ATOM     30  O   UNL     1       2.761   0.168  -1.614  0.00  0.00    -0.245 OA
BRANCH  29  32
ATOM     31  C   UNL     1       3.027   1.390   0.680  0.00  0.00    +0.280 C 
ATOM     32  O   UNL     1       2.269   0.185   0.551  0.00  0.00    -0.464 OA
ENDBRANCH  29  32
ENDBRANCH  23  29
ENDBRANCH   1  28
TORSDOF 4
