REMARK  Name = ZINC33568188
REMARK  8 active torsions:
REMARK  status: ('A' for Active; 'I' for Inactive)
REMARK    1  A    between atoms: C_1  and  O_2
REMARK    2  A    between atoms: O_2  and  C_3
REMARK    3  A    between atoms: C_6  and  N_9
REMARK    4  A    between atoms: N_9  and  C_10
REMARK    5  A    between atoms: C_16  and  C_17
REMARK    6  A    between atoms: C_20  and  C_22
REMARK    7  A    between atoms: C_25  and  S_28
REMARK    8  A    between atoms: S_28  and  N_31
REMARK                            x       y       z     vdW  Elec       q    Type
REMARK                         _______ _______ _______ _____ _____    ______ ____
ROOT
ATOM      1  C   UNL     1       4.622  -4.760  -7.383  0.00  0.00    +0.130 A 
ATOM      2  C   UNL     1       5.306  -4.343  -8.513  0.00  0.00    +0.050 A 
ATOM      3  C   UNL     1       5.802  -5.493  -9.131  0.00  0.00    +0.050 A 
ATOM      4  C   UNL     1       5.407  -6.566  -8.362  0.00  0.00    +0.136 A 
ATOM      5  O   UNL     1       4.704  -6.105  -7.313  0.00  0.00    -0.455 OA
ENDROOT
BRANCH   1  12
ATOM      6  C   UNL     1       2.599  -3.827  -4.323  0.00  0.00    +0.150 C 
ATOM      7  N   UNL     1       2.072  -4.568  -3.393  0.00  0.00    -0.153 NA
ATOM      8  C   UNL     1       2.198  -5.903  -3.399  0.00  0.00    +0.302 C 
ATOM      9  O   UNL     1       1.763  -6.719  -2.603  0.00  0.00    -0.260 OA
ATOM     10  S   UNL     1       3.168  -6.181  -4.874  0.00  0.00    -0.026 S 
ATOM     11  C   UNL     1       3.322  -4.469  -5.370  0.00  0.00    +0.060 C 
ATOM     12  C   UNL     1       3.962  -3.923  -6.462  0.00  0.00    +0.064 C 
BRANCH   6  13
ATOM     13  N   UNL     1       2.458  -2.457  -4.300  0.00  0.00    -0.197 NA
BRANCH  13  17
ATOM     14  C   UNL     1       1.377  -0.533  -0.764  0.00  0.00    +0.120 A 
ATOM     15  C   UNL     1       2.021  -1.761  -0.716  0.00  0.00    +0.047 A 
ATOM     16  C   UNL     1       2.380  -2.399  -1.887  0.00  0.00    +0.029 A 
ATOM     17  C   UNL     1       2.095  -1.811  -3.113  0.00  0.00    +0.055 A 
ATOM     18  C   UNL     1       1.450  -0.582  -3.160  0.00  0.00    +0.029 A 
ATOM     19  C   UNL     1       1.088   0.052  -1.988  0.00  0.00    +0.047 A 
BRANCH  14  21
ATOM     20  C   UNL     1       1.353  -0.565   1.614  0.00  0.00    +0.277 C 
ATOM     21  O   UNL     1       1.024   0.095   0.389  0.00  0.00    -0.495 OA
ENDBRANCH  14  21
ENDBRANCH  13  17
ENDBRANCH   6  13
ENDBRANCH   1  12
BRANCH   4  22
ATOM     22  C   UNL     1       5.710  -7.983  -8.641  0.00  0.00    +0.017 A 
ATOM     23  C   UNL     1       6.463  -8.331  -9.765  0.00  0.00    +0.013 A 
ATOM     24  C   UNL     1       6.743  -9.658 -10.019  0.00  0.00    +0.029 A 
ATOM     25  C   UNL     1       6.278 -10.642  -9.165  0.00  0.00    +0.105 A 
ATOM     26  C   UNL     1       5.532 -10.304  -8.050  0.00  0.00    +0.029 A 
ATOM     27  C   UNL     1       5.249  -8.982  -7.780  0.00  0.00    +0.013 A 
BRANCH  25  28
ATOM     28  S   UNL     1       6.639 -12.334  -9.498  0.00  0.00    +0.056 S 
ATOM     29  O   UNL     1       5.633 -13.100  -8.850  0.00  0.00    -0.153 OA
ATOM     30  O   UNL     1       6.889 -12.429 -10.894  0.00  0.00    -0.153 OA
BRANCH  28  31
ATOM     31  N   UNL     1       8.067 -12.690  -8.737  0.00  0.00    -0.204 NA
ATOM     32  H   UNL     1       8.235 -13.590  -8.417  0.00  0.00    +0.144 HD
ATOM     33  H   UNL     1       8.735 -11.997  -8.611  0.00  0.00    +0.144 HD
ENDBRANCH  28  31
ENDBRANCH  25  28
ENDBRANCH   4  22
TORSDOF 7
