REMARK  Name = ZINC00958296
REMARK  9 active torsions:
REMARK  status: ('A' for Active; 'I' for Inactive)
REMARK    1  A    between atoms: C_1  and  C_2
REMARK    2  A    between atoms: C_2  and  O_3
REMARK    3  A    between atoms: O_3  and  C_4
REMARK    4  A    between atoms: C_5  and  O_31
REMARK    5  A    between atoms: C_7  and  C_11
REMARK    6  A    between atoms: N_12  and  N_13
REMARK    7  A    between atoms: C_14  and  C_16
REMARK    8  A    between atoms: C_16  and  N_17
REMARK    9  A    between atoms: O_31  and  C_32
REMARK                            x       y       z     vdW  Elec       q    Type
REMARK                         _______ _______ _______ _____ _____    ______ ____
ROOT
ATOM      1  N   UNL     1       2.912  -7.042  -2.551  0.00  0.00    -0.206 N 
ATOM      2  C   UNL     1       2.147  -6.037  -2.080  0.00  0.00    +0.252 C 
ATOM      3  O   UNL     1       1.407  -5.436  -2.830  0.00  0.00    -0.272 OA
ATOM      4  H   UNL     1       3.504  -7.523  -1.952  0.00  0.00    +0.177 HD
ENDROOT
BRANCH   1   6
ATOM      5  C   UNL     1       3.587  -8.361  -4.360  0.00  0.00    +0.138 C 
ATOM      6  N   UNL     1       2.851  -7.393  -3.906  0.00  0.00    -0.188 NA
BRANCH   5  10
ATOM      7  C   UNL     1       3.398  -9.422  -8.470  0.00  0.00    +0.176 A 
ATOM      8  C   UNL     1       4.251 -10.115  -7.613  0.00  0.00    +0.163 A 
ATOM      9  C   UNL     1       4.319  -9.769  -6.277  0.00  0.00    +0.059 A 
ATOM     10  C   UNL     1       3.523  -8.730  -5.785  0.00  0.00    -0.001 A 
ATOM     11  C   UNL     1       2.670  -8.040  -6.650  0.00  0.00    +0.028 A 
ATOM     12  C   UNL     1       2.612  -8.387  -7.984  0.00  0.00    +0.064 A 
ATOM     13 BR   UNL     1       1.456  -7.452  -9.153  0.00  0.00    -0.046 Br
BRANCH   8  14
ATOM     14  O   UNL     1       5.020 -11.129  -8.092  0.00  0.00    -0.491 OA
ATOM     15  C   UNL     1       5.870 -11.796  -7.158  0.00  0.00    +0.277 C 
ENDBRANCH   8  14
BRANCH   7  16
ATOM     16  O   UNL     1       3.337  -9.761  -9.785  0.00  0.00    -0.487 OA
BRANCH  16  18
ATOM     17  C   UNL     1       4.023  -9.602 -12.097  0.00  0.00    +0.048 C 
ATOM     18  C   UNL     1       4.239  -9.094 -10.670  0.00  0.00    +0.226 C 
ENDBRANCH  16  18
ENDBRANCH   7  16
ENDBRANCH   5  10
ENDBRANCH   1   6
BRANCH   2  19
ATOM     19  C   UNL     1       2.213  -5.659  -0.623  0.00  0.00    +0.223 C 
BRANCH  19  20
ATOM     20  N   UNL     1       1.295  -4.547  -0.365  0.00  0.00    -0.290 N 
ATOM     21  C   UNL     1       0.019  -4.832  -0.011  0.00  0.00    +0.203 A 
ATOM     22  N   UNL     1      -0.879  -3.905   0.240  0.00  0.00    -0.230 NA
ATOM     23  C   UNL     1      -0.494  -2.637   0.136  0.00  0.00    +0.116 A 
ATOM     24  C   UNL     1       0.812  -2.239  -0.226  0.00  0.00    +0.076 A 
ATOM     25  C   UNL     1       1.762  -3.282  -0.491  0.00  0.00    +0.263 A 
ATOM     26  O   UNL     1       2.914  -3.045  -0.810  0.00  0.00    -0.267 OA
ATOM     27  C   UNL     1       1.051  -0.808  -0.290  0.00  0.00    -0.023 A 
ATOM     28  C   UNL     1       0.002  -0.004   0.002  0.00  0.00    -0.004 A 
ATOM     29  S   UNL     1      -1.339  -1.106   0.372  0.00  0.00    -0.073 S 
ATOM     30  C   UNL     1      -0.018   1.493   0.010  0.00  0.00    +0.043 C 
ATOM     31  C   UNL     1       1.431   1.999  -0.001  0.00  0.00    +0.005 C 
ATOM     32  C   UNL     1       2.205   1.245  -1.085  0.00  0.00    +0.005 C 
ATOM     33  C   UNL     1       2.405  -0.211  -0.663  0.00  0.00    +0.037 C 
ENDBRANCH  19  20
ENDBRANCH   2  19
TORSDOF 7
