REMARK  Name = ZINC39468790
REMARK  4 active torsions:
REMARK  status: ('A' for Active; 'I' for Inactive)
REMARK    1  A    between atoms: C_4  and  C_7
REMARK    2  A    between atoms: C_7  and  C_8
REMARK    3  A    between atoms: C_20  and  C_21
REMARK    4  A    between atoms: C_26  and  O_27
REMARK                            x       y       z     vdW  Elec       q    Type
REMARK                         _______ _______ _______ _____ _____    ______ ____
ROOT
ATOM      1  C   UNL     1       4.164  -0.959   1.377  0.00  0.00    -0.039 C 
ATOM      2  C   UNL     1       3.893  -2.120   1.970  0.00  0.00    -0.020 C 
ATOM      3  C   UNL     1       4.369  -2.347   3.377  0.00  0.00    +0.005 C 
ATOM      4  C   UNL     1       4.478  -3.832   3.703  0.00  0.00    -0.046 C 
ATOM      5  N   UNL     1       4.902  -4.006   5.103  0.00  0.00    +0.399 N 
ATOM      6  C   UNL     1       6.204  -3.388   5.348  0.00  0.00    -0.020 C 
ATOM      7  C   UNL     1       6.182  -1.893   4.997  0.00  0.00    -0.003 C 
ATOM      8  C   UNL     1       5.761  -1.725   3.540  0.00  0.00    +0.016 C 
ATOM      9  C   UNL     1       5.692  -0.273   3.155  0.00  0.00    -0.014 C 
ATOM     10  C   UNL     1       4.919   0.080   2.113  0.00  0.00    -0.015 C 
ATOM     11  C   UNL     1       6.601  -3.482   6.827  0.00  0.00    +0.159 C 
ATOM     12  O   UNL     1       6.714  -4.867   7.203  0.00  0.00    -0.297 OA
ATOM     13  P   UNL     1       5.478  -5.857   6.829  0.00  0.00    +0.421 P 
ATOM     14  O   UNL     1       4.342  -5.711   7.866  0.00  0.00    -0.239 OA
ATOM     15  N   UNL     1       4.966  -5.366   5.321  0.00  0.00    -0.267 NA
ATOM     16  O   UNL     1       5.964  -7.322   6.771  0.00  0.00    -0.128 OA
ATOM     17  H   UNL     1       4.710  -5.998   4.631  0.00  0.00    +0.113 HD
ATOM     18  H   UNL     1       4.212  -3.599   5.717  0.00  0.00    -0.055 HD
ENDROOT
BRANCH  10  19
ATOM     19  C   UNL     1       4.819   1.503   1.707  0.00  0.00    +0.024 A 
ATOM     20  C   UNL     1       5.473   1.951   0.561  0.00  0.00    +0.012 A 
ATOM     21  C   UNL     1       5.377   3.276   0.188  0.00  0.00    +0.001 A 
ATOM     22  C   UNL     1       4.634   4.162   0.948  0.00  0.00    +0.004 A 
ATOM     23  C   UNL     1       3.982   3.728   2.087  0.00  0.00    +0.046 A 
ATOM     24  C   UNL     1       4.065   2.399   2.470  0.00  0.00    +0.125 A 
BRANCH  24  25
ATOM     25  O   UNL     1       3.421   1.970   3.586  0.00  0.00    -0.506 OA
ATOM     26  H   UNL     1       3.948   2.034   4.394  0.00  0.00    +0.292 HD
ENDBRANCH  24  25
ENDBRANCH  10  19
BRANCH   1  27
ATOM     27  C   UNL     1       3.711  -0.707  -0.038  0.00  0.00    +0.070 C 
BRANCH  27  31
ATOM     28  C   UNL     1      -0.017   1.378   0.010  0.00  0.00    +0.000 A 
ATOM     29  C   UNL     1       1.171   2.086   0.002  0.00  0.00    +0.000 A 
ATOM     30  C   UNL     1       2.377   1.411  -0.013  0.00  0.00    +0.004 A 
ATOM     31  C   UNL     1       2.396   0.029  -0.020  0.00  0.00    -0.043 A 
ATOM     32  C   UNL     1       1.208  -0.679  -0.012  0.00  0.00    +0.004 A 
ATOM     33  C   UNL     1       0.002  -0.004   0.002  0.00  0.00    +0.000 A 
ENDBRANCH  27  31
ENDBRANCH   1  27
TORSDOF 4
