REMARK  Name = ZINC38659615
REMARK  15 active torsions:
REMARK  status: ('A' for Active; 'I' for Inactive)
REMARK    1  A    between atoms: C_1  and  C_2
REMARK    2  A    between atoms: C_2  and  O_3
REMARK    3  A    between atoms: O_3  and  C_4
REMARK    4  A    between atoms: C_7  and  C_12
REMARK    5  A    between atoms: C_9  and  O_10
REMARK    6  A    between atoms: O_10  and  C_11
REMARK    7  A    between atoms: C_17  and  O_26
REMARK    8  A    between atoms: C_21  and  N_25
REMARK    9  A    between atoms: C_22  and  C_23
REMARK   10  A    between atoms: O_26  and  C_27
REMARK   11  A    between atoms: C_27  and  C_29
REMARK   12  A    between atoms: C_29  and  O_30
REMARK   13  A    between atoms: O_30  and  C_31
REMARK   14  A    between atoms: C_33  and  C_38
REMARK   15  A    between atoms: C_35  and  C_37
REMARK                            x       y       z     vdW  Elec       q    Type
REMARK                         _______ _______ _______ _____ _____    ______ ____
ROOT
ATOM      1  C   UNL     1       1.054  -6.042  -1.806  0.00  0.00    +0.098 C 
ATOM      2  C   UNL     1       1.833  -6.624  -0.657  0.00  0.00    +0.008 A 
ATOM      3  C   UNL     1       3.216  -6.562  -0.671  0.00  0.00    +0.012 A 
ATOM      4  C   UNL     1       3.946  -7.090   0.375  0.00  0.00    +0.047 A 
ATOM      5  C   UNL     1       3.295  -7.686   1.446  0.00  0.00    +0.135 A 
ATOM      6  C   UNL     1       1.911  -7.750   1.463  0.00  0.00    +0.093 A 
ATOM      7  C   UNL     1       1.177  -7.218   0.410  0.00  0.00    +0.138 A 
ATOM      8  O   UNL     1      -0.177  -7.289   0.442  0.00  0.00    -0.441 OA
ATOM      9  C   UNL     1      -0.882  -7.147  -0.693  0.00  0.00    +0.199 C 
ATOM     10  C   UNL     1      -0.355  -6.564  -1.792  0.00  0.00    +0.098 C 
ENDROOT
BRANCH   1  14
ATOM     11  C   UNL     1       0.987  -1.781  -1.456  0.00  0.00    +0.162 A 
ATOM     12  C   UNL     1       0.446  -2.570  -0.453  0.00  0.00    +0.050 A 
ATOM     13  C   UNL     1       0.469  -3.947  -0.570  0.00  0.00    +0.008 A 
ATOM     14  C   UNL     1       1.031  -4.540  -1.685  0.00  0.00    -0.031 A 
ATOM     15  C   UNL     1       1.573  -3.759  -2.689  0.00  0.00    +0.054 A 
ATOM     16  C   UNL     1       1.547  -2.378  -2.581  0.00  0.00    +0.162 A 
BRANCH  16  17
ATOM     17  O   UNL     1       2.074  -1.607  -3.570  0.00  0.00    -0.491 OA
ATOM     18  C   UNL     1       2.632  -2.289  -4.696  0.00  0.00    +0.277 C 
ENDBRANCH  16  17
BRANCH  11  19
ATOM     19  O   UNL     1       0.965  -0.426  -1.343  0.00  0.00    -0.489 OA
BRANCH  19  21
ATOM     20  C   UNL     1       0.440   1.645  -0.213  0.00  0.00    +0.048 C 
ATOM     21  C   UNL     1       0.373   0.117  -0.161  0.00  0.00    +0.226 C 
ENDBRANCH  19  21
ENDBRANCH  11  19
ENDBRANCH   1  14
BRANCH   9  22
ATOM     22  N   UNL     1      -2.174  -7.608  -0.736  0.00  0.00    -0.328 N 
ATOM     23  H   UNL     1      -2.565  -8.028   0.046  0.00  0.00    +0.145 HD
ATOM     24  H   UNL     1      -2.696  -7.513  -1.548  0.00  0.00    +0.145 HD
ENDBRANCH   9  22
BRANCH  10  25
ATOM     25  C   UNL     1      -1.161  -6.443  -2.970  0.00  0.00    +0.101 C 
ATOM     26  N   UNL     1      -1.799  -6.347  -3.904  0.00  0.00    -0.191 NA
ENDBRANCH  10  25
BRANCH   5  27
ATOM     27  O   UNL     1       4.013  -8.207   2.475  0.00  0.00    -0.423 OA
BRANCH  27  28
ATOM     28  C   UNL     1       4.028  -9.541   2.622  0.00  0.00    +0.350 C 
ATOM     29  O   UNL     1       3.502 -10.246   1.794  0.00  0.00    -0.247 OA
BRANCH  28  30
ATOM     30  C   UNL     1       4.700 -10.160   3.821  0.00  0.00    +0.349 C 
BRANCH  30  31
ATOM     31  O   UNL     1       4.583 -11.582   3.751  0.00  0.00    -0.481 OA
BRANCH  31  32
ATOM     32  C   UNL     1       5.140 -12.298   4.763  0.00  0.00    +0.122 A 
ATOM     33  C   UNL     1       5.782 -11.644   5.805  0.00  0.00    +0.049 A 
ATOM     34  C   UNL     1       6.348 -12.373   6.832  0.00  0.00    -0.047 A 
ATOM     35  C   UNL     1       6.275 -13.754   6.823  0.00  0.00    +0.007 A 
ATOM     36  C   UNL     1       5.636 -14.408   5.786  0.00  0.00    -0.047 A 
ATOM     37  C   UNL     1       5.064 -13.683   4.759  0.00  0.00    +0.049 A 
ATOM     38  C   UNL     1       5.559 -15.913   5.779  0.00  0.00    +0.044 C 
ATOM     39  C   UNL     1       7.045 -11.664   7.964  0.00  0.00    +0.044 C 
ENDBRANCH  31  32
ENDBRANCH  30  31
ENDBRANCH  28  30
ENDBRANCH  27  28
ENDBRANCH   5  27
TORSDOF 11
