REMARK  Name = ZINC40341130
REMARK  6 active torsions:
REMARK  status: ('A' for Active; 'I' for Inactive)
REMARK    1  A    between atoms: C_1  and  C_2
REMARK    2  A    between atoms: C_5  and  C_8
REMARK    3  A    between atoms: C_8  and  N_9
REMARK    4  A    between atoms: C_10  and  C_27
REMARK    5  A    between atoms: C_13  and  C_20
REMARK    6  A    between atoms: C_23  and  C_26
REMARK                            x       y       z     vdW  Elec       q    Type
REMARK                         _______ _______ _______ _____ _____    ______ ____
ROOT
ATOM      1  N   UNL     1       1.447  -4.746  -0.032  0.00  0.00    -0.281 N 
ATOM      2  C   UNL     1       2.257  -5.010  -1.228  0.00  0.00    +0.142 C 
ATOM      3  C   UNL     1       3.599  -5.469  -0.729  0.00  0.00    +0.035 A 
ATOM      4  C   UNL     1       4.890  -5.904  -1.047  0.00  0.00    +0.099 A 
ATOM      5  N   UNL     1       5.522  -6.128   0.088  0.00  0.00    -0.173 NA
ATOM      6  N   UNL     1       4.759  -5.878   1.091  0.00  0.00    -0.272 N 
ATOM      7  H   UNL     1       5.013  -5.972   2.023  0.00  0.00    +0.189 HD
ATOM      8  C   UNL     1       3.535  -5.459   0.651  0.00  0.00    +0.126 A 
ATOM      9  C   UNL     1       2.199  -5.004   1.053  0.00  0.00    +0.266 C 
ATOM     10  O   UNL     1       1.825  -4.881   2.203  0.00  0.00    -0.268 OA
ENDROOT
BRANCH   4  11
ATOM     11  C   UNL     1       5.446  -6.081  -2.412  0.00  0.00    +0.002 A 
ATOM     12  C   UNL     1       4.626  -6.519  -3.450  0.00  0.00    +0.010 A 
ATOM     13  C   UNL     1       5.148  -6.682  -4.717  0.00  0.00    +0.004 A 
ATOM     14  C   UNL     1       6.483  -6.411  -4.958  0.00  0.00    -0.050 A 
ATOM     15  C   UNL     1       7.302  -5.976  -3.931  0.00  0.00    +0.004 A 
ATOM     16  C   UNL     1       6.789  -5.804  -2.662  0.00  0.00    +0.010 A 
ATOM     17  C   UNL     1       7.048  -6.591  -6.343  0.00  0.00    +0.044 C 
ENDBRANCH   4  11
BRANCH   2  18
ATOM     18  C   UNL     1       2.408  -3.750  -2.041  0.00  0.00    -0.022 A 
ATOM     19  C   UNL     1       2.585  -2.535  -1.406  0.00  0.00    +0.008 A 
ATOM     20  C   UNL     1       2.723  -1.379  -2.151  0.00  0.00    +0.038 A 
ATOM     21  C   UNL     1       2.685  -1.438  -3.533  0.00  0.00    +0.123 A 
ATOM     22  C   UNL     1       2.507  -2.656  -4.168  0.00  0.00    +0.038 A 
ATOM     23  C   UNL     1       2.374  -3.811  -3.422  0.00  0.00    +0.008 A 
ATOM     24  F   UNL     1       2.820  -0.309  -4.262  0.00  0.00    -0.205 F 
ENDBRANCH   2  18
BRANCH   1  25
ATOM     25  C   UNL     1       0.059  -4.275  -0.021  0.00  0.00    +0.144 C 
BRANCH  25  30
ATOM     26  C   UNL     1      -0.018   1.503   0.010  0.00  0.00    +0.044 C 
ATOM     27  C   UNL     1       0.002  -0.004   0.002  0.00  0.00    -0.050 A 
ATOM     28  C   UNL     1       0.006  -0.689  -1.199  0.00  0.00    +0.003 A 
ATOM     29  C   UNL     1       0.025  -2.071  -1.206  0.00  0.00    +0.005 A 
ATOM     30  C   UNL     1       0.040  -2.768  -0.013  0.00  0.00    -0.030 A 
ATOM     31  C   UNL     1       0.037  -2.084   1.188  0.00  0.00    +0.005 A 
ATOM     32  C   UNL     1       0.023  -0.702   1.195  0.00  0.00    +0.003 A 
ENDBRANCH  25  30
ENDBRANCH   1  25
TORSDOF 4
