REMARK  Name = ZINC43763848
REMARK  17 active torsions:
REMARK  status: ('A' for Active; 'I' for Inactive)
REMARK    1  A    between atoms: C_1  and  C_2
REMARK    2  A    between atoms: C_2  and  N_3
REMARK    3  A    between atoms: N_3  and  C_4
REMARK    4  A    between atoms: N_3  and  C_6
REMARK    5  A    between atoms: C_4  and  C_5
REMARK    6  A    between atoms: C_6  and  C_7
REMARK    7  A    between atoms: C_7  and  S_8
REMARK    8  A    between atoms: S_8  and  C_9
REMARK    9  A    between atoms: C_9  and  C_10
REMARK   10  A    between atoms: C_10  and  O_12
REMARK   11  A    between atoms: O_12  and  C_13
REMARK   12  A    between atoms: C_16  and  C_37
REMARK   13  A    between atoms: C_16  and  C_38
REMARK   14  A    between atoms: C_17  and  O_36
REMARK   15  A    between atoms: C_19  and  C_35
REMARK   16  A    between atoms: C_24  and  C_34
REMARK   17  A    between atoms: C_26  and  C_33
REMARK                            x       y       z     vdW  Elec       q    Type
REMARK                         _______ _______ _______ _____ _____    ______ ____
ROOT
ATOM      1  C   UNL     1       2.894  -6.723   4.323  0.00  0.00    +0.184 C 
ATOM      2  C   UNL     1       1.953  -7.601   5.085  0.00  0.00    +0.058 C 
ATOM      3  C   UNL     1       1.910  -7.981   6.521  0.00  0.00    +0.015 C 
ATOM      4  C   UNL     1       2.719  -9.298   6.780  0.00  0.00    +0.128 C 
ATOM      5  C   UNL     1       3.421  -9.594   5.469  0.00  0.00    +0.022 C 
ATOM      6  C   UNL     1       4.825  -9.076   5.435  0.00  0.00    -0.014 C 
ATOM      7  C   UNL     1       5.313  -8.374   6.683  0.00  0.00    +0.008 C 
ATOM      8  C   UNL     1       5.993  -7.050   6.304  0.00  0.00    +0.004 C 
ATOM      9  C   UNL     1       5.016  -6.120   5.591  0.00  0.00    -0.004 C 
ATOM     10  C   UNL     1       4.410  -6.807   4.362  0.00  0.00    +0.018 C 
ATOM     11  C   UNL     1       5.036  -8.180   4.218  0.00  0.00    +0.071 C 
ATOM     12  C   UNL     1       4.746  -9.089   3.070  0.00  0.00    +0.138 C 
ATOM     13  O   UNL     1       4.070  -8.912   2.095  0.00  0.00    -0.297 OA
ATOM     14  C   UNL     1       5.552 -10.336   3.468  0.00  0.00    +0.075 C 
ATOM     15  C   UNL     1       5.806 -10.206   4.996  0.00  0.00    +0.015 C 
ATOM     16  C   UNL     1       4.923  -5.968   3.146  0.00  0.00    +0.016 C 
ATOM     17  C   UNL     1       5.796  -4.886   5.111  0.00  0.00    +0.008 C 
ATOM     18  C   UNL     1       3.368 -11.132   5.305  0.00  0.00    +0.011 C 
ATOM     19  C   UNL     1       0.425  -8.276   6.870  0.00  0.00    +0.018 C 
ENDROOT
BRANCH   4  20
ATOM     20  O   UNL     1       1.799 -10.373   7.098  0.00  0.00    -0.391 OA
ATOM     21  H   UNL     1       1.259 -10.209   7.883  0.00  0.00    +0.210 HD
ENDBRANCH   4  20
BRANCH   3  22
ATOM     22  C   UNL     1       2.346  -6.866   7.433  0.00  0.00    -0.025 C 
ATOM     23  C   UNL     1       1.479  -6.296   8.232  0.00  0.00    +0.004 C 
ENDBRANCH   3  22
BRANCH   1  24
ATOM     24  O   UNL     1       2.501  -5.352   4.542  0.00  0.00    -0.460 OA
BRANCH  24  25
ATOM     25  C   UNL     1       1.466  -4.892   3.822  0.00  0.00    +0.317 C 
ATOM     26  O   UNL     1       0.908  -5.619   3.034  0.00  0.00    -0.250 OA
BRANCH  25  27
ATOM     27  C   UNL     1       0.999  -3.470   3.997  0.00  0.00    +0.189 C 
BRANCH  27  28
ATOM     28  S   UNL     1      -0.406  -3.155   2.894  0.00  0.00    -0.151 S 
BRANCH  28  29
ATOM     29  C   UNL     1      -0.842  -1.425   3.222  0.00  0.00    +0.051 C 
BRANCH  29  30
ATOM     30  C   UNL     1      -2.030  -1.023   2.345  0.00  0.00    -0.068 C 
BRANCH  30  31
ATOM     31  N   UNL     1      -2.470   0.331   2.707  0.00  0.00    +0.380 N 
ATOM     32  H   UNL     1      -2.667   0.367   3.696  0.00  0.00    -0.082 HD
BRANCH  31  34
ATOM     33  C   UNL     1      -1.815   2.685   2.873  0.00  0.00    -0.017 C 
ATOM     34  C   UNL     1      -1.409   1.293   2.383  0.00  0.00    -0.082 C 
ENDBRANCH  31  34
BRANCH  31  35
ATOM     35  C   UNL     1      -3.685   0.669   1.953  0.00  0.00    -0.082 C 
ATOM     36  C   UNL     1      -4.839  -0.220   2.420  0.00  0.00    -0.017 C 
ENDBRANCH  31  35
ENDBRANCH  30  31
ENDBRANCH  29  30
ENDBRANCH  28  29
ENDBRANCH  27  28
ENDBRANCH  25  27
ENDBRANCH  24  25
ENDBRANCH   1  24
TORSDOF 11
