REMARK  Name = ZINC39652867
REMARK  5 active torsions:
REMARK  status: ('A' for Active; 'I' for Inactive)
REMARK    1  A    between atoms: C_3  and  C_8
REMARK    2  A    between atoms: C_12  and  C_21
REMARK    3  A    between atoms: N_23  and  C_24
REMARK    4  A    between atoms: C_24  and  C_25
REMARK    5  A    between atoms: C_25  and  C_26
REMARK                            x       y       z     vdW  Elec       q    Type
REMARK                         _______ _______ _______ _____ _____    ______ ____
ROOT
ATOM      1  C   UNL     1       3.974   2.073   0.073  0.00  0.00    +0.250 C 
ATOM      2  O   UNL     1       5.052   1.520   0.174  0.00  0.00    -0.270 OA
ATOM      3  N   UNL     1       3.915   3.414  -0.057  0.00  0.00    -0.296 N 
ATOM      4  C   UNL     1       2.706   4.271  -0.085  0.00  0.00    +0.121 C 
ATOM      5  C   UNL     1       3.100   5.527   0.724  0.00  0.00    +0.100 C 
ATOM      6  C   UNL     1       4.634   5.583   0.641  0.00  0.00    -0.004 C 
ATOM      7  C   UNL     1       5.044   4.364  -0.198  0.00  0.00    +0.115 C 
ATOM      8  C   UNL     1       5.243   5.484   2.036  0.00  0.00    -0.010 C 
ATOM      9  C   UNL     1       6.767   5.600   1.933  0.00  0.00    -0.082 C 
ATOM     10  N   UNL     1       7.121   6.882   1.312  0.00  0.00    +0.379 N 
ATOM     11  C   UNL     1       6.610   6.930  -0.064  0.00  0.00    -0.082 C 
ATOM     12  C   UNL     1       5.080   6.871  -0.044  0.00  0.00    -0.010 C 
ATOM     13  H   UNL     1       6.716   7.636   1.846  0.00  0.00    -0.086 HD
ATOM     14  H   UNL     1       8.125   6.982   1.300  0.00  0.00    -0.086 HD
ENDROOT
BRANCH   1  17
ATOM     15  C   UNL     1       0.488   0.875  -0.632  0.00  0.00    +0.021 A 
ATOM     16  C   UNL     1       1.631   1.655  -0.686  0.00  0.00    +0.017 A 
ATOM     17  C   UNL     1       2.730   1.277   0.094  0.00  0.00    +0.074 A 
ATOM     18  C   UNL     1       2.630   0.134   0.892  0.00  0.00    +0.141 A 
ATOM     19  N   UNL     1       1.520  -0.575   0.909  0.00  0.00    -0.243 NA
ATOM     20  C   UNL     1       0.469  -0.242   0.183  0.00  0.00    +0.112 A 
ATOM     21 CL   UNL     1       3.980  -0.355   1.868  0.00  0.00    -0.061 Cl
ENDBRANCH   1  17
BRANCH   5  22
ATOM     22  C   UNL     1       2.654   5.388   2.157  0.00  0.00    +0.218 C 
ATOM     23  O   UNL     1       2.588   4.290   2.668  0.00  0.00    -0.275 OA
ATOM     24  N   UNL     1       2.330   6.484   2.871  0.00  0.00    -0.315 N 
ATOM     25  H   UNL     1       2.383   7.362   2.463  0.00  0.00    +0.149 HD
BRANCH  24  26
ATOM     26  C   UNL     1       1.897   6.349   4.264  0.00  0.00    +0.109 C 
BRANCH  26  27
ATOM     27  C   UNL     1       1.591   7.733   4.840  0.00  0.00    +0.054 C 
BRANCH  27  28
ATOM     28  C   UNL     1       1.146   7.594   6.273  0.00  0.00    -0.046 A 
ATOM     29  C   UNL     1      -0.194   7.424   6.567  0.00  0.00    +0.005 A 
ATOM     30  C   UNL     1      -0.603   7.296   7.881  0.00  0.00    +0.015 A 
ATOM     31  C   UNL     1       0.329   7.338   8.902  0.00  0.00    +0.018 A 
ATOM     32  C   UNL     1       1.670   7.508   8.608  0.00  0.00    +0.015 A 
ATOM     33  C   UNL     1       2.078   7.631   7.293  0.00  0.00    +0.005 A 
ATOM     34 BR   UNL     1      -0.230   7.164  10.700  0.00  0.00    -0.050 Br
ENDBRANCH  27  28
ENDBRANCH  26  27
ENDBRANCH  24  26
ENDBRANCH   5  22
TORSDOF 5
