REMARK  Name = ZINC43552711
REMARK  8 active torsions:
REMARK  status: ('A' for Active; 'I' for Inactive)
REMARK    1  A    between atoms: C_1  and  C_2
REMARK    2  A    between atoms: C_2  and  C_4
REMARK    3  A    between atoms: C_2  and  N_14
REMARK    4  A    between atoms: C_7  and  S_10
REMARK    5  A    between atoms: S_10  and  N_13
REMARK    6  A    between atoms: N_17  and  C_18
REMARK    7  A    between atoms: C_23  and  S_24
REMARK    8  A    between atoms: S_24  and  C_25
REMARK                            x       y       z     vdW  Elec       q    Type
REMARK                         _______ _______ _______ _____ _____    ______ ____
ROOT
ATOM      1  N   UNL     1       0.709  -0.506   1.184  0.00  0.00    -0.293 N 
ATOM      2  C   UNL     1       2.053  -0.604   1.172  0.00  0.00    +0.304 C 
ATOM      3  O   UNL     1       2.677  -0.293   0.176  0.00  0.00    -0.252 OA
ATOM      4  N   UNL     1       2.706  -1.046   2.266  0.00  0.00    -0.268 N 
ATOM      5  H   UNL     1       0.211  -0.753   1.979  0.00  0.00    +0.151 HD
ATOM      6  H   UNL     1       2.217  -1.216   3.086  0.00  0.00    +0.156 HD
ENDROOT
BRANCH   4   7
ATOM      7  C   UNL     1       4.090  -1.261   2.216  0.00  0.00    +0.048 A 
ATOM      8  C   UNL     1       4.710  -1.526   1.005  0.00  0.00    +0.024 A 
ATOM      9  C   UNL     1       6.076  -1.738   0.959  0.00  0.00    +0.002 A 
ATOM     10  C   UNL     1       6.827  -1.686   2.119  0.00  0.00    +0.001 A 
ATOM     11  C   UNL     1       6.218  -1.423   3.331  0.00  0.00    +0.017 A 
ATOM     12  C   UNL     1       4.849  -1.203   3.386  0.00  0.00    +0.034 A 
BRANCH  12  13
ATOM     13  S   UNL     1       4.070  -0.859   4.928  0.00  0.00    -0.054 S 
BRANCH  13  14
ATOM     14  C   UNL     1       5.434  -0.888   6.124  0.00  0.00    +0.404 C 
ATOM     15  F   UNL     1       6.041  -2.148   6.109  0.00  0.00    -0.197 F 
ATOM     16  F   UNL     1       6.376   0.087   5.781  0.00  0.00    -0.197 F 
ENDBRANCH  13  14
ENDBRANCH  12  13
ENDBRANCH   4   7
BRANCH   1  18
ATOM     17  C   UNL     1      -0.035   1.505   0.006  0.00  0.00    +0.033 C 
ATOM     18  C   UNL     1      -0.000  -0.025  -0.004  0.00  0.00    +0.102 C 
BRANCH  18  19
ATOM     19  C   UNL     1      -1.409  -0.559   0.001  0.00  0.00    -0.027 A 
ATOM     20  C   UNL     1      -2.124  -0.613   1.183  0.00  0.00    +0.007 A 
ATOM     21  C   UNL     1      -3.416  -1.103   1.188  0.00  0.00    +0.029 A 
ATOM     22  C   UNL     1      -3.995  -1.539   0.011  0.00  0.00    +0.105 A 
ATOM     23  C   UNL     1      -3.281  -1.485  -1.171  0.00  0.00    +0.029 A 
ATOM     24  C   UNL     1      -1.990  -0.991  -1.177  0.00  0.00    +0.007 A 
BRANCH  22  25
ATOM     25  S   UNL     1      -5.642  -2.165   0.018  0.00  0.00    +0.056 S 
ATOM     26  O   UNL     1      -5.758  -3.015  -1.115  0.00  0.00    -0.153 OA
ATOM     27  O   UNL     1      -5.899  -2.618   1.340  0.00  0.00    -0.153 OA
BRANCH  25  28
ATOM     28  N   UNL     1      -6.654  -0.882  -0.248  0.00  0.00    -0.204 NA
ATOM     29  H   UNL     1      -7.501  -1.018  -0.700  0.00  0.00    +0.144 HD
ATOM     30  H   UNL     1      -6.400   0.006   0.050  0.00  0.00    +0.144 HD
ENDBRANCH  25  28
ENDBRANCH  22  25
ENDBRANCH  18  19
ENDBRANCH   1  18
TORSDOF 7
