REMARK  Name = ZINC35636360
REMARK  10 active torsions:
REMARK  status: ('A' for Active; 'I' for Inactive)
REMARK    1  A    between atoms: C_1  and  C_2
REMARK    2  A    between atoms: C_2  and  C_3
REMARK    3  A    between atoms: C_2  and  C_4
REMARK    4  A    between atoms: C_4  and  C_5
REMARK    5  A    between atoms: C_5  and  C_7
REMARK    6  A    between atoms: C_5  and  N_17
REMARK    7  A    between atoms: N_9  and  C_10
REMARK    8  A    between atoms: C_23  and  C_30
REMARK    9  A    between atoms: N_28  and  C_29
REMARK   10  A    between atoms: C_35  and  C_36
REMARK                            x       y       z     vdW  Elec       q    Type
REMARK                         _______ _______ _______ _____ _____    ______ ____
ROOT
ATOM      1  N   UNL     1       0.172  -1.918   1.917  0.00  0.00    -0.281 N 
ATOM      2  C   UNL     1      -0.971  -1.060   2.263  0.00  0.00    +0.160 C 
ATOM      3  C   UNL     1      -2.188  -1.936   2.070  0.00  0.00    +0.042 C 
ATOM      4  C   UNL     1      -1.730  -3.137   1.663  0.00  0.00    +0.058 C 
ATOM      5  C   UNL     1      -0.324  -3.119   1.568  0.00  0.00    +0.247 C 
ATOM      6  O   UNL     1       0.355  -4.068   1.219  0.00  0.00    -0.270 OA
ATOM      7  C   UNL     1      -2.749  -4.225   1.391  0.00  0.00    +0.142 C 
ATOM      8  N   UNL     1      -4.166  -3.877   1.595  0.00  0.00    -0.288 N 
ATOM      9  C   UNL     1      -4.468  -2.630   2.007  0.00  0.00    +0.307 C 
ATOM     10  O   UNL     1      -5.634  -2.334   2.179  0.00  0.00    -0.252 OA
ATOM     11  N   UNL     1      -3.525  -1.706   2.233  0.00  0.00    -0.260 N 
ATOM     12  C   UNL     1      -3.950  -0.377   2.679  0.00  0.00    +0.139 C 
ATOM     13  H   UNL     1      -4.865  -4.531   1.438  0.00  0.00    +0.151 HD
ENDROOT
BRANCH   7  14
ATOM     14  C   UNL     1      -2.583  -4.670  -0.040  0.00  0.00    -0.011 A 
ATOM     15  C   UNL     1      -2.962  -3.833  -1.073  0.00  0.00    +0.006 A 
ATOM     16  C   UNL     1      -2.810  -4.242  -2.384  0.00  0.00    +0.000 A 
ATOM     17  C   UNL     1      -2.278  -5.487  -2.663  0.00  0.00    +0.001 A 
ATOM     18  C   UNL     1      -1.898  -6.324  -1.630  0.00  0.00    +0.013 A 
ATOM     19  C   UNL     1      -2.047  -5.913  -0.318  0.00  0.00    +0.060 A 
BRANCH  19  20
ATOM     20  C   UNL     1      -1.628  -6.823   0.808  0.00  0.00    +0.418 C 
ATOM     21  F   UNL     1      -1.172  -8.037   0.282  0.00  0.00    -0.166 F 
ATOM     22  F   UNL     1      -0.602  -6.217   1.540  0.00  0.00    -0.166 F 
ATOM     23  F   UNL     1      -2.722  -7.060   1.647  0.00  0.00    -0.166 F 
ENDBRANCH  19  20
ENDBRANCH   7  14
BRANCH   1  24
ATOM     24  C   UNL     1       1.585  -1.534   1.941  0.00  0.00    +0.163 C 
BRANCH  24  25
ATOM     25  C   UNL     1       2.331  -2.426   2.900  0.00  0.00    +0.238 C 
ATOM     26  O   UNL     1       1.740  -3.297   3.503  0.00  0.00    -0.273 OA
ATOM     27  N   UNL     1       3.655  -2.256   3.086  0.00  0.00    -0.284 N 
ATOM     28  H   UNL     1       4.144  -1.618   2.544  0.00  0.00    +0.155 HD
BRANCH  27  29
ATOM     29  C   UNL     1       4.326  -3.003   4.063  0.00  0.00    +0.034 A 
ATOM     30  C   UNL     1       5.611  -3.470   3.821  0.00  0.00    +0.026 A 
ATOM     31  C   UNL     1       6.271  -4.205   4.786  0.00  0.00    +0.040 A 
ATOM     32  C   UNL     1       5.651  -4.478   5.994  0.00  0.00    +0.124 A 
ATOM     33  C   UNL     1       4.370  -4.013   6.237  0.00  0.00    +0.040 A 
ATOM     34  C   UNL     1       3.709  -3.272   5.277  0.00  0.00    +0.026 A 
ATOM     35  F   UNL     1       6.298  -5.199   6.936  0.00  0.00    -0.205 F 
ENDBRANCH  27  29
ENDBRANCH  24  25
BRANCH  24  36
ATOM     36  C   UNL     1       2.178  -1.683   0.539  0.00  0.00    +0.035 C 
BRANCH  36  38
ATOM     37  C   UNL     1       1.845   0.740   0.026  0.00  0.00    +0.007 C 
ATOM     38  C   UNL     1       1.505  -0.688  -0.408  0.00  0.00    -0.015 C 
ATOM     39  C   UNL     1       2.007  -0.921  -1.835  0.00  0.00    +0.007 C 
ENDBRANCH  36  38
ENDBRANCH  24  36
ENDBRANCH   1  24
TORSDOF 7
