REMARK  Name = ZINC13551435
REMARK  9 active torsions:
REMARK  status: ('A' for Active; 'I' for Inactive)
REMARK    1  A    between atoms: C_1  and  C_2
REMARK    2  A    between atoms: C_12  and  C_13
REMARK    3  A    between atoms: C_13  and  C_14
REMARK    4  A    between atoms: C_14  and  C_15
REMARK    5  A    between atoms: N_17  and  C_18
REMARK    6  A    between atoms: C_18  and  C_19
REMARK    7  A    between atoms: C_19  and  C_20
REMARK    8  A    between atoms: C_27  and  C_35
REMARK    9  A    between atoms: C_28  and  C_29
REMARK                            x       y       z     vdW  Elec       q    Type
REMARK                         _______ _______ _______ _____ _____    ______ ____
ROOT
ATOM      1  C   UNL     1      -0.018   1.503   0.010  0.00  0.00    +0.045 C 
ATOM      2  C   UNL     1       0.002  -0.004   0.002  0.00  0.00    -0.030 A 
ATOM      3  C   UNL     1       0.006  -0.750  -1.260  0.00  0.00    +0.022 A 
ATOM      4  C   UNL     1      -0.008  -0.081  -2.485  0.00  0.00    +0.024 A 
ATOM      5  C   UNL     1      -0.003  -0.816  -3.659  0.00  0.00    +0.029 A 
ATOM      6  C   UNL     1       0.016  -2.224  -3.623  0.00  0.00    +0.139 A 
ATOM      7  C   UNL     1       0.031  -2.883  -2.402  0.00  0.00    +0.093 A 
ATOM      8  C   UNL     1       0.026  -2.159  -1.222  0.00  0.00    +0.143 A 
ATOM      9  O   UNL     1       0.040  -2.796  -0.029  0.00  0.00    -0.422 OA
ATOM     10  C   UNL     1       0.036  -2.118   1.128  0.00  0.00    +0.341 A 
ATOM     11  O   UNL     1       0.049  -2.736   2.178  0.00  0.00    -0.245 OA
ATOM     12  C   UNL     1       0.023  -0.707   1.163  0.00  0.00    +0.041 A 
ATOM     13  O   UNL     1       0.017  -2.660  -4.900  0.00  0.00    -0.459 OA
ATOM     14  C   UNL     1      -0.001  -1.632  -5.765  0.00  0.00    +0.111 A 
ATOM     15  C   UNL     1      -0.014  -0.460  -5.092  0.00  0.00    +0.031 A 
ATOM     16  C   UNL     1      -0.004  -1.767  -7.266  0.00  0.00    +0.087 C 
ENDROOT
BRANCH  15  17
ATOM     17  C   UNL     1      -0.034   0.903  -5.673  0.00  0.00    -0.014 A 
ATOM     18  C   UNL     1      -1.135   1.734  -5.469  0.00  0.00    +0.008 A 
ATOM     19  C   UNL     1      -1.149   3.003  -6.013  0.00  0.00    +0.001 A 
ATOM     20  C   UNL     1      -0.074   3.450  -6.759  0.00  0.00    +0.000 A 
ATOM     21  C   UNL     1       1.022   2.630  -6.965  0.00  0.00    +0.001 A 
ATOM     22  C   UNL     1       1.049   1.362  -6.421  0.00  0.00    +0.008 A 
ENDBRANCH  15  17
BRANCH  12  23
ATOM     23  C   UNL     1       0.026   0.016   2.485  0.00  0.00    +0.052 C 
BRANCH  23  24
ATOM     24  C   UNL     1      -1.408   0.132   3.006  0.00  0.00    +0.100 C 
BRANCH  24  25
ATOM     25  C   UNL     1      -1.405   0.856   4.328  0.00  0.00    +0.213 C 
ATOM     26  O   UNL     1      -0.358   1.241   4.806  0.00  0.00    -0.276 OA
ATOM     27  N   UNL     1      -2.564   1.075   4.979  0.00  0.00    -0.315 N 
ATOM     28  H   UNL     1      -3.401   0.766   4.597  0.00  0.00    +0.149 HD
BRANCH  27  29
ATOM     29  C   UNL     1      -2.561   1.778   6.264  0.00  0.00    +0.110 C 
BRANCH  29  30
ATOM     30  C   UNL     1      -3.994   1.894   6.786  0.00  0.00    +0.073 C 
BRANCH  30  31
ATOM     31  C   UNL     1      -3.991   2.617   8.108  0.00  0.00    +0.035 A 
ATOM     32  C   UNL     1      -3.777   2.060   9.315  0.00  0.00    +0.105 A 
ATOM     33  N   UNL     1      -3.861   3.067  10.237  0.00  0.00    -0.352 N 
ATOM     34  H   UNL     1      -3.752   2.980  11.197  0.00  0.00    +0.166 HD
ATOM     35  C   UNL     1      -4.124   4.207   9.562  0.00  0.00    +0.171 A 
ATOM     36  N   UNL     1      -4.195   3.931   8.288  0.00  0.00    -0.350 N 
ATOM     37  H   UNL     1      -4.370   4.574   7.583  0.00  0.00    +0.166 HD
ENDBRANCH  30  31
ENDBRANCH  29  30
ENDBRANCH  27  29
ENDBRANCH  24  25
ENDBRANCH  23  24
ENDBRANCH  12  23
TORSDOF 7
