REMARK  Name = ZINC20927508
REMARK  12 active torsions:
REMARK  status: ('A' for Active; 'I' for Inactive)
REMARK    1  A    between atoms: C_1  and  C_2
REMARK    2  A    between atoms: C_2  and  N_3
REMARK    3  A    between atoms: C_9  and  N_30
REMARK    4  A    between atoms: C_10  and  C_11
REMARK    5  A    between atoms: C_11  and  N_12
REMARK    6  A    between atoms: N_15  and  C_16
REMARK    7  A    between atoms: C_16  and  C_18
REMARK    8  A    between atoms: C_16  and  C_24
REMARK    9  A    between atoms: C_18  and  C_19
REMARK   10  A    between atoms: C_19  and  O_21
REMARK   11  A    between atoms: O_21  and  C_22
REMARK   12  A    between atoms: C_22  and  C_23
REMARK                            x       y       z     vdW  Elec       q    Type
REMARK                         _______ _______ _______ _____ _____    ______ ____
ROOT
ATOM      1  N   UNL     1      -2.952  -1.645  -2.552  0.00  0.00    -0.295 N 
ATOM      2  C   UNL     1      -2.943  -0.903  -1.428  0.00  0.00    +0.300 C 
ATOM      3  O   UNL     1      -3.426  -1.344  -0.403  0.00  0.00    -0.253 OA
ATOM      4  N   UNL     1      -2.397   0.330  -1.439  0.00  0.00    -0.292 N 
ATOM      5  H   UNL     1      -2.515  -1.246  -3.479  0.00  0.00    +0.151 HD
ATOM      6  H   UNL     1      -1.959   0.729  -2.365  0.00  0.00    +0.151 HD
ENDROOT
BRANCH   1   7
ATOM      7  C   UNL     1      -3.546  -2.985  -2.541  0.00  0.00    +0.144 C 
BRANCH   7  15
ATOM      8  N   UNL     1       0.112  -5.303  -5.359  0.00  0.00    +0.383 N 
ATOM      9  C   UNL     1      -0.171  -5.539  -3.937  0.00  0.00    -0.074 C 
ATOM     10  C   UNL     1      -1.044  -4.413  -3.377  0.00  0.00    +0.018 C 
ATOM     11  C   UNL     1      -2.260  -4.256  -4.286  0.00  0.00    -0.034 A 
ATOM     12  C   UNL     1      -2.228  -4.782  -5.542  0.00  0.00    -0.021 A 
ATOM     13  S   UNL     1      -3.816  -4.374  -6.213  0.00  0.00    -0.077 S 
ATOM     14  C   UNL     1      -4.467  -3.515  -4.787  0.00  0.00    +0.089 A 
ATOM     15  C   UNL     1      -3.429  -3.598  -3.912  0.00  0.00    +0.004 A 
ATOM     16  C   UNL     1      -1.098  -5.526  -6.174  0.00  0.00    -0.035 C 
ATOM     17  H   UNL     1       0.422  -4.254  -5.475  0.00  0.00    -0.081 HD
BRANCH  14  18
ATOM     18  N   UNL     1      -5.718  -2.913  -4.616  0.00  0.00    -0.317 N 
ATOM     19  C   UNL     1      -6.922  -3.473  -4.936  0.00  0.00    +0.092 A 
ATOM     20  C   UNL     1      -7.894  -2.591  -4.623  0.00  0.00    +0.019 A 
ATOM     21  C   UNL     1      -7.269  -1.441  -4.100  0.00  0.00    +0.019 A 
ATOM     22  C   UNL     1      -5.938  -1.665  -4.107  0.00  0.00    +0.092 A 
ENDBRANCH  14  18
BRANCH   8  24
ATOM     23  C   UNL     1       1.651  -5.703  -7.222  0.00  0.00    -0.017 C 
ATOM     24  C   UNL     1       1.221  -6.148  -5.822  0.00  0.00    -0.082 C 
ENDBRANCH   8  24
ENDBRANCH   7  15
ENDBRANCH   1   7
BRANCH   4  25
ATOM     25  C   UNL     1      -2.386   1.137  -0.216  0.00  0.00    +0.115 C 
BRANCH  25  26
ATOM     26  C   UNL     1      -3.694   1.875  -0.090  0.00  0.00    -0.027 A 
ATOM     27  C   UNL     1      -4.284   2.432  -1.209  0.00  0.00    +0.005 A 
ATOM     28  C   UNL     1      -5.486   3.106  -1.094  0.00  0.00    +0.000 A 
ATOM     29  C   UNL     1      -6.093   3.229   0.141  0.00  0.00    +0.000 A 
ATOM     30  C   UNL     1      -5.501   2.675   1.261  0.00  0.00    +0.000 A 
ATOM     31  C   UNL     1      -4.301   1.999   1.146  0.00  0.00    +0.005 A 
ENDBRANCH  25  26
BRANCH  25  32
ATOM     32  C   UNL     1      -1.236   2.144  -0.280  0.00  0.00    +0.147 C 
BRANCH  32  33
ATOM     33  C   UNL     1       0.078   1.407  -0.282  0.00  0.00    +0.309 C 
ATOM     34  O   UNL     1       0.093   0.200  -0.237  0.00  0.00    -0.251 OA
BRANCH  33  35
ATOM     35  O   UNL     1       1.231   2.091  -0.340  0.00  0.00    -0.465 OA
BRANCH  35  36
ATOM     36  C   UNL     1       2.459   1.315  -0.345  0.00  0.00    +0.229 C 
ATOM     37  C   UNL     1       3.659   2.261  -0.413  0.00  0.00    +0.048 C 
ENDBRANCH  35  36
ENDBRANCH  33  35
ENDBRANCH  32  33
ENDBRANCH  25  32
ENDBRANCH   4  25
TORSDOF 10
