REMARK  Name = ZINC39683409
REMARK  12 active torsions:
REMARK  status: ('A' for Active; 'I' for Inactive)
REMARK    1  A    between atoms: C_1  and  C_2
REMARK    2  A    between atoms: C_2  and  C_3
REMARK    3  A    between atoms: C_3  and  C_4
REMARK    4  A    between atoms: C_4  and  N_5
REMARK    5  A    between atoms: C_8  and  C_11
REMARK    6  A    between atoms: C_11  and  N_12
REMARK    7  A    between atoms: C_13  and  C_15
REMARK    8  A    between atoms: C_26  and  C_28
REMARK    9  A    between atoms: C_28  and  C_30
REMARK   10  A    between atoms: C_28  and  C_31
REMARK   11  A    between atoms: C_31  and  C_32
REMARK   12  A    between atoms: C_32  and  C_33
REMARK                            x       y       z     vdW  Elec       q    Type
REMARK                         _______ _______ _______ _____ _____    ______ ____
ROOT
ATOM      1  C   UNL     1       3.396  -8.107   7.108  0.00  0.00    +0.100 C 
ATOM      2  C   UNL     1       2.014  -8.714   7.437  0.00  0.00    +0.121 C 
ATOM      3  N   UNL     1       2.312  -9.874   8.309  0.00  0.00    -0.300 N 
ATOM      4  C   UNL     1       3.412  -9.404   9.185  0.00  0.00    +0.115 C 
ATOM      5  C   UNL     1       4.311  -8.562   8.258  0.00  0.00    -0.004 C 
ATOM      6  C   UNL     1       4.855  -7.351   9.010  0.00  0.00    -0.010 C 
ATOM      7  C   UNL     1       5.808  -7.826  10.111  0.00  0.00    -0.082 C 
ATOM      8  N   UNL     1       6.908  -8.591   9.513  0.00  0.00    +0.379 N 
ATOM      9  C   UNL     1       6.384  -9.803   8.872  0.00  0.00    -0.082 C 
ATOM     10  C   UNL     1       5.456  -9.412   7.718  0.00  0.00    -0.010 C 
ATOM     11  C   UNL     1       1.718 -11.084   8.306  0.00  0.00    +0.218 C 
ATOM     12  O   UNL     1       2.077 -11.938   9.090  0.00  0.00    -0.275 OA
ATOM     13  H   UNL     1       7.375  -8.023   8.823  0.00  0.00    -0.086 HD
ATOM     14  H   UNL     1       7.566  -8.851  10.233  0.00  0.00    -0.086 HD
ENDROOT
BRANCH   1  16
ATOM     15  N   UNL     1       4.155  -5.903   6.282  0.00  0.00    -0.315 N 
ATOM     16  C   UNL     1       3.313  -6.603   7.067  0.00  0.00    +0.218 C 
ATOM     17  O   UNL     1       2.488  -6.023   7.740  0.00  0.00    -0.275 OA
ATOM     18  H   UNL     1       4.815  -6.367   5.743  0.00  0.00    +0.149 HD
BRANCH  15  19
ATOM     19  C   UNL     1       4.074  -4.441   6.242  0.00  0.00    +0.107 C 
BRANCH  19  23
ATOM     20  N   UNL     1       7.388  -2.133   4.836  0.00  0.00    +0.380 N 
ATOM     21  C   UNL     1       6.080  -1.834   4.242  0.00  0.00    -0.079 C 
ATOM     22  C   UNL     1       4.969  -2.381   5.141  0.00  0.00    -0.014 C 
ATOM     23  C   UNL     1       5.133  -3.897   5.280  0.00  0.00    +0.003 C 
ATOM     24  C   UNL     1       6.529  -4.202   5.831  0.00  0.00    -0.014 C 
ATOM     25  C   UNL     1       7.582  -3.587   4.906  0.00  0.00    -0.079 C 
ATOM     26  H   UNL     1       7.430  -1.744   5.766  0.00  0.00    -0.082 HD
BRANCH  20  27
ATOM     27  C   UNL     1       8.447  -1.539   4.010  0.00  0.00    -0.079 C 
BRANCH  27  28
ATOM     28  C   UNL     1       8.320  -0.014   4.037  0.00  0.00    -0.019 C 
BRANCH  28  30
ATOM     29  C   UNL     1       9.296   2.130   3.204  0.00  0.00    +0.004 C 
ATOM     30  C   UNL     1       9.423   0.605   3.177  0.00  0.00    -0.005 C 
ENDBRANCH  28  30
ENDBRANCH  27  28
ENDBRANCH  20  27
ENDBRANCH  19  23
ENDBRANCH  15  19
ENDBRANCH   1  16
BRANCH  11  31
ATOM     31  C   UNL     1       0.608 -11.376   7.330  0.00  0.00    +0.072 C 
ATOM     32  C   UNL     1      -0.546 -10.398   7.563  0.00  0.00    +0.017 C 
BRANCH  31  33
ATOM     33  C   UNL     1       0.111 -12.809   7.536  0.00  0.00    +0.012 C 
BRANCH  33  34
ATOM     34  C   UNL     1      -0.928 -13.147   6.466  0.00  0.00    -0.003 C 
ATOM     35  C   UNL     1      -1.425 -14.580   6.671  0.00  0.00    +0.004 C 
ENDBRANCH  33  34
ENDBRANCH  31  33
ENDBRANCH  11  31
TORSDOF 9
