REMARK  Name = ZINC40109165
REMARK  10 active torsions:
REMARK  status: ('A' for Active; 'I' for Inactive)
REMARK    1  A    between atoms: C_1  and  C_2
REMARK    2  A    between atoms: C_5  and  C_8
REMARK    3  A    between atoms: C_8  and  O_9
REMARK    4  A    between atoms: O_9  and  C_10
REMARK    5  A    between atoms: C_14  and  C_16
REMARK    6  A    between atoms: C_16  and  C_18
REMARK    7  A    between atoms: N_22  and  C_35
REMARK    8  A    between atoms: C_23  and  C_25
REMARK    9  A    between atoms: C_35  and  C_36
REMARK   10  A    between atoms: C_36  and  O_37
REMARK                            x       y       z     vdW  Elec       q    Type
REMARK                         _______ _______ _______ _____ _____    ______ ____
ROOT
ATOM      1  C   UNL     1       4.731 -10.368  -0.150  0.00  0.00    +0.076 C 
ATOM      2  C   UNL     1       5.825 -11.129   0.087  0.00  0.00    +0.249 C 
ATOM      3  C   UNL     1       5.427 -12.552   0.127  0.00  0.00    +0.288 C 
ATOM      4  O   UNL     1       6.184 -13.482   0.321  0.00  0.00    -0.266 OA
ATOM      5  N   UNL     1       4.103 -12.664  -0.084  0.00  0.00    -0.281 N 
ATOM      6  C   UNL     1       3.558 -11.314  -0.267  0.00  0.00    +0.145 C 
ATOM      7  O   UNL     1       7.082 -10.661   0.260  0.00  0.00    -0.282 OA
ENDROOT
BRANCH   6   8
ATOM      8  C   UNL     1       2.540 -11.012   0.802  0.00  0.00    -0.015 A 
ATOM      9  C   UNL     1       2.855 -11.185   2.115  0.00  0.00    +0.006 A 
ATOM     10  C   UNL     1       1.927 -10.912   3.118  0.00  0.00    +0.001 A 
ATOM     11  C   UNL     1       0.678 -10.465   2.813  0.00  0.00    +0.008 A 
ATOM     12  C   UNL     1       0.316 -10.275   1.469  0.00  0.00    -0.018 A 
ATOM     13  C   UNL     1       1.262 -10.547   0.449  0.00  0.00    -0.013 A 
ATOM     14  C   UNL     1       0.902 -10.351  -0.895  0.00  0.00    +0.009 A 
ATOM     15  C   UNL     1      -0.345  -9.898  -1.199  0.00  0.00    +0.001 A 
ATOM     16  C   UNL     1      -1.273  -9.625  -0.196  0.00  0.00    +0.001 A 
ATOM     17  C   UNL     1      -0.964  -9.815   1.115  0.00  0.00    +0.008 A 
ENDBRANCH   6   8
BRANCH   1  18
ATOM     18  C   UNL     1       4.690  -8.907  -0.264  0.00  0.00    +0.195 C 
ATOM     19  O   UNL     1       4.930  -8.214   0.706  0.00  0.00    -0.287 OA
BRANCH  18  24
ATOM     20  C   UNL     1       3.933  -6.304  -2.870  0.00  0.00    +0.122 A 
ATOM     21  C   UNL     1       3.731  -7.098  -3.991  0.00  0.00    +0.046 A 
ATOM     22  C   UNL     1       3.840  -8.474  -3.899  0.00  0.00    +0.004 A 
ATOM     23  C   UNL     1       4.151  -9.066  -2.692  0.00  0.00    +0.012 A 
ATOM     24  C   UNL     1       4.356  -8.276  -1.559  0.00  0.00    +0.026 A 
ATOM     25  C   UNL     1       4.252  -6.887  -1.656  0.00  0.00    +0.057 A 
BRANCH  20  26
ATOM     26  O   UNL     1       3.824  -4.953  -2.967  0.00  0.00    -0.487 OA
BRANCH  26  27
ATOM     27  C   UNL     1       3.493  -4.419  -4.250  0.00  0.00    +0.264 C 
BRANCH  27  32
ATOM     28  C   UNL     1       3.199   1.343  -3.925  0.00  0.00    +0.044 C 
ATOM     29  C   UNL     1       3.276  -0.159  -4.010  0.00  0.00    -0.050 A 
ATOM     30  C   UNL     1       4.475  -0.774  -4.317  0.00  0.00    +0.004 A 
ATOM     31  C   UNL     1       4.546  -2.152  -4.394  0.00  0.00    +0.007 A 
ATOM     32  C   UNL     1       3.417  -2.916  -4.165  0.00  0.00    -0.010 A 
ATOM     33  C   UNL     1       2.217  -2.302  -3.857  0.00  0.00    +0.007 A 
ATOM     34  C   UNL     1       2.148  -0.923  -3.775  0.00  0.00    +0.004 A 
ENDBRANCH  27  32
ENDBRANCH  26  27
ENDBRANCH  20  26
ENDBRANCH  18  24
ENDBRANCH   1  18
BRANCH   5  35
ATOM     35  C   UNL     1       3.339 -13.914  -0.118  0.00  0.00    +0.137 C 
BRANCH  35  36
ATOM     36  C   UNL     1       2.984 -14.335   1.310  0.00  0.00    +0.175 C 
BRANCH  36  37
ATOM     37  O   UNL     1       1.949 -13.488   1.813  0.00  0.00    -0.393 OA
ATOM     38  H   UNL     1       1.713 -13.660   2.735  0.00  0.00    +0.209 HD
ENDBRANCH  36  37
ENDBRANCH  35  36
ENDBRANCH   5  35
TORSDOF 9
