REMARK  Name = ZINC19790747
REMARK  10 active torsions:
REMARK  status: ('A' for Active; 'I' for Inactive)
REMARK    1  A    between atoms: N_13  and  C_16
REMARK    2  A    between atoms: C_16  and  C_17
REMARK    3  A    between atoms: C_17  and  N_18
REMARK    4  A    between atoms: N_21  and  C_24
REMARK    5  A    between atoms: C_24  and  C_25
REMARK    6  A    between atoms: C_25  and  C_27
REMARK    7  A    between atoms: C_25  and  O_39
REMARK    8  A    between atoms: C_27  and  O_28
REMARK    9  A    between atoms: O_28  and  C_29
REMARK   10  A    between atoms: C_29  and  C_30
REMARK                            x       y       z     vdW  Elec       q    Type
REMARK                         _______ _______ _______ _____ _____    ______ ____
ROOT
ATOM      1  N   UNL     1      12.396  -4.016  -1.385  0.00  0.00    +0.382 N 
ATOM      2  C   UNL     1      12.820  -2.712  -0.857  0.00  0.00    -0.063 C 
ATOM      3  C   UNL     1      11.954  -2.348   0.352  0.00  0.00    +0.066 C 
ATOM      4  N   UNL     1      10.542  -2.316  -0.053  0.00  0.00    -0.303 NA
ATOM      5  C   UNL     1      10.118  -3.620  -0.581  0.00  0.00    +0.066 C 
ATOM      6  C   UNL     1      10.984  -3.983  -1.790  0.00  0.00    -0.063 C 
ATOM      7  H   UNL     1      12.502  -4.759  -0.581  0.00  0.00    -0.082 HD
ENDROOT
BRANCH   1   8
ATOM      8  C   UNL     1      13.254  -4.436  -2.502  0.00  0.00    -0.059 C 
BRANCH   8   9
ATOM      9  C   UNL     1      12.641  -5.661  -3.183  0.00  0.00    +0.098 C 
BRANCH   9  22
ATOM     10  C   UNL     1      17.183  -8.721  -6.018  0.00  0.00    +0.001 A 
ATOM     11  C   UNL     1      16.997  -8.223  -7.276  0.00  0.00    +0.008 A 
ATOM     12  C   UNL     1      15.972  -7.293  -7.519  0.00  0.00    -0.016 A 
ATOM     13  C   UNL     1      15.740  -6.751  -8.795  0.00  0.00    +0.008 A 
ATOM     14  C   UNL     1      14.731  -5.850  -8.982  0.00  0.00    +0.001 A 
ATOM     15  C   UNL     1      13.913  -5.445  -7.934  0.00  0.00    +0.014 A 
ATOM     16  C   UNL     1      14.110  -5.955  -6.660  0.00  0.00    +0.046 A 
ATOM     17  C   UNL     1      15.149  -6.889  -6.447  0.00  0.00    +0.006 A 
ATOM     18  C   UNL     1      15.356  -7.416  -5.152  0.00  0.00    +0.046 A 
ATOM     19  C   UNL     1      16.378  -8.332  -4.954  0.00  0.00    +0.014 A 
ATOM     20  C   UNL     1      14.477  -6.972  -4.060  0.00  0.00    +0.254 C 
ATOM     21  O   UNL     1      14.637  -7.412  -2.938  0.00  0.00    -0.270 OA
ATOM     22  N   UNL     1      13.496  -6.080  -4.296  0.00  0.00    -0.236 N 
ATOM     23  C   UNL     1      13.269  -5.562  -5.519  0.00  0.00    +0.254 C 
ATOM     24  O   UNL     1      12.367  -4.763  -5.679  0.00  0.00    -0.270 OA
ENDBRANCH   9  22
ENDBRANCH   8   9
ENDBRANCH   1   8
BRANCH   4  25
ATOM     25  C   UNL     1       9.684  -1.896   1.063  0.00  0.00    +0.117 C 
BRANCH  25  26
ATOM     26  C   UNL     1       8.268  -1.633   0.547  0.00  0.00    +0.154 C 
BRANCH  26  27
ATOM     27  O   UNL     1       8.305  -0.600  -0.440  0.00  0.00    -0.388 OA
ATOM     28  H   UNL     1       7.375  -0.272  -0.928  0.00  0.00    +0.210 HD
ENDBRANCH  26  27
BRANCH  26  29
ATOM     29  C   UNL     1       7.375  -1.195   1.710  0.00  0.00    +0.192 C 
BRANCH  29  30
ATOM     30  O   UNL     1       6.028  -1.062   1.252  0.00  0.00    -0.373 OA
BRANCH  30  31
ATOM     31  C   UNL     1       5.107  -0.655   2.265  0.00  0.00    +0.195 C 
BRANCH  31  32
ATOM     32  C   UNL     1       3.725  -0.548   1.674  0.00  0.00    -0.018 A 
ATOM     33  C   UNL     1       2.885  -1.646   1.677  0.00  0.00    +0.010 A 
ATOM     34  C   UNL     1       1.617  -1.553   1.135  0.00  0.00    +0.050 A 
ATOM     35  C   UNL     1       1.183  -0.356   0.589  0.00  0.00    +0.166 A 
ATOM     36  C   UNL     1       2.028   0.751   0.586  0.00  0.00    +0.167 A 
ATOM     37  C   UNL     1       3.298   0.650   1.131  0.00  0.00    +0.055 A 
ATOM     38  O   UNL     1       1.376   1.797  -0.001  0.00  0.00    -0.453 OA
ATOM     39  C   UNL     1      -0.018   1.436   0.010  0.00  0.00    +0.466 C 
ATOM     40  O   UNL     1       0.002  -0.004   0.002  0.00  0.00    -0.453 OA
ENDBRANCH  31  32
ENDBRANCH  30  31
ENDBRANCH  29  30
ENDBRANCH  26  29
ENDBRANCH  25  26
ENDBRANCH   4  25
TORSDOF 10
