REMARK  Name = ZINC39711297
REMARK  11 active torsions:
REMARK  status: ('A' for Active; 'I' for Inactive)
REMARK    1  A    between atoms: C_1  and  C_2
REMARK    2  A    between atoms: C_7  and  N_8
REMARK    3  A    between atoms: N_11  and  C_14
REMARK    4  A    between atoms: C_14  and  C_16
REMARK    5  A    between atoms: C_14  and  C_25
REMARK    6  A    between atoms: N_20  and  C_21
REMARK    7  A    between atoms: C_21  and  C_22
REMARK    8  A    between atoms: C_22  and  O_23
REMARK    9  A    between atoms: O_23  and  C_24
REMARK   10  A    between atoms: C_30  and  O_37
REMARK   11  A    between atoms: O_37  and  C_38
REMARK                            x       y       z     vdW  Elec       q    Type
REMARK                         _______ _______ _______ _____ _____    ______ ____
ROOT
ATOM      1  C   UNL     1       0.074   0.120   6.610  0.00  0.00    +0.142 C 
ENDROOT
BRANCH   1   2
ATOM      2  C   UNL     1       1.282   0.808   7.249  0.00  0.00    +0.123 C 
ATOM      3  C   UNL     1       1.233   0.543   8.741  0.00  0.00    -0.003 C 
ATOM      4  C   UNL     1       2.309  -0.080   9.300  0.00  0.00    -0.003 A 
ATOM      5  C   UNL     1       2.343  -0.373  10.733  0.00  0.00    +0.055 A 
ATOM      6  C   UNL     1       3.439  -0.996  11.249  0.00  0.00    +0.121 A 
ATOM      7  C   UNL     1       4.521  -1.356  10.436  0.00  0.00    +0.047 A 
ATOM      8  C   UNL     1       4.546  -1.110   9.101  0.00  0.00    +0.027 A 
ATOM      9  C   UNL     1       3.462  -0.471   8.471  0.00  0.00    +0.041 A 
ATOM     10  N   UNL     1       3.500  -0.236   7.159  0.00  0.00    -0.284 N 
ATOM     11  C   UNL     1       2.519   0.360   6.504  0.00  0.00    +0.226 C 
ATOM     12  O   UNL     1       2.611   0.547   5.305  0.00  0.00    -0.275 OA
ATOM     13  H   UNL     1       4.285  -0.516   6.662  0.00  0.00    +0.155 HD
BRANCH   6  14
ATOM     14  O   UNL     1       3.483  -1.274  12.579  0.00  0.00    -0.495 OA
ATOM     15  C   UNL     1       4.656  -1.929  13.066  0.00  0.00    +0.277 C 
ENDBRANCH   6  14
ENDBRANCH   1   2
BRANCH   1  19
ATOM     16  N   UNL     1      -1.127   1.491   2.829  0.00  0.00    -0.327 N 
ATOM     17  C   UNL     1      -0.246   2.372   3.611  0.00  0.00    +0.120 C 
ATOM     18  C   UNL     1      -0.324   1.957   5.084  0.00  0.00    +0.104 C 
ATOM     19  N   UNL     1      -0.030   0.522   5.201  0.00  0.00    -0.289 NA
ATOM     20  C   UNL     1      -1.034  -0.287   4.495  0.00  0.00    +0.104 C 
ATOM     21  C   UNL     1      -0.989   0.037   3.003  0.00  0.00    +0.120 C 
BRANCH  16  28
ATOM     22  C   UNL     1      -0.349   1.940   0.131  0.00  0.00    +0.045 C 
ATOM     23  C   UNL     1      -1.738   2.256   0.623  0.00  0.00    -0.029 A 
ATOM     24  C   UNL     1      -2.678   2.775  -0.245  0.00  0.00    +0.006 A 
ATOM     25  C   UNL     1      -3.953   3.065   0.206  0.00  0.00    +0.020 A 
ATOM     26  C   UNL     1      -4.290   2.837   1.528  0.00  0.00    +0.043 A 
ATOM     27  C   UNL     1      -3.354   2.319   2.403  0.00  0.00    +0.043 A 
ATOM     28  C   UNL     1      -2.075   2.021   1.950  0.00  0.00    +0.034 A 
ATOM     29 CL   UNL     1      -5.892   3.203   2.090  0.00  0.00    -0.083 Cl
ENDBRANCH  16  28
ENDBRANCH   1  19
BRANCH   1  30
ATOM     30  C   UNL     1       0.245  -1.375   6.694  0.00  0.00    +0.170 A 
ATOM     31  N   UNL     1       1.050  -2.113   5.968  0.00  0.00    -0.112 NA
ATOM     32  N   UNL     1       0.909  -3.339   6.338  0.00  0.00    -0.023 NA
ATOM     33  N   UNL     1       0.034  -3.402   7.281  0.00  0.00    -0.044 NA
ATOM     34  N   UNL     1      -0.395  -2.212   7.532  0.00  0.00    -0.225 N 
BRANCH  34  35
ATOM     35  C   UNL     1      -1.392  -1.840   8.538  0.00  0.00    +0.175 C 
BRANCH  35  36
ATOM     36  C   UNL     1      -2.788  -1.886   7.913  0.00  0.00    +0.183 C 
BRANCH  36  37
ATOM     37  O   UNL     1      -3.762  -1.524   8.895  0.00  0.00    -0.381 OA
ATOM     38  C   UNL     1      -5.106  -1.535   8.411  0.00  0.00    +0.194 C 
ENDBRANCH  36  37
ENDBRANCH  35  36
ENDBRANCH  34  35
ENDBRANCH   1  30
TORSDOF 8
