REMARK  Name = ZINC43264498
REMARK  8 active torsions:
REMARK  status: ('A' for Active; 'I' for Inactive)
REMARK    1  A    between atoms: C_1  and  C_2
REMARK    2  A    between atoms: C_2  and  C_3
REMARK    3  A    between atoms: C_9  and  O_11
REMARK    4  A    between atoms: O_11  and  C_12
REMARK    5  A    between atoms: C_12  and  C_14
REMARK    6  A    between atoms: C_12  and  C_20
REMARK    7  A    between atoms: C_20  and  C_22
REMARK    8  A    between atoms: C_20  and  N_23
REMARK                            x       y       z     vdW  Elec       q    Type
REMARK                         _______ _______ _______ _____ _____    ______ ____
ROOT
ATOM      1  C   UNL     1      -0.984  -3.736  -0.890  0.00  0.00    +0.141 C 
ENDROOT
BRANCH   1   2
ATOM      2  C   UNL     1      -1.422  -3.577   0.543  0.00  0.00    +0.018 A 
ATOM      3  C   UNL     1      -1.121  -4.345   1.618  0.00  0.00    +0.015 A 
ATOM      4  C   UNL     1      -1.642  -4.005   2.853  0.00  0.00    +0.023 A 
ATOM      5  C   UNL     1      -2.439  -2.912   2.951  0.00  0.00    +0.055 A 
ATOM      6  S   UNL     1      -2.466  -2.322   1.266  0.00  0.00    -0.084 S 
ATOM      7 BR   UNL     1      -3.295  -2.196   4.478  0.00  0.00    -0.043 Br
ENDBRANCH   1   2
BRANCH   1   8
ATOM      8  C   UNL     1      -2.108  -4.387  -1.698  0.00  0.00    -0.044 C 
ATOM      9  C   UNL     1      -3.306  -3.437  -1.761  0.00  0.00    -0.011 C 
BRANCH   8  10
ATOM     10  N   UNL     1      -1.634  -4.668  -3.059  0.00  0.00    +0.382 N 
ATOM     11  H   UNL     1      -0.797  -5.231  -3.014  0.00  0.00    -0.090 HD
ATOM     12  H   UNL     1      -2.348  -5.167  -3.568  0.00  0.00    -0.090 HD
ATOM     13  H   UNL     1      -1.430  -3.799  -3.530  0.00  0.00    -0.090 HD
ENDBRANCH   8  10
ENDBRANCH   1   8
BRANCH   1  14
ATOM     14  O   UNL     1      -0.682  -2.453  -1.441  0.00  0.00    -0.370 OA
BRANCH  14  20
ATOM     15  C   UNL     1       0.755  -0.515  -1.290  0.00  0.00    +0.018 C 
ATOM     16  C   UNL     1       2.207  -0.077  -1.088  0.00  0.00    +0.006 C 
ATOM     17  C   UNL     1       3.076  -0.661  -2.202  0.00  0.00    +0.000 C 
ATOM     18  C   UNL     1       2.995  -2.189  -2.165  0.00  0.00    +0.003 C 
ATOM     19  C   UNL     1       1.544  -2.627  -2.367  0.00  0.00    +0.032 C 
ATOM     20  C   UNL     1       0.674  -2.043  -1.252  0.00  0.00    +0.122 C 
BRANCH  15  22
ATOM     21  C   UNL     1      -0.133   1.595  -0.290  0.00  0.00    +0.004 C 
ATOM     22  C   UNL     1      -0.115   0.069  -0.175  0.00  0.00    +0.003 C 
ENDBRANCH  15  22
ENDBRANCH  14  20
ENDBRANCH   1  14
TORSDOF 6
