REMARK  Name = ZINC36045093
REMARK  9 active torsions:
REMARK  status: ('A' for Active; 'I' for Inactive)
REMARK    1  A    between atoms: C_1  and  C_2
REMARK    2  A    between atoms: C_2  and  C_3
REMARK    3  A    between atoms: C_2  and  N_4
REMARK    4  A    between atoms: N_7  and  C_8
REMARK    5  A    between atoms: N_7  and  C_11
REMARK    6  A    between atoms: C_8  and  C_9
REMARK    7  A    between atoms: C_11  and  C_12
REMARK    8  A    between atoms: C_17  and  C_27
REMARK    9  A    between atoms: N_19  and  C_20
REMARK                            x       y       z     vdW  Elec       q    Type
REMARK                         _______ _______ _______ _____ _____    ______ ____
ROOT
ATOM      1  C   UNL     1      -3.817  -2.628  -2.960  0.00  0.00    +0.237 C 
ATOM      2  O   UNL     1      -3.103  -3.413  -2.371  0.00  0.00    -0.274 OA
ATOM      3  N   UNL     1      -4.399  -2.988  -4.121  0.00  0.00    -0.254 N 
ATOM      4  C   UNL     1      -4.182  -4.256  -4.643  0.00  0.00    +0.207 A 
ATOM      5  N   UNL     1      -3.440  -5.189  -4.100  0.00  0.00    -0.214 NA
ATOM      6  C   UNL     1      -3.461  -6.288  -4.884  0.00  0.00    +0.091 A 
ATOM      7  C   UNL     1      -4.248  -6.023  -5.957  0.00  0.00    +0.122 A 
ATOM      8  N   UNL     1      -4.711  -4.739  -5.803  0.00  0.00    -0.287 N 
ATOM      9  H   UNL     1      -4.970  -2.361  -4.591  0.00  0.00    +0.158 HD
ENDROOT
BRANCH   8  10
ATOM     10  C   UNL     1      -5.565  -4.051  -6.678  0.00  0.00    +0.049 A 
ATOM     11  C   UNL     1      -6.689  -3.403  -6.186  0.00  0.00    +0.029 A 
ATOM     12  C   UNL     1      -7.528  -2.726  -7.049  0.00  0.00    +0.040 A 
ATOM     13  C   UNL     1      -7.249  -2.694  -8.405  0.00  0.00    +0.124 A 
ATOM     14  C   UNL     1      -6.128  -3.341  -8.898  0.00  0.00    +0.040 A 
ATOM     15  C   UNL     1      -5.283  -4.014  -8.037  0.00  0.00    +0.029 A 
ATOM     16  F   UNL     1      -8.072  -2.032  -9.248  0.00  0.00    -0.205 F 
ENDBRANCH   8  10
BRANCH   6  17
ATOM     17  C   UNL     1      -2.747  -7.561  -4.620  0.00  0.00    +0.002 A 
ATOM     18  C   UNL     1      -2.849  -8.620  -5.520  0.00  0.00    +0.010 A 
ATOM     19  C   UNL     1      -2.183  -9.802  -5.269  0.00  0.00    +0.001 A 
ATOM     20  C   UNL     1      -1.414  -9.937  -4.126  0.00  0.00    +0.000 A 
ATOM     21  C   UNL     1      -1.310  -8.889  -3.229  0.00  0.00    +0.001 A 
ATOM     22  C   UNL     1      -1.967  -7.700  -3.473  0.00  0.00    +0.010 A 
ENDBRANCH   6  17
BRANCH   1  23
ATOM     23  C   UNL     1      -4.053  -1.252  -2.393  0.00  0.00    +0.205 C 
BRANCH  23  27
ATOM     24  N   UNL     1      -1.372  -0.511   0.012  0.00  0.00    -0.297 N 
ATOM     25  C   UNL     1      -2.051  -0.643  -1.145  0.00  0.00    +0.303 C 
ATOM     26  O   UNL     1      -1.522  -0.341  -2.197  0.00  0.00    -0.253 OA
ATOM     27  N   UNL     1      -3.315  -1.109  -1.135  0.00  0.00    -0.273 N 
ATOM     28  H   UNL     1      -1.794  -0.752   0.852  0.00  0.00    +0.150 HD
BRANCH  24  30
ATOM     29  C   UNL     1      -0.019   1.526   0.010  0.00  0.00    +0.027 C 
ATOM     30  C   UNL     1       0.002  -0.004   0.002  0.00  0.00    +0.068 C 
ATOM     31  C   UNL     1       0.742  -0.511   1.242  0.00  0.00    +0.027 C 
ENDBRANCH  24  30
BRANCH  27  32
ATOM     32  C   UNL     1      -3.952  -1.473   0.133  0.00  0.00    +0.136 C 
BRANCH  32  33
ATOM     33  C   UNL     1      -4.659  -0.271   0.704  0.00  0.00    -0.016 C 
ATOM     34  C   UNL     1      -5.932  -0.342   1.005  0.00  0.00    +0.005 C 
ENDBRANCH  32  33
ENDBRANCH  27  32
ENDBRANCH  23  27
ENDBRANCH   1  23
TORSDOF 7
