REMARK  Name = ZINC63763511
REMARK  7 active torsions:
REMARK  status: ('A' for Active; 'I' for Inactive)
REMARK    1  A    between atoms: C_1  and  O_2
REMARK    2  A    between atoms: O_2  and  C_3
REMARK    3  A    between atoms: C_6  and  C_23
REMARK    4  A    between atoms: C_8  and  C_9
REMARK    5  A    between atoms: C_9  and  N_10
REMARK    6  A    between atoms: N_13  and  C_16
REMARK    7  A    between atoms: CA_36  and  C_39
REMARK                            x       y       z     vdW  Elec       q    Type
REMARK                         _______ _______ _______ _____ _____    ______ ____
ROOT
ATOM      1  C   UNL     1      -1.284   0.005  -1.756  0.00  0.00    +0.121 A 
ATOM      2  C   UNL     1      -2.481   0.639  -1.455  0.00  0.00    +0.046 A 
ATOM      3  C   UNL     1      -3.587  -0.108  -1.104  0.00  0.00    +0.009 A 
ATOM      4  C   UNL     1      -3.504  -1.487  -1.052  0.00  0.00    -0.028 A 
ATOM      5  C   UNL     1      -2.312  -2.122  -1.350  0.00  0.00    +0.010 A 
ATOM      6  C   UNL     1      -1.204  -1.379  -1.708  0.00  0.00    -0.022 A 
ENDROOT
BRANCH   4   7
ATOM      7  C   UNL     1      -4.713  -2.300  -0.668  0.00  0.00    +0.111 C 
ATOM      8  C   UNL     1      -4.886  -2.283   0.853  0.00  0.00    +0.128 C 
ATOM      9  C   UNL     1      -6.213  -2.976   1.139  0.00  0.00    -0.035 C 
ATOM     10  C   UNL     1      -5.951  -3.943   2.008  0.00  0.00    -0.001 A 
ATOM     11  C   UNL     1      -6.827  -4.888   2.717  0.00  0.00    +0.010 A 
ATOM     12  C   UNL     1      -6.210  -5.776   3.542  0.00  0.00    +0.001 A 
ATOM     13  C   UNL     1      -4.825  -5.816   3.729  0.00  0.00    +0.002 A 
ATOM     14  C   UNL     1      -3.944  -4.981   3.122  0.00  0.00    +0.026 A 
ATOM     15  C   UNL     1      -4.474  -4.000   2.235  0.00  0.00    +0.043 A 
ATOM     16  N   UNL     1      -3.858  -3.060   1.545  0.00  0.00    -0.376 N 
ATOM     17  C   UNL     1      -7.480  -2.589   0.416  0.00  0.00    +0.063 C 
ATOM     18  CA  UNL     1      -7.120  -2.529  -1.079  0.00  0.00    +0.172 C 
ATOM     19  N   UNL     1      -5.918  -1.716  -1.278  0.00  0.00    -0.295 NA
ATOM     20  H   UNL     1      -6.064  -0.771  -0.955  0.00  0.00    +0.123 HD
ATOM     21  H   UNL     1      -2.902  -2.907   1.495  0.00  0.00    +0.160 HD
BRANCH  18  22
ATOM     22  C   UNL     1      -6.865  -3.925  -1.588  0.00  0.00    +0.373 C 
ATOM     23  O   UNL     1      -7.690  -4.802  -1.401  0.00  0.00    -0.245 OA
ATOM     24  OXT UNL     1      -5.832  -4.176  -2.186  0.00  0.00    -0.245 OA
ENDBRANCH  18  22
ENDBRANCH   4   7
BRANCH   1  26
ATOM     25  C   UNL     1      -0.349   2.159  -2.131  0.00  0.00    +0.277 C 
ATOM     26  O   UNL     1      -0.193   0.739  -2.102  0.00  0.00    -0.495 OA
ENDBRANCH   1  26
BRANCH   6  27
ATOM     27  C   UNL     1       0.093  -2.071  -2.040  0.00  0.00    -0.039 C 
BRANCH  27  28
ATOM     28  N   UNL     1       0.305  -2.043  -3.493  0.00  0.00    +0.384 N 
ATOM     29  C   UNL     1      -0.746  -2.828  -4.154  0.00  0.00    -0.059 C 
ATOM     30  C   UNL     1      -0.593  -2.706  -5.674  0.00  0.00    +0.086 C 
ATOM     31  N   UNL     1       0.777  -3.098  -6.038  0.00  0.00    -0.333 N 
ATOM     32  C   UNL     1       1.893  -2.478  -5.307  0.00  0.00    +0.086 C 
ATOM     33  C   UNL     1       1.623  -2.611  -3.804  0.00  0.00    -0.059 C 
ATOM     34  H   UNL     1       0.265  -1.089  -3.820  0.00  0.00    -0.081 HD
BRANCH  31  35
ATOM     35  C   UNL     1       1.012  -4.034  -7.050  0.00  0.00    +0.030 A 
ATOM     36  C   UNL     1      -0.053  -4.693  -7.649  0.00  0.00    +0.026 A 
ATOM     37  C   UNL     1       0.181  -5.616  -8.649  0.00  0.00    +0.040 A 
ATOM     38  C   UNL     1       1.477  -5.885  -9.055  0.00  0.00    +0.124 A 
ATOM     39  C   UNL     1       2.541  -5.229  -8.459  0.00  0.00    +0.040 A 
ATOM     40  C   UNL     1       2.311  -4.301  -7.462  0.00  0.00    +0.026 A 
ATOM     41  F   UNL     1       1.704  -6.788 -10.033  0.00  0.00    -0.205 F 
ENDBRANCH  31  35
ENDBRANCH  27  28
ENDBRANCH   6  27
TORSDOF 6
