REMARK  Name = ZINC29641314
REMARK  12 active torsions:
REMARK  status: ('A' for Active; 'I' for Inactive)
REMARK    1  A    between atoms: C_1  and  O_2
REMARK    2  A    between atoms: O_2  and  C_3
REMARK    3  A    between atoms: C_5  and  O_31
REMARK    4  A    between atoms: C_6  and  C_11
REMARK    5  A    between atoms: C_7  and  O_9
REMARK    6  A    between atoms: O_9  and  C_10
REMARK    7  A    between atoms: N_14  and  C_17
REMARK    8  A    between atoms: C_17  and  C_18
REMARK    9  A    between atoms: N_23  and  C_24
REMARK   10  A    between atoms: C_24  and  C_25
REMARK   11  A    between atoms: C_25  and  C_26
REMARK   12  A    between atoms: O_31  and  C_32
REMARK                            x       y       z     vdW  Elec       q    Type
REMARK                         _______ _______ _______ _____ _____    ______ ____
ROOT
ATOM      1  C   UNL     1      -2.524   3.876   0.046  0.00  0.00    -0.041 C 
ATOM      2  C   UNL     1      -3.082   4.197  -1.101  0.00  0.00    -0.041 C 
ATOM      3  C   UNL     1      -4.386   4.935  -1.199  0.00  0.00    -0.050 C 
ATOM      4  N   UNL     1      -5.100   4.881   0.083  0.00  0.00    +0.388 N 
ATOM      5  C   UNL     1      -4.211   5.299   1.179  0.00  0.00    -0.073 C 
ATOM      6  C   UNL     1      -3.139   4.223   1.373  0.00  0.00    +0.017 C 
ATOM      7  H   UNL     1      -5.411   3.842   0.261  0.00  0.00    -0.081 HD
ENDROOT
BRANCH   1  11
ATOM      8  C   UNL     1       1.181   1.784   0.000  0.00  0.00    +0.127 A 
ATOM      9  C   UNL     1      -0.013   1.076   0.008  0.00  0.00    +0.092 A 
ATOM     10  C   UNL     1      -1.221   1.750   0.017  0.00  0.00    +0.134 A 
ATOM     11  C   UNL     1      -1.238   3.150   0.030  0.00  0.00    +0.061 A 
ATOM     12  C   UNL     1      -0.031   3.859   0.023  0.00  0.00    +0.134 A 
ATOM     13  C   UNL     1       1.171   3.172   0.008  0.00  0.00    +0.092 A 
BRANCH   8  15
ATOM     14  C   UNL     1       3.554   1.907  -0.022  0.00  0.00    +0.277 C 
ATOM     15  O   UNL     1       2.364   1.117  -0.015  0.00  0.00    -0.495 OA
ENDBRANCH   8  15
BRANCH  12  16
ATOM     16  O   UNL     1      -0.039   5.217   0.030  0.00  0.00    -0.494 OA
ATOM     17  C   UNL     1       1.231   5.873   0.022  0.00  0.00    +0.277 C 
ENDBRANCH  12  16
BRANCH  10  18
ATOM     18  O   UNL     1      -2.388   1.055   0.019  0.00  0.00    -0.494 OA
ATOM     19  C   UNL     1      -2.294  -0.371   0.011  0.00  0.00    +0.277 C 
ENDBRANCH  10  18
ENDBRANCH   1  11
BRANCH   4  20
ATOM     20  C   UNL     1      -6.313   5.708   0.045  0.00  0.00    +0.019 C 
BRANCH  20  21
ATOM     21  C   UNL     1      -7.302   5.105  -0.919  0.00  0.00    +0.204 C 
ATOM     22  O   UNL     1      -7.024   4.087  -1.515  0.00  0.00    -0.277 OA
ATOM     23  N   UNL     1      -8.496   5.698  -1.118  0.00  0.00    -0.242 N 
ATOM     24  C   UNL     1      -9.381   5.158  -1.980  0.00  0.00    +0.306 C 
ATOM     25  O   UNL     1      -9.102   4.138  -2.578  0.00  0.00    -0.252 OA
ATOM     26  N   UNL     1     -10.575   5.751  -2.179  0.00  0.00    -0.299 N 
ATOM     27  H   UNL     1      -8.749   6.622  -0.577  0.00  0.00    +0.159 HD
ATOM     28  H   UNL     1     -10.828   6.675  -1.638  0.00  0.00    +0.150 HD
BRANCH  26  29
ATOM     29  C   UNL     1     -11.537   5.164  -3.116  0.00  0.00    +0.111 C 
BRANCH  29  30
ATOM     30  C   UNL     1     -12.800   6.026  -3.155  0.00  0.00    +0.061 C 
BRANCH  30  31
ATOM     31  C   UNL     1     -13.790   5.423  -4.119  0.00  0.00    -0.009 A 
ATOM     32  C   UNL     1     -14.760   4.506  -3.884  0.00  0.00    +0.011 A 
ATOM     33  C   UNL     1     -15.562   4.095  -4.933  0.00  0.00    +0.008 A 
ATOM     34  C   UNL     1     -15.348   4.614  -6.166  0.00  0.00    +0.045 A 
ATOM     35  S   UNL     1     -13.982   5.724  -5.868  0.00  0.00    -0.102 S 
ENDBRANCH  30  31
ENDBRANCH  29  30
ENDBRANCH  26  29
ENDBRANCH  20  21
ENDBRANCH   4  20
TORSDOF 9
