REMARK  Name = ZINC14465049
REMARK  7 active torsions:
REMARK  status: ('A' for Active; 'I' for Inactive)
REMARK    1  A    between atoms: C_1  and  C_2
REMARK    2  A    between atoms: C_2  and  O_3
REMARK    3  A    between atoms: O_3  and  C_4
REMARK    4  A    between atoms: C_7  and  N_10
REMARK    5  A    between atoms: N_10  and  S_11
REMARK    6  A    between atoms: S_11  and  C_14
REMARK    7  A    between atoms: C_27  and  C_30
REMARK                            x       y       z     vdW  Elec       q    Type
REMARK                         _______ _______ _______ _____ _____    ______ ____
ROOT
ATOM      1  C   UNL     1      -0.769   1.857   1.427  0.00  0.00    +0.109 A 
ATOM      2  C   UNL     1      -1.539   0.909   2.077  0.00  0.00    +0.030 A 
ATOM      3  C   UNL     1      -2.202   1.248   3.239  0.00  0.00    +0.025 A 
ATOM      4  C   UNL     1      -2.096   2.536   3.750  0.00  0.00    +0.031 A 
ATOM      5  C   UNL     1      -1.329   3.487   3.102  0.00  0.00    -0.018 A 
ATOM      6  C   UNL     1      -0.660   3.135   1.937  0.00  0.00    +0.034 A 
ATOM      7  C   UNL     1      -1.181   4.899   3.602  0.00  0.00    +0.049 C 
ATOM      8  C   UNL     1      -1.699   5.827   2.511  0.00  0.00    -0.023 C 
ATOM      9  C   UNL     1      -2.943   6.160   2.747  0.00  0.00    -0.030 C 
ATOM     10  C   UNL     1      -3.434   5.509   4.028  0.00  0.00    +0.033 C 
ATOM     11  C   UNL     1      -2.119   5.203   4.785  0.00  0.00    +0.029 C 
ATOM     12  C   UNL     1      -2.286   4.008   5.705  0.00  0.00    +0.105 C 
ATOM     13  N   UNL     1      -2.771   2.858   4.933  0.00  0.00    -0.336 N 
ATOM     14  H   UNL     1      -3.534   2.339   5.232  0.00  0.00    +0.147 HD
ENDROOT
BRANCH  12  15
ATOM     15  C   UNL     1      -0.959   3.668   6.332  0.00  0.00    -0.027 A 
ATOM     16  C   UNL     1      -0.025   2.938   5.621  0.00  0.00    +0.007 A 
ATOM     17  C   UNL     1       1.195   2.631   6.193  0.00  0.00    +0.020 A 
ATOM     18  C   UNL     1       1.477   3.044   7.483  0.00  0.00    +0.041 A 
ATOM     19  C   UNL     1       0.540   3.770   8.197  0.00  0.00    +0.020 A 
ATOM     20  C   UNL     1      -0.677   4.082   7.621  0.00  0.00    +0.007 A 
ATOM     21 CL   UNL     1       3.006   2.652   8.206  0.00  0.00    -0.084 Cl
ENDBRANCH  12  15
BRANCH   1  22
ATOM     22  S   UNL     1       0.081   1.429  -0.056  0.00  0.00    +0.072 S 
ATOM     23  O   UNL     1       0.373   0.041   0.029  0.00  0.00    -0.150 OA
ATOM     24  O   UNL     1       1.093   2.410  -0.241  0.00  0.00    -0.150 OA
BRANCH  22  25
ATOM     25  N   UNL     1      -0.990   1.612  -1.305  0.00  0.00    -0.216 N 
ATOM     26  H   UNL     1      -1.260   0.842  -1.830  0.00  0.00    +0.174 HD
BRANCH  25  30
ATOM     27  C   UNL     1      -2.528   5.383  -2.197  0.00  0.00    +0.121 A 
ATOM     28  C   UNL     1      -1.225   5.064  -2.550  0.00  0.00    +0.047 A 
ATOM     29  C   UNL     1      -0.715   3.815  -2.255  0.00  0.00    +0.028 A 
ATOM     30  C   UNL     1      -1.506   2.878  -1.605  0.00  0.00    +0.048 A 
ATOM     31  C   UNL     1      -2.812   3.196  -1.256  0.00  0.00    +0.028 A 
ATOM     32  C   UNL     1      -3.320   4.447  -1.547  0.00  0.00    +0.047 A 
BRANCH  27  33
ATOM     33  O   UNL     1      -3.030   6.612  -2.489  0.00  0.00    -0.492 OA
BRANCH  33  35
ATOM     34  C   UNL     1      -4.764   8.295  -2.505  0.00  0.00    +0.048 C 
ATOM     35  C   UNL     1      -4.379   6.872  -2.096  0.00  0.00    +0.225 C 
ENDBRANCH  33  35
ENDBRANCH  27  33
ENDBRANCH  25  30
ENDBRANCH  22  25
ENDBRANCH   1  22
TORSDOF 6
