REMARK  Name = ZINC39664183
REMARK  9 active torsions:
REMARK  status: ('A' for Active; 'I' for Inactive)
REMARK    1  A    between atoms: C_1  and  C_2
REMARK    2  A    between atoms: C_6  and  C_7
REMARK    3  A    between atoms: C_11  and  C_20
REMARK    4  A    between atoms: N_22  and  C_23
REMARK    5  A    between atoms: C_23  and  C_24
REMARK    6  A    between atoms: C_24  and  C_26
REMARK    7  A    between atoms: C_24  and  N_34
REMARK    8  A    between atoms: C_29  and  O_32
REMARK    9  A    between atoms: O_32  and  C_33
REMARK                            x       y       z     vdW  Elec       q    Type
REMARK                         _______ _______ _______ _____ _____    ______ ____
ROOT
ATOM      1  C   UNL     1       1.732   0.397   5.166  0.00  0.00    +0.254 C 
ATOM      2  O   UNL     1       0.676   0.962   4.952  0.00  0.00    -0.269 OA
ATOM      3  N   UNL     1       1.769  -0.946   5.277  0.00  0.00    -0.296 N 
ATOM      4  C   UNL     1       0.655  -1.904   5.080  0.00  0.00    +0.121 C 
ATOM      5  C   UNL     1       1.298  -3.105   4.351  0.00  0.00    +0.100 C 
ATOM      6  C   UNL     1       2.791  -3.031   4.714  0.00  0.00    -0.004 C 
ATOM      7  C   UNL     1       2.933  -1.798   5.619  0.00  0.00    +0.115 C 
ATOM      8  C   UNL     1       3.633  -2.852   3.454  0.00  0.00    -0.010 C 
ATOM      9  C   UNL     1       5.116  -2.838   3.835  0.00  0.00    -0.082 C 
ATOM     10  N   UNL     1       5.463  -4.098   4.505  0.00  0.00    +0.379 N 
ATOM     11  C   UNL     1       4.716  -4.218   5.763  0.00  0.00    -0.082 C 
ATOM     12  C   UNL     1       3.216  -4.289   5.464  0.00  0.00    -0.010 C 
ATOM     13  H   UNL     1       5.230  -4.873   3.902  0.00  0.00    -0.086 HD
ATOM     14  H   UNL     1       6.452  -4.112   4.700  0.00  0.00    -0.086 HD
ENDROOT
BRANCH   1  20
ATOM     15  C   UNL     1       2.053   3.458   4.687  0.00  0.00    +0.045 C 
ATOM     16  C   UNL     1       3.168   2.534   5.103  0.00  0.00    -0.031 A 
ATOM     17  C   UNL     1       4.449   2.984   5.314  0.00  0.00    +0.011 A 
ATOM     18  C   UNL     1       5.406   2.099   5.687  0.00  0.00    +0.046 A 
ATOM     19  S   UNL     1       4.598   0.628   5.763  0.00  0.00    -0.092 S 
ATOM     20  C   UNL     1       2.966   1.177   5.301  0.00  0.00    +0.077 A 
ENDBRANCH   1  20
BRANCH   5  21
ATOM     21  C   UNL     1       0.700  -4.398   4.841  0.00  0.00    +0.218 C 
ATOM     22  O   UNL     1       0.213  -4.459   5.951  0.00  0.00    -0.275 OA
ATOM     23  N   UNL     1       0.706  -5.487   4.048  0.00  0.00    -0.316 N 
ATOM     24  H   UNL     1       1.095  -5.439   3.160  0.00  0.00    +0.149 HD
BRANCH  23  25
ATOM     25  C   UNL     1       0.124  -6.744   4.525  0.00  0.00    +0.093 C 
BRANCH  25  26
ATOM     26  C   UNL     1       0.149  -7.778   3.397  0.00  0.00    -0.020 C 
BRANCH  26  27
ATOM     27  C   UNL     1       1.577  -8.119   3.058  0.00  0.00    -0.059 A 
ATOM     28  C   UNL     1       2.277  -9.017   3.843  0.00  0.00    +0.005 A 
ATOM     29  C   UNL     1       3.586  -9.331   3.535  0.00  0.00    +0.046 A 
ATOM     30  C   UNL     1       4.199  -8.744   2.437  0.00  0.00    +0.120 A 
ATOM     31  C   UNL     1       3.495  -7.844   1.651  0.00  0.00    +0.046 A 
ATOM     32  C   UNL     1       2.184  -7.537   1.960  0.00  0.00    +0.005 A 
BRANCH  30  33
ATOM     33  O   UNL     1       5.488  -9.051   2.133  0.00  0.00    -0.495 OA
ATOM     34  C   UNL     1       6.054  -8.409   0.988  0.00  0.00    +0.277 C 
ENDBRANCH  30  33
ENDBRANCH  26  27
BRANCH  26  35
ATOM     35  N   UNL     1      -0.555  -8.992   3.830  0.00  0.00    +0.385 N 
ATOM     36  C   UNL     1      -2.006  -8.716   3.984  0.00  0.00    -0.078 C 
ATOM     37  C   UNL     1      -2.649 -10.121   3.874  0.00  0.00    -0.020 C 
ATOM     38  C   UNL     1      -1.784 -10.813   2.796  0.00  0.00    -0.020 C 
ATOM     39  C   UNL     1      -0.452 -10.039   2.791  0.00  0.00    -0.078 C 
ATOM     40  H   UNL     1      -0.170  -9.326   4.700  0.00  0.00    -0.081 HD
ENDBRANCH  26  35
ENDBRANCH  25  26
ENDBRANCH  23  25
ENDBRANCH   5  21
TORSDOF 7
