REMARK  Name = ZINC11917941
REMARK  7 active torsions:
REMARK  status: ('A' for Active; 'I' for Inactive)
REMARK    1  A    between atoms: C_1  and  C_2
REMARK    2  A    between atoms: C_2  and  C_3
REMARK    3  A    between atoms: C_2  and  C_4
REMARK    4  A    between atoms: C_4  and  C_5
REMARK    5  A    between atoms: C_5  and  C_7
REMARK    6  A    between atoms: C_5  and  N_23
REMARK    7  A    between atoms: N_9  and  C_10
REMARK                            x       y       z     vdW  Elec       q    Type
REMARK                         _______ _______ _______ _____ _____    ______ ____
ROOT
ATOM      1  C   UNL     1      -2.854  -2.370  -0.155  0.00  0.00    +0.238 C 
ATOM      2  O   UNL     1      -3.437  -2.912   0.761  0.00  0.00    -0.273 OA
ATOM      3  N   UNL     1      -3.459  -2.236  -1.352  0.00  0.00    -0.284 N 
ATOM      4  H   UNL     1      -2.971  -1.863  -2.103  0.00  0.00    +0.155 HD
ENDROOT
BRANCH   3   5
ATOM      5  C   UNL     1      -4.793  -2.635  -1.512  0.00  0.00    +0.037 A 
ATOM      6  C   UNL     1      -5.635  -1.922  -2.355  0.00  0.00    +0.027 A 
ATOM      7  C   UNL     1      -6.950  -2.314  -2.514  0.00  0.00    +0.051 A 
ATOM      8  C   UNL     1      -7.433  -3.419  -1.832  0.00  0.00    +0.167 A 
ATOM      9  C   UNL     1      -6.590  -4.137  -0.985  0.00  0.00    +0.169 A 
ATOM     10  C   UNL     1      -5.271  -3.747  -0.832  0.00  0.00    +0.073 A 
ATOM     11  O   UNL     1      -7.298  -5.169  -0.435  0.00  0.00    -0.447 OA
ATOM     12  C   UNL     1      -8.673  -4.839  -0.654  0.00  0.00    +0.254 C 
ATOM     13  O   UNL     1      -8.671  -4.002  -1.814  0.00  0.00    -0.448 OA
ATOM     14  C   UNL     1      -9.513  -6.101  -0.885  0.00  0.00    +0.093 C 
ATOM     15  C   UNL     1     -10.159  -6.380   0.498  0.00  0.00    +0.008 C 
ATOM     16  C   UNL     1     -10.466  -4.957   1.028  0.00  0.00    +0.008 C 
ATOM     17  C   UNL     1      -9.265  -4.109   0.555  0.00  0.00    +0.093 C 
ENDBRANCH   3   5
BRANCH   1  18
ATOM     18  C   UNL     1      -1.455  -1.847   0.045  0.00  0.00    +0.170 C 
BRANCH  18  19
ATOM     19  N   UNL     1      -1.027  -2.113   1.420  0.00  0.00    -0.230 N 
ATOM     20  C   UNL     1      -1.611  -1.542   2.506  0.00  0.00    +0.227 C 
ATOM     21  O   UNL     1      -2.656  -0.929   2.531  0.00  0.00    -0.275 OA
ATOM     22  C   UNL     1      -0.704  -1.823   3.665  0.00  0.00    +0.091 C 
ATOM     23  C   UNL     1      -1.329  -2.058   5.024  0.00  0.00    +0.040 C 
ATOM     24  C   UNL     1      -0.252  -2.654   5.907  0.00  0.00    -0.030 C 
ATOM     25  C   UNL     1       0.837  -3.206   5.463  0.00  0.00    -0.030 C 
ATOM     26  C   UNL     1       1.181  -3.360   3.997  0.00  0.00    +0.040 C 
ATOM     27  C   UNL     1      -0.093  -3.185   3.212  0.00  0.00    +0.091 C 
ATOM     28  C   UNL     1      -0.011  -2.959   1.734  0.00  0.00    +0.227 C 
ATOM     29  O   UNL     1       0.801  -3.435   0.970  0.00  0.00    -0.275 OA
ENDBRANCH  18  19
BRANCH  18  30
ATOM     30  C   UNL     1      -1.432  -0.340  -0.214  0.00  0.00    +0.035 C 
BRANCH  30  32
ATOM     31  C   UNL     1       0.867  -0.421  -1.188  0.00  0.00    +0.007 C 
ATOM     32  C   UNL     1       0.001   0.179  -0.079  0.00  0.00    -0.015 C 
ATOM     33  C   UNL     1       0.004   1.704  -0.199  0.00  0.00    +0.007 C 
ENDBRANCH  30  32
ENDBRANCH  18  30
ENDBRANCH   1  18
TORSDOF 5
