REMARK  Name = ZINC46841081
REMARK  10 active torsions:
REMARK  status: ('A' for Active; 'I' for Inactive)
REMARK    1  A    between atoms: C_1  and  C_2
REMARK    2  A    between atoms: C_7  and  C_10
REMARK    3  A    between atoms: C_14  and  C_17
REMARK    4  A    between atoms: C_17  and  N_18
REMARK    5  A    between atoms: C_19  and  C_21
REMARK    6  A    between atoms: C_21  and  C_23
REMARK    7  A    between atoms: C_21  and  N_26
REMARK    8  A    between atoms: C_23  and  C_24
REMARK    9  A    between atoms: C_23  and  C_25
REMARK   10  A    between atoms: C_27  and  C_29
REMARK                            x       y       z     vdW  Elec       q    Type
REMARK                         _______ _______ _______ _____ _____    ______ ____
ROOT
ATOM      1  N   UNL     1       4.579   4.001  -5.141  0.00  0.00    -0.310 N 
ATOM      2  C   UNL     1       5.194   4.826  -6.011  0.00  0.00    +0.234 C 
ATOM      3  O   UNL     1       5.823   4.367  -6.941  0.00  0.00    -0.274 OA
ATOM      4  H   UNL     1       4.015   4.366  -4.441  0.00  0.00    +0.149 HD
ENDROOT
BRANCH   1   5
ATOM      5  C   UNL     1       4.760   2.551  -5.253  0.00  0.00    +0.141 C 
BRANCH   5  17
ATOM      6  C   UNL     1      -0.182   1.723   0.009  0.00  0.00    +0.039 C 
ATOM      7  C   UNL     1      -0.215   0.193   0.003  0.00  0.00    +0.133 C 
ATOM      8  C   UNL     1       0.499  -0.330  -1.249  0.00  0.00    +0.137 C 
ATOM      9  N   UNL     1       1.931  -0.015  -1.132  0.00  0.00    -0.312 N 
ATOM     10  C   UNL     1       2.623  -0.391   0.112  0.00  0.00    +0.137 C 
ATOM     11  C   UNL     1       1.806   0.135   1.297  0.00  0.00    +0.133 C 
ATOM     12  O   UNL     1       0.450  -0.303   1.167  0.00  0.00    -0.371 OA
ATOM     13  C   UNL     1       2.394  -0.403   2.603  0.00  0.00    +0.039 C 
ATOM     14  C   UNL     1       2.612   0.619  -2.165  0.00  0.00    +0.099 A 
ATOM     15  C   UNL     1       1.967   0.846  -3.377  0.00  0.00    +0.042 A 
ATOM     16  C   UNL     1       2.656   1.477  -4.397  0.00  0.00    +0.010 A 
ATOM     17  C   UNL     1       3.971   1.861  -4.170  0.00  0.00    -0.014 A 
ATOM     18  C   UNL     1       4.548   1.604  -2.943  0.00  0.00    +0.089 A 
ATOM     19  N   UNL     1       3.865   1.004  -1.986  0.00  0.00    -0.349 N 
ATOM     20  H   UNL     1       4.294   0.839  -1.132  0.00  0.00    +0.167 HD
ENDBRANCH   5  17
ENDBRANCH   1   5
BRANCH   2  21
ATOM     21  C   UNL     1       5.102   6.319  -5.827  0.00  0.00    +0.162 C 
BRANCH  21  22
ATOM     22  N   UNL     1       5.275   6.982  -7.122  0.00  0.00    -0.300 N 
ATOM     23  C   UNL     1       4.754   8.208  -7.326  0.00  0.00    +0.250 C 
ATOM     24  O   UNL     1       4.142   8.764  -6.435  0.00  0.00    -0.270 OA
ATOM     25  H   UNL     1       5.764   6.538  -7.832  0.00  0.00    +0.150 HD
BRANCH  23  26
ATOM     26  C   UNL     1       4.928   8.876  -8.630  0.00  0.00    +0.107 A 
ATOM     27  C   UNL     1       3.981   8.698  -9.643  0.00  0.00    +0.138 A 
ATOM     28  C   UNL     1       4.151   9.327 -10.862  0.00  0.00    +0.039 A 
ATOM     29  C   UNL     1       5.255  10.132 -11.081  0.00  0.00    +0.006 A 
ATOM     30  C   UNL     1       6.197  10.313 -10.084  0.00  0.00    +0.039 A 
ATOM     31  C   UNL     1       6.039   9.696  -8.858  0.00  0.00    +0.138 A 
ATOM     32  F   UNL     1       6.957   9.879  -7.884  0.00  0.00    -0.205 F 
ATOM     33  F   UNL     1       2.902   7.912  -9.432  0.00  0.00    -0.205 F 
ENDBRANCH  23  26
ENDBRANCH  21  22
BRANCH  21  34
ATOM     34  C   UNL     1       6.198   6.783  -4.866  0.00  0.00    +0.012 C 
ATOM     35  C   UNL     1       6.166   8.309  -4.754  0.00  0.00    +0.009 C 
ATOM     36  C   UNL     1       5.962   6.165  -3.486  0.00  0.00    +0.009 C 
ENDBRANCH  21  34
ENDBRANCH   2  21
TORSDOF 6
