REMARK  Name = ZINC44360179
REMARK  10 active torsions:
REMARK  status: ('A' for Active; 'I' for Inactive)
REMARK    1  A    between atoms: C_1  and  C_2
REMARK    2  A    between atoms: C_2  and  O_3
REMARK    3  A    between atoms: O_3  and  C_4
REMARK    4  A    between atoms: C_4  and  C_6
REMARK    5  A    between atoms: C_6  and  C_8
REMARK    6  A    between atoms: C_6  and  N_31
REMARK    7  A    between atoms: C_8  and  C_9
REMARK    8  A    between atoms: C_10  and  C_19
REMARK    9  A    between atoms: C_17  and  C_18
REMARK   10  A    between atoms: C_22  and  C_25
REMARK                            x       y       z     vdW  Elec       q    Type
REMARK                         _______ _______ _______ _____ _____    ______ ____
ROOT
ATOM      1  C   UNL     1       3.678  -2.742  -3.606  0.00  0.00    +0.051 A 
ATOM      2  C   UNL     1       4.035  -4.017  -3.927  0.00  0.00    +0.068 A 
ATOM      3  N   UNL     1       4.629  -3.998  -5.131  0.00  0.00    -0.339 N 
ATOM      4  C   UNL     1       4.657  -2.752  -5.580  0.00  0.00    +0.119 A 
ATOM      5  N   UNL     1       4.062  -1.944  -4.646  0.00  0.00    -0.304 N 
ATOM      6  C   UNL     1       3.952  -0.600  -4.864  0.00  0.00    +0.093 A 
ATOM      7  C   UNL     1       4.424  -0.047  -6.001  0.00  0.00    +0.018 A 
ATOM      8  C   UNL     1       5.036  -0.850  -6.979  0.00  0.00    +0.008 A 
ATOM      9  C   UNL     1       5.160  -2.188  -6.771  0.00  0.00    -0.009 A 
ATOM     10  C   UNL     1       5.812  -3.062  -7.811  0.00  0.00    +0.047 C 
ATOM     11  H   UNL     1       4.981  -4.772  -5.597  0.00  0.00    +0.167 HD
ENDROOT
BRANCH   2  12
ATOM     12  C   UNL     1       3.808  -5.220  -3.090  0.00  0.00    +0.000 A 
ATOM     13  C   UNL     1       4.082  -5.181  -1.723  0.00  0.00    +0.010 A 
ATOM     14  C   UNL     1       3.871  -6.298  -0.945  0.00  0.00    +0.009 A 
ATOM     15  C   UNL     1       3.383  -7.468  -1.525  0.00  0.00    -0.018 A 
ATOM     16  C   UNL     1       3.108  -7.508  -2.891  0.00  0.00    +0.009 A 
ATOM     17  C   UNL     1       3.315  -6.389  -3.668  0.00  0.00    +0.010 A 
BRANCH  15  18
ATOM     18  C   UNL     1       3.155  -8.671  -0.688  0.00  0.00    -0.018 A 
ATOM     19  C   UNL     1       3.424  -8.633   0.680  0.00  0.00    +0.008 A 
ATOM     20  C   UNL     1       3.210  -9.755   1.454  0.00  0.00    +0.001 A 
ATOM     21  C   UNL     1       2.731 -10.917   0.876  0.00  0.00    +0.000 A 
ATOM     22  C   UNL     1       2.463 -10.961  -0.481  0.00  0.00    +0.001 A 
ATOM     23  C   UNL     1       2.667  -9.843  -1.264  0.00  0.00    +0.008 A 
ENDBRANCH  15  18
ENDBRANCH   2  12
BRANCH   1  24
ATOM     24  C   UNL     1       2.983  -2.297  -2.345  0.00  0.00    +0.085 C 
BRANCH  24  25
ATOM     25  C   UNL     1       1.468  -2.353  -2.550  0.00  0.00    +0.167 C 
BRANCH  25  26
ATOM     26  N   UNL     1       1.052  -3.748  -2.751  0.00  0.00    -0.318 NA
ATOM     27  H   UNL     1       1.453  -4.126  -3.597  0.00  0.00    +0.119 HD
ATOM     28  H   UNL     1       1.292  -4.316  -1.952  0.00  0.00    +0.119 HD
ENDBRANCH  25  26
BRANCH  25  29
ATOM     29  C   UNL     1       0.775  -1.794  -1.334  0.00  0.00    +0.324 C 
ATOM     30  O   UNL     1       0.314  -2.540  -0.504  0.00  0.00    -0.249 OA
BRANCH  29  31
ATOM     31  O   UNL     1       0.671  -0.465  -1.174  0.00  0.00    -0.464 OA
BRANCH  31  33
ATOM     32  C   UNL     1      -0.019   1.526   0.010  0.00  0.00    +0.048 C 
ATOM     33  C   UNL     1       0.002  -0.004   0.002  0.00  0.00    +0.229 C 
ENDBRANCH  31  33
ENDBRANCH  29  31
ENDBRANCH  25  29
ENDBRANCH  24  25
ENDBRANCH   1  24
TORSDOF 8
