REMARK  Name = ZINC18212518
REMARK  4 active torsions:
REMARK  status: ('A' for Active; 'I' for Inactive)
REMARK    1  A    between atoms: C_1  and  C_2
REMARK    2  A    between atoms: C_2  and  C_4
REMARK    3  A    between atoms: C_2  and  N_14
REMARK    4  A    between atoms: C_15  and  C_17
REMARK                            x       y       z     vdW  Elec       q    Type
REMARK                         _______ _______ _______ _____ _____    ______ ____
ROOT
ATOM      1  N   UNL     1      -0.016   1.344   0.009  0.00  0.00    -0.303 N 
ATOM      2  C   UNL     1       0.002  -0.004   0.002  0.00  0.00    +0.265 C 
ATOM      3  O   UNL     1       1.063  -0.598  -0.011  0.00  0.00    -0.268 OA
ATOM      4  H   UNL     1      -0.863   1.817   0.016  0.00  0.00    +0.150 HD
ENDROOT
BRANCH   2   5
ATOM      5  C   UNL     1      -1.266  -0.760   0.010  0.00  0.00    +0.153 A 
ATOM      6  C   UNL     1      -1.256  -2.231  -0.004  0.00  0.00    +0.020 A 
ATOM      7  C   UNL     1      -0.083  -2.977  -0.015  0.00  0.00    +0.011 A 
ATOM      8  C   UNL     1      -0.155  -4.354  -0.022  0.00  0.00    +0.001 A 
ATOM      9  C   UNL     1      -1.384  -5.001  -0.014  0.00  0.00    +0.001 A 
ATOM     10  C   UNL     1      -2.560  -4.281   0.002  0.00  0.00    +0.014 A 
ATOM     11  C   UNL     1      -2.508  -2.890   0.009  0.00  0.00    +0.050 A 
ATOM     12  C   UNL     1      -3.711  -2.047   0.026  0.00  0.00    +0.272 A 
ATOM     13  O   UNL     1      -4.821  -2.545   0.033  0.00  0.00    -0.266 OA
ATOM     14  N   UNL     1      -3.555  -0.707   0.032  0.00  0.00    -0.242 N 
ATOM     15  H   UNL     1      -4.351  -0.152   0.043  0.00  0.00    +0.192 HD
ATOM     16  N   UNL     1      -2.415  -0.128   0.024  0.00  0.00    -0.166 NA
ENDBRANCH   2   5
BRANCH   1  18
ATOM     17  C   UNL     1       1.759   2.239   1.434  0.00  0.00    +0.033 C 
ATOM     18  C   UNL     1       1.242   2.093   0.001  0.00  0.00    +0.100 C 
BRANCH  18  19
ATOM     19  C   UNL     1       1.009   3.460  -0.590  0.00  0.00    -0.027 A 
ATOM     20  C   UNL     1      -0.145   4.158  -0.288  0.00  0.00    +0.006 A 
ATOM     21  C   UNL     1      -0.349   5.410  -0.830  0.00  0.00    +0.004 A 
ATOM     22  C   UNL     1       0.589   5.970  -1.687  0.00  0.00    -0.044 A 
ATOM     23  C   UNL     1       1.738   5.274  -1.989  0.00  0.00    -0.044 A 
ATOM     24  C   UNL     1       1.944   4.016  -1.438  0.00  0.00    +0.009 A 
ATOM     25  C   UNL     1       2.802   5.823  -2.902  0.00  0.00    +0.035 C 
ATOM     26  C   UNL     1       2.249   6.973  -3.742  0.00  0.00    +0.005 C 
ATOM     27  C   UNL     1       1.569   7.975  -2.801  0.00  0.00    +0.005 C 
ATOM     28  C   UNL     1       0.295   7.334  -2.255  0.00  0.00    +0.035 C 
ENDBRANCH  18  19
ENDBRANCH   1  18
TORSDOF 3
