REMARK  Name = ZINC33254677
REMARK  7 active torsions:
REMARK  status: ('A' for Active; 'I' for Inactive)
REMARK    1  A    between atoms: C_4  and  C_7
REMARK    2  A    between atoms: C_7  and  N_8
REMARK    3  A    between atoms: C_11  and  N_14
REMARK    4  A    between atoms: C_15  and  C_17
REMARK    5  A    between atoms: C_17  and  C_18
REMARK    6  A    between atoms: N_21  and  S_24
REMARK    7  A    between atoms: S_24  and  C_27
REMARK                            x       y       z     vdW  Elec       q    Type
REMARK                         _______ _______ _______ _____ _____    ______ ____
ROOT
ATOM      1  N   UNL     1       0.002  -0.004   0.002  0.00  0.00    -0.313 N 
ATOM      2  C   UNL     1      -1.042  -0.695   0.502  0.00  0.00    +0.214 C 
ATOM      3  O   UNL     1      -1.998  -0.104   0.958  0.00  0.00    -0.276 OA
ATOM      4  H   UNL     1       0.869  -0.540  -0.412  0.00  0.00    +0.149 HD
ENDROOT
BRANCH   1   8
ATOM      5  N   UNL     1       0.679   3.958  -1.262  0.00  0.00    +0.382 N 
ATOM      6  C   UNL     1       1.391   3.521  -0.054  0.00  0.00    -0.077 C 
ATOM      7  C   UNL     1       1.418   1.992  -0.001  0.00  0.00    +0.003 C 
ATOM      8  C   UNL     1      -0.018   1.461   0.010  0.00  0.00    +0.069 C 
ATOM      9  C   UNL     1      -0.751   1.969  -1.234  0.00  0.00    +0.003 C 
ATOM     10  C   UNL     1      -0.716   3.499  -1.251  0.00  0.00    -0.077 C 
ATOM     11  H   UNL     1       1.177   3.498  -2.129  0.00  0.00    -0.081 HD
BRANCH   5  12
ATOM     12  C   UNL     1       0.753   5.417  -1.418  0.00  0.00    -0.043 C 
BRANCH  12  16
ATOM     13  C   UNL     1      -0.722   6.512  -5.274  0.00  0.00    +0.000 A 
ATOM     14  C   UNL     1      -1.587   6.439  -4.199  0.00  0.00    +0.000 A 
ATOM     15  C   UNL     1      -1.110   6.084  -2.951  0.00  0.00    +0.002 A 
ATOM     16  C   UNL     1       0.232   5.803  -2.779  0.00  0.00    -0.064 A 
ATOM     17  C   UNL     1       1.098   5.882  -3.853  0.00  0.00    +0.002 A 
ATOM     18  C   UNL     1       0.620   6.231  -5.102  0.00  0.00    +0.000 A 
ENDBRANCH  12  16
ENDBRANCH   5  12
ENDBRANCH   1   8
BRANCH   2  19
ATOM     19  C   UNL     1      -1.021  -2.202   0.493  0.00  0.00    +0.099 C 
BRANCH  19  20
ATOM     20  C   UNL     1      -2.316  -2.733   1.113  0.00  0.00    +0.000 C 
ATOM     21  C   UNL     1      -2.375  -2.335   2.589  0.00  0.00    +0.021 C 
ATOM     22  C   UNL     1      -3.688  -2.839   3.197  0.00  0.00    +0.110 C 
ATOM     23  N   UNL     1      -3.797  -4.284   2.956  0.00  0.00    -0.177 NA
ATOM     24  C   UNL     1      -3.663  -4.783   1.581  0.00  0.00    +0.110 C 
ATOM     25  C   UNL     1      -2.351  -4.258   0.991  0.00  0.00    +0.021 C 
BRANCH  23  26
ATOM     26  S   UNL     1      -4.066  -5.330   4.211  0.00  0.00    +0.061 S 
ATOM     27  O   UNL     1      -4.688  -4.576   5.243  0.00  0.00    -0.153 OA
ATOM     28  O   UNL     1      -4.664  -6.491   3.651  0.00  0.00    -0.153 OA
BRANCH  26  29
ATOM     29  C   UNL     1      -2.490  -5.822   4.827  0.00  0.00    +0.106 A 
ATOM     30  C   UNL     1      -1.863  -6.939   4.307  0.00  0.00    +0.030 A 
ATOM     31  C   UNL     1      -0.624  -7.322   4.785  0.00  0.00    +0.022 A 
ATOM     32  C   UNL     1      -0.017  -6.594   5.792  0.00  0.00    +0.041 A 
ATOM     33  C   UNL     1      -0.647  -5.479   6.316  0.00  0.00    +0.022 A 
ATOM     34  C   UNL     1      -1.884  -5.094   5.833  0.00  0.00    +0.030 A 
ATOM     35 CL   UNL     1       1.536  -7.078   6.398  0.00  0.00    -0.084 Cl
ENDBRANCH  26  29
ENDBRANCH  23  26
ENDBRANCH  19  20
ENDBRANCH   2  19
TORSDOF 7
