REMARK  Name = ZINC36346803
REMARK  16 active torsions:
REMARK  status: ('A' for Active; 'I' for Inactive)
REMARK    1  A    between atoms: C_1  and  C_2
REMARK    2  A    between atoms: C_5  and  O_8
REMARK    3  A    between atoms: O_8  and  C_9
REMARK    4  A    between atoms: C_10  and  C_21
REMARK    5  A    between atoms: C_11  and  C_15
REMARK    6  A    between atoms: N_13  and  C_14
REMARK    7  A    between atoms: C_21  and  N_22
REMARK    8  A    between atoms: N_22  and  C_23
REMARK    9  A    between atoms: N_22  and  C_30
REMARK   10  A    between atoms: C_23  and  C_24
REMARK   11  A    between atoms: C_30  and  C_31
REMARK   12  A    between atoms: C_31  and  C_33
REMARK   13  A    between atoms: C_31  and  O_38
REMARK   14  A    between atoms: C_33  and  O_34
REMARK   15  A    between atoms: O_34  and  C_35
REMARK   16  A    between atoms: C_35  and  C_36
REMARK                            x       y       z     vdW  Elec       q    Type
REMARK                         _______ _______ _______ _____ _____    ______ ____
ROOT
ATOM      1  C   UNL     1       0.246  -4.828   2.413  0.00  0.00    +0.221 A 
ATOM      2  C   UNL     1       0.055  -6.109   2.006  0.00  0.00    +0.025 A 
ATOM      3  C   UNL     1      -0.680  -6.773   3.006  0.00  0.00    +0.098 A 
ATOM      4  N   UNL     1      -0.919  -5.916   3.975  0.00  0.00    -0.168 NA
ATOM      5  N   UNL     1      -0.342  -4.688   3.629  0.00  0.00    -0.235 N 
ATOM      6  C   UNL     1      -0.370  -3.465   4.435  0.00  0.00    +0.176 C 
ENDROOT
BRANCH   3   7
ATOM      7  C   UNL     1      -1.112  -8.193   2.972  0.00  0.00    +0.002 A 
ATOM      8  C   UNL     1      -0.991  -8.988   4.110  0.00  0.00    +0.010 A 
ATOM      9  C   UNL     1      -1.394 -10.307   4.074  0.00  0.00    +0.001 A 
ATOM     10  C   UNL     1      -1.918 -10.841   2.910  0.00  0.00    +0.000 A 
ATOM     11  C   UNL     1      -2.040 -10.056   1.777  0.00  0.00    +0.001 A 
ATOM     12  C   UNL     1      -1.645  -8.734   1.804  0.00  0.00    +0.010 A 
ENDBRANCH   3   7
BRANCH   1  13
ATOM     13  O   UNL     1       0.911  -3.862   1.729  0.00  0.00    -0.438 OA
BRANCH  13  18
ATOM     14  C   UNL     1      -2.102  -0.335  -1.466  0.00  0.00    +0.044 C 
ATOM     15  C   UNL     1      -1.296  -1.279  -0.611  0.00  0.00    -0.050 A 
ATOM     16  C   UNL     1       0.064  -1.079  -0.455  0.00  0.00    +0.007 A 
ATOM     17  C   UNL     1       0.805  -1.942   0.328  0.00  0.00    +0.046 A 
ATOM     18  C   UNL     1       0.184  -3.011   0.959  0.00  0.00    +0.130 A 
ATOM     19  C   UNL     1      -1.180  -3.209   0.801  0.00  0.00    +0.046 A 
ATOM     20  C   UNL     1      -1.918  -2.340   0.021  0.00  0.00    +0.007 A 
ENDBRANCH  13  18
ENDBRANCH   1  13
BRANCH   2  21
ATOM     21  C   UNL     1       0.544  -6.713   0.715  0.00  0.00    -0.035 C 
BRANCH  21  22
ATOM     22  N   UNL     1       1.946  -7.123   0.865  0.00  0.00    +0.387 N 
ATOM     23  H   UNL     1       2.496  -6.334   1.174  0.00  0.00    -0.081 HD
BRANCH  22  24
ATOM     24  C   UNL     1       2.038  -8.202   1.858  0.00  0.00    -0.042 C 
BRANCH  24  25
ATOM     25  C   UNL     1       3.487  -8.496   2.147  0.00  0.00    -0.064 A 
ATOM     26  C   UNL     1       4.035  -9.708   1.770  0.00  0.00    +0.002 A 
ATOM     27  C   UNL     1       5.364  -9.978   2.035  0.00  0.00    +0.000 A 
ATOM     28  C   UNL     1       6.146  -9.037   2.679  0.00  0.00    +0.000 A 
ATOM     29  C   UNL     1       5.598  -7.825   3.056  0.00  0.00    +0.000 A 
ATOM     30  C   UNL     1       4.270  -7.553   2.786  0.00  0.00    +0.002 A 
ENDBRANCH  24  25
ENDBRANCH  22  24
BRANCH  22  31
ATOM     31  C   UNL     1       2.458  -7.600  -0.426  0.00  0.00    -0.044 C 
BRANCH  31  32
ATOM     32  C   UNL     1       3.988  -7.566  -0.413  0.00  0.00    +0.124 C 
BRANCH  32  33
ATOM     33  O   UNL     1       4.432  -6.227  -0.183  0.00  0.00    -0.391 OA
ATOM     34  H   UNL     1       4.138  -5.595  -0.853  0.00  0.00    +0.210 HD
ENDBRANCH  32  33
BRANCH  32  35
ATOM     35  C   UNL     1       4.521  -8.055  -1.761  0.00  0.00    +0.190 C 
BRANCH  35  36
ATOM     36  O   UNL     1       5.947  -8.134  -1.709  0.00  0.00    -0.365 OA
BRANCH  36  37
ATOM     37  C   UNL     1       6.549  -8.583  -2.925  0.00  0.00    +0.248 C 
BRANCH  37  38
ATOM     38  C   UNL     1       8.011  -8.627  -2.762  0.00  0.00    -0.077 C 
ATOM     39  C   UNL     1       9.177  -8.661  -2.631  0.00  0.00    +0.006 C 
ENDBRANCH  37  38
ENDBRANCH  36  37
ENDBRANCH  35  36
ENDBRANCH  32  35
ENDBRANCH  31  32
ENDBRANCH  22  31
ENDBRANCH  21  22
ENDBRANCH   2  21
TORSDOF 14
