REMARK  Name = ZINC23056067
REMARK  5 active torsions:
REMARK  status: ('A' for Active; 'I' for Inactive)
REMARK    1  A    between atoms: C_1  and  C_2
REMARK    2  A    between atoms: C_2  and  C_4
REMARK    3  A    between atoms: C_2  and  N_13
REMARK    4  A    between atoms: C_14  and  C_16
REMARK    5  A    between atoms: C_18  and  C_22
REMARK                            x       y       z     vdW  Elec       q    Type
REMARK                         _______ _______ _______ _____ _____    ______ ____
ROOT
ATOM      1  N   UNL     1      -1.009  -2.023  -0.887  0.00  0.00    -0.300 N 
ATOM      2  C   UNL     1      -2.065  -2.651  -1.441  0.00  0.00    +0.265 C 
ATOM      3  O   UNL     1      -3.194  -2.273  -1.196  0.00  0.00    -0.268 OA
ATOM      4  H   UNL     1       0.013  -2.365  -1.109  0.00  0.00    +0.150 HD
ENDROOT
BRANCH   2   5
ATOM      5  C   UNL     1      -1.851  -3.801  -2.344  0.00  0.00    +0.147 A 
ATOM      6  C   UNL     1      -2.853  -4.552  -2.993  0.00  0.00    +0.065 A 
ATOM      7  C   UNL     1      -2.185  -5.504  -3.717  0.00  0.00    +0.101 A 
ATOM      8  N   UNL     1      -0.853  -5.305  -3.492  0.00  0.00    -0.273 N 
ATOM      9  H   UNL     1      -0.110  -5.960  -3.971  0.00  0.00    +0.189 HD
ATOM     10  N   UNL     1      -0.686  -4.309  -2.698  0.00  0.00    -0.169 NA
BRANCH   7  11
ATOM     11  C   UNL     1      -2.787  -6.541  -4.573  0.00  0.00    +0.152 A 
ATOM     12  C   UNL     1      -2.108  -7.481  -5.287  0.00  0.00    +0.051 A 
ATOM     13  C   UNL     1      -3.074  -8.259  -5.954  0.00  0.00    +0.042 A 
ATOM     14  C   UNL     1      -4.282  -7.763  -5.619  0.00  0.00    +0.196 A 
ATOM     15  O   UNL     1      -4.105  -6.729  -4.780  0.00  0.00    -0.461 OA
ENDBRANCH   7  11
ENDBRANCH   2   5
BRANCH   1  17
ATOM     16  C   UNL     1      -1.477  -1.392   1.429  0.00  0.00    +0.036 C 
ATOM     17  C   UNL     1      -1.222  -0.883   0.009  0.00  0.00    +0.136 C 
BRANCH  17  18
ATOM     18  C   UNL     1       0.002  -0.004   0.002  0.00  0.00    +0.126 A 
ATOM     19  C   UNL     1      -0.016   1.336   0.009  0.00  0.00    +0.055 A 
ATOM     20  C   UNL     1       1.388   1.764  -0.002  0.00  0.00    +0.020 A 
ATOM     21  C   UNL     1       2.030   3.002  -0.001  0.00  0.00    +0.011 A 
ATOM     22  C   UNL     1       3.396   3.057  -0.013  0.00  0.00    +0.001 A 
ATOM     23  C   UNL     1       4.146   1.889  -0.027  0.00  0.00    +0.004 A 
ATOM     24  C   UNL     1       3.529   0.657  -0.028  0.00  0.00    +0.047 A 
ATOM     25  C   UNL     1       2.142   0.579  -0.015  0.00  0.00    +0.135 A 
ATOM     26  O   UNL     1       1.270  -0.450  -0.013  0.00  0.00    -0.458 OA
ENDBRANCH  17  18
ENDBRANCH   1  17
TORSDOF 4
