REMARK  Name = ZINC04706706
REMARK  5 active torsions:
REMARK  status: ('A' for Active; 'I' for Inactive)
REMARK    1  A    between atoms: C_4  and  N_20
REMARK    2  A    between atoms: C_5  and  N_7
REMARK    3  A    between atoms: N_7  and  C_8
REMARK    4  A    between atoms: C_9  and  C_10
REMARK    5  A    between atoms: C_10  and  C_12
REMARK                            x       y       z     vdW  Elec       q    Type
REMARK                         _______ _______ _______ _____ _____    ______ ____
ROOT
ATOM      1  C   UNL     1      -0.295  -2.737   0.638  0.00  0.00    +0.076 C 
ATOM      2  C   UNL     1      -0.378  -4.038   0.995  0.00  0.00    +0.066 C 
ENDROOT
BRANCH   1   3
ATOM      3  N   UNL     1       0.928  -2.153   0.467  0.00  0.00    -0.319 N 
ATOM      4  H   UNL     1       1.734  -2.689   0.524  0.00  0.00    +0.152 HD
BRANCH   3   9
ATOM      5  C   UNL     1      -0.023   1.372   0.040  0.00  0.00    +0.002 A 
ATOM      6  C   UNL     1       1.196   1.932  -0.296  0.00  0.00    +0.002 A 
ATOM      7  C   UNL     1       2.326   1.140  -0.379  0.00  0.00    +0.034 A 
ATOM      8  C   UNL     1       2.241  -0.216  -0.127  0.00  0.00    +0.147 A 
ATOM      9  C   UNL     1       1.018  -0.782   0.212  0.00  0.00    +0.061 A 
ATOM     10  C   UNL     1      -0.115   0.018   0.294  0.00  0.00    +0.025 A 
BRANCH   8  11
ATOM     11  N   UNL     1       3.451  -1.064  -0.217  0.00  0.00    +0.058 N 
ATOM     12  O   UNL     1       4.516  -0.640   0.167  0.00  0.00    -0.126 OA
ATOM     13  O   UNL     1       3.373  -2.180  -0.675  0.00  0.00    -0.126 OA
ENDBRANCH   8  11
ENDBRANCH   3   9
ENDBRANCH   1   3
BRANCH   2  14
ATOM     14  C   UNL     1       0.790  -4.829   1.063  0.00  0.00    +0.187 C 
ATOM     15  O   UNL     1       1.883  -4.315   0.902  0.00  0.00    -0.287 OA
BRANCH  14  16
ATOM     16  C   UNL     1       0.687  -6.280   1.329  0.00  0.00    +0.023 A 
ATOM     17  C   UNL     1      -0.564  -6.873   1.508  0.00  0.00    +0.013 A 
ATOM     18  C   UNL     1      -0.655  -8.226   1.755  0.00  0.00    +0.022 A 
ATOM     19  C   UNL     1       0.493  -8.998   1.827  0.00  0.00    +0.059 A 
ATOM     20  C   UNL     1       1.738  -8.416   1.651  0.00  0.00    +0.060 A 
ATOM     21  C   UNL     1       1.840  -7.063   1.397  0.00  0.00    +0.033 A 
ATOM     22 CL   UNL     1       3.171  -9.391   1.744  0.00  0.00    -0.082 Cl
ATOM     23 CL   UNL     1       0.371 -10.702   2.139  0.00  0.00    -0.082 Cl
ENDBRANCH  14  16
ENDBRANCH   2  14
TORSDOF 5
