REMARK  Name = ZINC08406693
REMARK  5 active torsions:
REMARK  status: ('A' for Active; 'I' for Inactive)
REMARK    1  A    between atoms: C_3  and  C_9
REMARK    2  A    between atoms: N_10  and  N_11
REMARK    3  A    between atoms: C_12  and  C_14
REMARK    4  A    between atoms: C_15  and  C_25
REMARK    5  A    between atoms: C_25  and  N_26
REMARK                            x       y       z     vdW  Elec       q    Type
REMARK                         _______ _______ _______ _____ _____    ______ ____
ROOT
ATOM      1  C   UNL     1       8.280   2.236  -0.446  0.00  0.00    +0.170 A 
ATOM      2  C   UNL     1       9.527   1.715  -0.246  0.00  0.00    +0.063 A 
ATOM      3  N   UNL     1      10.327   2.743   0.114  0.00  0.00    -0.194 N 
ATOM      4  N   UNL     1       9.526   3.894   0.124  0.00  0.00    -0.058 NA
ATOM      5  N   UNL     1       8.330   3.560  -0.215  0.00  0.00    -0.124 NA
ATOM      6  C   UNL     1      11.691   2.672   0.419  0.00  0.00    +0.240 A 
ATOM      7  C   UNL     1      12.567   3.813   0.701  0.00  0.00    +0.206 A 
ATOM      8  N   UNL     1      13.767   3.359   0.940  0.00  0.00    -0.032 NA
ATOM      9  O   UNL     1      13.727   1.948   0.829  0.00  0.00    -0.239 OA
ATOM     10  N   UNL     1      12.397   1.581   0.506  0.00  0.00    -0.027 NA
ATOM     11  N   UNL     1      12.185   5.150   0.712  0.00  0.00    -0.337 N 
ATOM     12  H   UNL     1      11.265   5.393   0.521  0.00  0.00    +0.144 HD
ATOM     13  H   UNL     1      12.838   5.839   0.910  0.00  0.00    +0.144 HD
ENDROOT
BRANCH   1  15
ATOM     14  N   UNL     1       5.885   2.090  -0.915  0.00  0.00    -0.202 N 
ATOM     15  C   UNL     1       7.083   1.477  -0.853  0.00  0.00    +0.285 C 
ATOM     16  O   UNL     1       7.178   0.297  -1.133  0.00  0.00    -0.267 OA
ATOM     17  H   UNL     1       5.809   3.031  -0.691  0.00  0.00    +0.178 HD
BRANCH  14  19
ATOM     18  C   UNL     1       3.594   1.959  -1.361  0.00  0.00    +0.139 C 
ATOM     19  N   UNL     1       4.748   1.369  -1.302  0.00  0.00    -0.187 NA
BRANCH  18  22
ATOM     20  C   UNL     1       0.038   1.116  -2.215  0.00  0.00    +0.021 A 
ATOM     21  C   UNL     1       1.153   1.832  -1.833  0.00  0.00    +0.012 A 
ATOM     22  C   UNL     1       2.397   1.200  -1.768  0.00  0.00    +0.013 A 
ATOM     23  C   UNL     1       2.502  -0.157  -2.091  0.00  0.00    +0.051 A 
ATOM     24  C   UNL     1       1.378  -0.861  -2.472  0.00  0.00    +0.040 A 
ATOM     25  C   UNL     1       0.148  -0.227  -2.534  0.00  0.00    +0.042 A 
ATOM     26 CL   UNL     1      -1.261  -1.120  -3.013  0.00  0.00    -0.083 Cl
ATOM     27 CL   UNL     1       4.043  -0.953  -2.015  0.00  0.00    -0.083 Cl
ENDBRANCH  18  22
ENDBRANCH  14  19
ENDBRANCH   1  15
BRANCH   2  28
ATOM     28  C   UNL     1       9.932   0.271  -0.396  0.00  0.00    -0.020 C 
BRANCH  28  29
ATOM     29  N   UNL     1      10.231  -0.009  -1.807  0.00  0.00    +0.383 N 
ATOM     30  C   UNL     1      11.472   0.696  -2.217  0.00  0.00    -0.078 C 
ATOM     31  C   UNL     1      11.944  -0.109  -3.454  0.00  0.00    -0.020 C 
ATOM     32  C   UNL     1      11.599  -1.566  -3.071  0.00  0.00    -0.020 C 
ATOM     33  C   UNL     1      10.505  -1.451  -1.993  0.00  0.00    -0.078 C 
ATOM     34  H   UNL     1       9.458   0.276  -2.390  0.00  0.00    -0.081 HD
ENDBRANCH  28  29
ENDBRANCH   2  28
TORSDOF 5
