REMARK  Name = ZINC19740631
REMARK  5 active torsions:
REMARK  status: ('A' for Active; 'I' for Inactive)
REMARK    1  A    between atoms: C_6  and  C_7
REMARK    2  A    between atoms: C_7  and  N_8
REMARK    3  A    between atoms: C_14  and  C_16
REMARK    4  A    between atoms: C_16  and  C_17
REMARK    5  A    between atoms: N_22  and  C_25
REMARK                            x       y       z     vdW  Elec       q    Type
REMARK                         _______ _______ _______ _____ _____    ______ ____
ROOT
ATOM      1  N   UNL     1       7.334  -3.898  -6.332  0.00  0.00    +0.391 N 
ATOM      2  C   UNL     1       8.633  -4.544  -6.585  0.00  0.00    -0.058 C 
ATOM      3  C   UNL     1       9.643  -4.036  -5.555  0.00  0.00    +0.085 C 
ATOM      4  N   UNL     1       9.088  -4.155  -4.210  0.00  0.00    -0.318 N 
ATOM      5  C   UNL     1       7.780  -4.300  -3.973  0.00  0.00    +0.200 C 
ATOM      6  O   UNL     1       7.401  -4.360  -2.823  0.00  0.00    -0.278 OA
ATOM      7  C   UNL     1       6.761  -4.392  -5.073  0.00  0.00    +0.028 C 
ATOM      8  H   UNL     1       9.755  -4.126  -3.335  0.00  0.00    +0.149 HD
ATOM      9  H   UNL     1       7.494  -2.814  -6.240  0.00  0.00    -0.080 HD
ENDROOT
BRANCH   1  10
ATOM     10  C   UNL     1       6.410  -4.117  -7.453  0.00  0.00    -0.042 C 
BRANCH  10  16
ATOM     11  C   UNL     1       6.934  -2.390  -9.188  0.00  0.00    +0.004 A 
ATOM     12  C   UNL     1       7.543  -1.997 -10.364  0.00  0.00    +0.038 A 
ATOM     13  C   UNL     1       8.282  -2.909 -11.099  0.00  0.00    +0.123 A 
ATOM     14  C   UNL     1       8.414  -4.213 -10.651  0.00  0.00    +0.038 A 
ATOM     15  C   UNL     1       7.808  -4.602  -9.471  0.00  0.00    +0.004 A 
ATOM     16  C   UNL     1       7.070  -3.691  -8.739  0.00  0.00    -0.064 A 
ATOM     17  F   UNL     1       8.874  -2.528 -12.251  0.00  0.00    -0.205 F 
ENDBRANCH  10  16
ENDBRANCH   1  10
BRANCH   7  18
ATOM     18  C   UNL     1       5.540  -3.546  -4.705  0.00  0.00    +0.090 C 
BRANCH  18  19
ATOM     19  C   UNL     1       5.959  -2.110  -4.526  0.00  0.00    +0.215 C 
ATOM     20  O   UNL     1       7.098  -1.775  -4.774  0.00  0.00    -0.276 OA
ATOM     21  N   UNL     1       5.068  -1.197  -4.091  0.00  0.00    -0.299 N 
ATOM     22  C   UNL     1       5.456   0.210  -3.910  0.00  0.00    +0.123 C 
ATOM     23  C   UNL     1       5.036   0.653  -2.504  0.00  0.00    +0.103 C 
ATOM     24  N   UNL     1       3.607   0.374  -2.312  0.00  0.00    -0.296 NA
ATOM     25  C   UNL     1       3.332  -1.067  -2.384  0.00  0.00    +0.103 C 
ATOM     26  C   UNL     1       3.681  -1.582  -3.785  0.00  0.00    +0.123 C 
BRANCH  24  27
ATOM     27  C   UNL     1       3.125   0.939  -1.045  0.00  0.00    +0.057 C 
ATOM     28  C   UNL     1       1.636   0.628  -0.880  0.00  0.00    +0.019 C 
ATOM     29  C   UNL     1       1.135   1.216   0.440  0.00  0.00    +0.002 C 
ATOM     30  C   UNL     1       1.341   2.732   0.433  0.00  0.00    +0.000 C 
ATOM     31  C   UNL     1       2.830   3.043   0.269  0.00  0.00    +0.002 C 
ATOM     32  C   UNL     1       3.332   2.455  -1.051  0.00  0.00    +0.019 C 
ENDBRANCH  24  27
ENDBRANCH  18  19
ENDBRANCH   7  18
TORSDOF 5
