REMARK  Name = ZINC58889095
REMARK  10 active torsions:
REMARK  status: ('A' for Active; 'I' for Inactive)
REMARK    1  A    between atoms: C_4  and  C_7
REMARK    2  A    between atoms: C_7  and  C_9
REMARK    3  A    between atoms: C_7  and  O_35
REMARK    4  A    between atoms: C_9  and  C_10
REMARK    5  A    between atoms: C_10  and  C_11
REMARK    6  A    between atoms: N_13  and  N_14
REMARK    7  A    between atoms: C_15  and  C_16
REMARK    8  A    between atoms: C_19  and  O_23
REMARK    9  A    between atoms: O_23  and  C_24
REMARK   10  A    between atoms: C_24  and  C_25
REMARK                            x       y       z     vdW  Elec       q    Type
REMARK                         _______ _______ _______ _____ _____    ______ ____
ROOT
ATOM      1  C   UNL     1       9.333  -4.174   3.446  0.00  0.00    -0.004 A 
ATOM      2  C   UNL     1       9.131  -3.559   2.208  0.00  0.00    +0.013 A 
ATOM      3  C   UNL     1      10.042  -3.746   1.191  0.00  0.00    +0.047 A 
ATOM      4  C   UNL     1      11.160  -4.544   1.395  0.00  0.00    +0.135 A 
ATOM      5  C   UNL     1      11.366  -5.158   2.625  0.00  0.00    +0.060 A 
ATOM      6  C   UNL     1      10.462  -4.971   3.650  0.00  0.00    +0.028 A 
ATOM      7 BR   UNL     1      12.890  -6.244   2.895  0.00  0.00    -0.046 Br
ENDROOT
BRANCH   1   9
ATOM      8  N   UNL     1       7.197  -3.461   4.284  0.00  0.00    -0.188 NA
ATOM      9  C   UNL     1       8.361  -3.977   4.537  0.00  0.00    +0.138 C 
BRANCH   8  12
ATOM     10  C   UNL     1       5.530  -2.864   2.693  0.00  0.00    +0.232 C 
ATOM     11  O   UNL     1       4.944  -2.249   3.559  0.00  0.00    -0.274 OA
ATOM     12  N   UNL     1       6.680  -3.505   2.983  0.00  0.00    -0.207 N 
ATOM     13  H   UNL     1       7.148  -3.997   2.291  0.00  0.00    +0.177 HD
BRANCH  10  14
ATOM     14  C   UNL     1       4.973  -2.911   1.294  0.00  0.00    +0.100 C 
BRANCH  14  15
ATOM     15  C   UNL     1       3.672  -2.109   1.235  0.00  0.00    +0.045 C 
BRANCH  15  16
ATOM     16  C   UNL     1       3.106  -2.157  -0.186  0.00  0.00    +0.145 C 
BRANCH  16  20
ATOM     17  C   UNL     1      -0.334   0.363  -0.437  0.00  0.00    +0.000 A 
ATOM     18  C   UNL     1       0.888   0.813  -0.901  0.00  0.00    +0.000 A 
ATOM     19  C   UNL     1       2.001  -0.002  -0.819  0.00  0.00    +0.006 A 
ATOM     20  C   UNL     1       1.893  -1.268  -0.274  0.00  0.00    -0.019 A 
ATOM     21  C   UNL     1       0.671  -1.718   0.191  0.00  0.00    +0.006 A 
ATOM     22  C   UNL     1      -0.443  -0.903   0.107  0.00  0.00    +0.000 A 
ENDBRANCH  16  20
BRANCH  16  23
ATOM     23  O   UNL     1       2.737  -3.500  -0.506  0.00  0.00    -0.387 OA
ATOM     24  H   UNL     1       2.066  -3.874   0.081  0.00  0.00    +0.210 HD
ENDBRANCH  16  23
ENDBRANCH  15  16
ENDBRANCH  14  15
ENDBRANCH  10  14
ENDBRANCH   8  12
ENDBRANCH   1   9
BRANCH   4  25
ATOM     25  O   UNL     1      12.055  -4.726   0.389  0.00  0.00    -0.486 OA
BRANCH  25  26
ATOM     26  C   UNL     1      11.782  -4.067  -0.849  0.00  0.00    +0.264 C 
BRANCH  26  27
ATOM     27  C   UNL     1      12.875  -4.383  -1.838  0.00  0.00    -0.010 A 
ATOM     28  C   UNL     1      13.998  -3.561  -1.905  0.00  0.00    +0.007 A 
ATOM     29  C   UNL     1      15.002  -3.818  -2.787  0.00  0.00    +0.009 A 
ATOM     30  C   UNL     1      14.909  -4.928  -3.643  0.00  0.00    -0.018 A 
ATOM     31  C   UNL     1      15.926  -5.226  -4.566  0.00  0.00    +0.008 A 
ATOM     32  C   UNL     1      15.802  -6.310  -5.379  0.00  0.00    +0.001 A 
ATOM     33  C   UNL     1      14.678  -7.132  -5.312  0.00  0.00    +0.001 A 
ATOM     34  C   UNL     1      13.674  -6.875  -4.430  0.00  0.00    +0.008 A 
ATOM     35  C   UNL     1      13.767  -5.764  -3.574  0.00  0.00    -0.018 A 
ATOM     36  C   UNL     1      12.752  -5.470  -2.647  0.00  0.00    +0.015 A 
ENDBRANCH  26  27
ENDBRANCH  25  26
ENDBRANCH   4  25
TORSDOF 10
