REMARK  Name = ZINC23214276
REMARK  4 active torsions:
REMARK  status: ('A' for Active; 'I' for Inactive)
REMARK    1  A    between atoms: C_1  and  C_2
REMARK    2  A    between atoms: C_2  and  C_3
REMARK    3  A    between atoms: C_2  and  N_4
REMARK    4  A    between atoms: C_10  and  C_12
REMARK                            x       y       z     vdW  Elec       q    Type
REMARK                         _______ _______ _______ _____ _____    ______ ____
ROOT
ATOM      1  N   UNL     1      -2.779  -6.913   0.741  0.00  0.00    -0.244 N 
ATOM      2  C   UNL     1      -2.004  -5.802   0.535  0.00  0.00    +0.157 A 
ATOM      3  C   UNL     1      -0.733  -6.258   0.194  0.00  0.00    +0.128 A 
ATOM      4  C   UNL     1      -0.773  -7.658   0.202  0.00  0.00    +0.164 A 
ATOM      5  N   UNL     1      -1.979  -8.042   0.525  0.00  0.00    -0.175 NA
ATOM      6  N   UNL     1       0.041  -5.131  -0.018  0.00  0.00    -0.222 NA
ATOM      7  C   UNL     1      -0.766  -4.047   0.205  0.00  0.00    +0.166 A 
ATOM      8  N   UNL     1      -1.971  -4.462   0.527  0.00  0.00    -0.321 N 
ATOM      9  H   UNL     1      -2.877  -3.889   0.771  0.00  0.00    +0.169 HD
ENDROOT
BRANCH   7  10
ATOM     10  C   UNL     1      -0.351  -2.638   0.094  0.00  0.00    +0.144 A 
ATOM     11  N   UNL     1       0.831  -2.132  -0.222  0.00  0.00    -0.241 NA
ATOM     12  C   UNL     1       1.054  -0.828  -0.281  0.00  0.00    +0.052 A 
ATOM     13  C   UNL     1       0.002  -0.004   0.002  0.00  0.00    +0.013 A 
ATOM     14  S   UNL     1      -1.308  -1.148   0.352  0.00  0.00    -0.069 S 
ATOM     15  C   UNL     1      -0.018   1.486   0.010  0.00  0.00    +0.044 C 
ATOM     16  C   UNL     1       1.435   1.988  -0.001  0.00  0.00    +0.006 C 
ATOM     17  C   UNL     1       2.209   1.222  -1.078  0.00  0.00    +0.006 C 
ATOM     18  C   UNL     1       2.410  -0.232  -0.647  0.00  0.00    +0.056 C 
ENDBRANCH   7  10
BRANCH   1  20
ATOM     19  C   UNL     1      -5.008  -7.641   0.044  0.00  0.00    +0.032 C 
ATOM     20  C   UNL     1      -4.194  -6.919   1.120  0.00  0.00    +0.103 C 
ATOM     21  C   UNL     1      -4.361  -7.644   2.457  0.00  0.00    +0.032 C 
ENDBRANCH   1  20
TORSDOF 2
