REMARK  Name = ZINC14474102
REMARK  6 active torsions:
REMARK  status: ('A' for Active; 'I' for Inactive)
REMARK    1  A    between atoms: C_1  and  N_2
REMARK    2  A    between atoms: N_2  and  C_3
REMARK    3  A    between atoms: N_2  and  S_4
REMARK    4  A    between atoms: S_4  and  C_7
REMARK    5  A    between atoms: C_20  and  C_23
REMARK    6  A    between atoms: C_28  and  O_29
REMARK                            x       y       z     vdW  Elec       q    Type
REMARK                         _______ _______ _______ _____ _____    ______ ____
ROOT
ATOM      1  C   UNL     1      -6.386   1.712  -0.651  0.00  0.00    +0.106 A 
ATOM      2  C   UNL     1      -6.034   0.717   0.243  0.00  0.00    +0.030 A 
ATOM      3  C   UNL     1      -4.720   0.572   0.636  0.00  0.00    +0.025 A 
ATOM      4  C   UNL     1      -3.740   1.421   0.137  0.00  0.00    +0.031 A 
ATOM      5  C   UNL     1      -4.106   2.433  -0.758  0.00  0.00    -0.018 A 
ATOM      6  C   UNL     1      -5.420   2.567  -1.148  0.00  0.00    +0.034 A 
ATOM      7  C   UNL     1      -3.037   3.330  -1.248  0.00  0.00    +0.049 C 
ATOM      8  C   UNL     1      -3.137   4.031  -2.554  0.00  0.00    -0.023 C 
ATOM      9  C   UNL     1      -1.915   4.181  -3.050  0.00  0.00    -0.030 C 
ATOM     10  C   UNL     1      -0.887   3.547  -2.109  0.00  0.00    +0.033 C 
ATOM     11  C   UNL     1      -1.735   2.486  -1.396  0.00  0.00    +0.029 C 
ATOM     12  C   UNL     1      -1.331   2.114   0.020  0.00  0.00    +0.108 C 
ATOM     13  N   UNL     1      -2.407   1.232   0.522  0.00  0.00    -0.336 N 
ATOM     14  H   UNL     1      -2.186   0.508   1.129  0.00  0.00    +0.147 HD
ENDROOT
BRANCH  12  15
ATOM     15  C   UNL     1      -0.017   1.377   0.010  0.00  0.00    +0.014 A 
ATOM     16  C   UNL     1       0.002  -0.004   0.002  0.00  0.00    +0.009 A 
ATOM     17  C   UNL     1       1.208  -0.680  -0.013  0.00  0.00    +0.001 A 
ATOM     18  C   UNL     1       2.398   0.024  -0.020  0.00  0.00    +0.004 A 
ATOM     19  C   UNL     1       2.385   1.405  -0.013  0.00  0.00    +0.046 A 
ATOM     20  C   UNL     1       1.176   2.086   0.002  0.00  0.00    +0.122 A 
BRANCH  20  21
ATOM     21  O   UNL     1       1.160   3.445   0.009  0.00  0.00    -0.506 OA
ATOM     22  H   UNL     1       1.164   3.834   0.894  0.00  0.00    +0.292 HD
ENDBRANCH  20  21
ENDBRANCH  12  15
BRANCH   1  23
ATOM     23  S   UNL     1      -8.065   1.889  -1.155  0.00  0.00    +0.060 S 
ATOM     24  O   UNL     1      -8.043   2.547  -2.415  0.00  0.00    -0.153 OA
ATOM     25  O   UNL     1      -8.682   0.623  -0.968  0.00  0.00    -0.153 OA
BRANCH  23  27
ATOM     26  C   UNL     1      -8.784   4.371  -0.357  0.00  0.00    +0.131 C 
ATOM     27  N   UNL     1      -8.789   2.931  -0.091  0.00  0.00    -0.183 NA
ATOM     28  C   UNL     1      -9.434   2.411   1.118  0.00  0.00    +0.131 C 
ENDBRANCH  23  27
ENDBRANCH   1  23
TORSDOF 4
