REMARK  Name = ZINC39667866
REMARK  14 active torsions:
REMARK  status: ('A' for Active; 'I' for Inactive)
REMARK    1  A    between atoms: C_1  and  C_2
REMARK    2  A    between atoms: C_2  and  O_3
REMARK    3  A    between atoms: O_3  and  C_4
REMARK    4  A    between atoms: C_4  and  C_6
REMARK    5  A    between atoms: C_8  and  N_19
REMARK    6  A    between atoms: C_15  and  C_18
REMARK    7  A    between atoms: C_20  and  C_22
REMARK    8  A    between atoms: C_22  and  S_23
REMARK    9  A    between atoms: S_23  and  C_24
REMARK   10  A    between atoms: C_28  and  C_32
REMARK   11  A    between atoms: C_29  and  C_31
REMARK   12  A    between atoms: C_32  and  C_33
REMARK   13  A    between atoms: C_33  and  C_34
REMARK   14  A    between atoms: C_34  and  O_36
REMARK                            x       y       z     vdW  Elec       q    Type
REMARK                         _______ _______ _______ _____ _____    ______ ____
ROOT
ATOM      1  N   UNL     1      -0.687  -1.608  -3.554  0.00  0.00    -0.301 N 
ATOM      2  C   UNL     1      -1.267  -0.486  -4.024  0.00  0.00    +0.224 C 
ATOM      3  O   UNL     1      -0.616   0.309  -4.668  0.00  0.00    -0.275 OA
ATOM      4  H   UNL     1      -1.208  -2.244  -3.038  0.00  0.00    +0.150 HD
ENDROOT
BRANCH   1   6
ATOM      5  C   UNL     1       1.468  -2.353  -2.550  0.00  0.00    +0.155 C 
ATOM      6  C   UNL     1       0.730  -1.867  -3.820  0.00  0.00    +0.153 C 
ATOM      7  S   UNL     1       0.960  -3.365  -4.867  0.00  0.00    -0.106 S 
ATOM      8  C   UNL     1       1.251  -4.545  -3.570  0.00  0.00    -0.012 C 
ATOM      9  C   UNL     1       1.481  -3.859  -2.459  0.00  0.00    -0.044 C 
ATOM     10  C   UNL     1       1.753  -4.574  -1.137  0.00  0.00    +0.033 C 
ATOM     11  C   UNL     1       2.170  -6.015  -1.423  0.00  0.00    +0.008 C 
ATOM     12  C   UNL     1       1.131  -6.677  -2.334  0.00  0.00    -0.009 C 
ATOM     13  C   UNL     1       1.232  -6.041  -3.722  0.00  0.00    +0.045 C 
ATOM     14  C   UNL     1       1.414  -8.178  -2.432  0.00  0.00    +0.008 C 
BRANCH   5  15
ATOM     15  C   UNL     1       0.775  -1.794  -1.334  0.00  0.00    +0.317 C 
ATOM     16  O   UNL     1       0.314  -2.540  -0.504  0.00  0.00    -0.250 OA
BRANCH  15  17
ATOM     17  O   UNL     1       0.671  -0.465  -1.174  0.00  0.00    -0.464 OA
BRANCH  17  19
ATOM     18  C   UNL     1      -0.019   1.526   0.010  0.00  0.00    +0.048 C 
ATOM     19  C   UNL     1       0.002  -0.004   0.002  0.00  0.00    +0.229 C 
ENDBRANCH  17  19
ENDBRANCH  15  17
ENDBRANCH   5  15
ENDBRANCH   1   6
BRANCH   2  20
ATOM     20  C   UNL     1      -2.724  -0.220  -3.749  0.00  0.00    +0.173 C 
BRANCH  20  21
ATOM     21  S   UNL     1      -3.204   1.357  -4.508  0.00  0.00    -0.078 S 
BRANCH  21  22
ATOM     22  C   UNL     1      -4.911   1.523  -4.103  0.00  0.00    +0.170 A 
ATOM     23  N   UNL     1      -5.598   2.617  -4.534  0.00  0.00    -0.302 N 
ATOM     24  C   UNL     1      -6.906   2.751  -4.227  0.00  0.00    +0.256 A 
ATOM     25  O   UNL     1      -7.537   3.724  -4.605  0.00  0.00    -0.267 OA
ATOM     26  C   UNL     1      -7.528   1.746  -3.466  0.00  0.00    +0.038 A 
ATOM     27  C   UNL     1      -6.789   0.671  -3.062  0.00  0.00    +0.049 A 
ATOM     28  N   UNL     1      -5.503   0.582  -3.393  0.00  0.00    -0.228 NA
ATOM     29  C   UNL     1      -7.432  -0.419  -2.244  0.00  0.00    +0.066 C 
ATOM     30  H   UNL     1      -5.149   3.299  -5.058  0.00  0.00    +0.171 HD
BRANCH  26  31
ATOM     31  C   UNL     1      -8.986   1.854  -3.100  0.00  0.00    +0.053 C 
BRANCH  31  32
ATOM     32  C   UNL     1      -9.132   2.696  -1.831  0.00  0.00    +0.125 C 
BRANCH  32  33
ATOM     33  C   UNL     1     -10.590   2.803  -1.466  0.00  0.00    +0.305 C 
ATOM     34  O   UNL     1     -11.426   2.262  -2.150  0.00  0.00    -0.251 OA
BRANCH  33  35
ATOM     35  O   UNL     1     -10.960   3.501  -0.380  0.00  0.00    -0.481 OA
ATOM     36  H   UNL     1     -11.915   3.513  -0.227  0.00  0.00    +0.295 HD
ENDBRANCH  33  35
ENDBRANCH  32  33
ENDBRANCH  31  32
ENDBRANCH  26  31
ENDBRANCH  21  22
ENDBRANCH  20  21
ENDBRANCH   2  20
TORSDOF 11
