REMARK  Name = ZINC62581809
REMARK  13 active torsions:
REMARK  status: ('A' for Active; 'I' for Inactive)
REMARK    1  A    between atoms: C_1  and  N_2
REMARK    2  A    between atoms: N_2  and  C_3
REMARK    3  A    between atoms: N_2  and  C_4
REMARK    4  A    between atoms: C_4  and  C_5
REMARK    5  A    between atoms: C_5  and  C_7
REMARK    6  A    between atoms: C_5  and  O_34
REMARK    7  A    between atoms: C_7  and  O_8
REMARK    8  A    between atoms: O_8  and  C_9
REMARK    9  A    between atoms: C_12  and  N_15
REMARK   10  A    between atoms: N_15  and  C_16
REMARK   11  A    between atoms: C_19  and  S_25
REMARK   12  A    between atoms: C_21  and  N_22
REMARK   13  A    between atoms: S_25  and  N_28
REMARK                            x       y       z     vdW  Elec       q    Type
REMARK                         _______ _______ _______ _____ _____    ______ ____
ROOT
ATOM      1  N   UNL     1      -7.441  -6.584  -1.263  0.00  0.00    -0.313 N 
ATOM      2  H   UNL     1      -8.264  -6.072  -1.217  0.00  0.00    +0.152 HD
ENDROOT
BRANCH   1   6
ATOM      3  C   UNL     1      -3.768  -4.670  -0.787  0.00  0.00    +0.121 A 
ATOM      4  C   UNL     1      -4.940  -3.928  -0.801  0.00  0.00    +0.047 A 
ATOM      5  C   UNL     1      -6.157  -4.561  -0.959  0.00  0.00    +0.027 A 
ATOM      6  C   UNL     1      -6.208  -5.941  -1.104  0.00  0.00    +0.032 A 
ATOM      7  C   UNL     1      -5.034  -6.684  -1.090  0.00  0.00    +0.027 A 
ATOM      8  C   UNL     1      -3.817  -6.048  -0.937  0.00  0.00    +0.047 A 
BRANCH   3   9
ATOM      9  O   UNL     1      -2.570  -4.046  -0.632  0.00  0.00    -0.489 OA
BRANCH   9  10
ATOM     10  C   UNL     1      -2.594  -2.625  -0.483  0.00  0.00    +0.258 C 
BRANCH  10  11
ATOM     11  C   UNL     1      -1.163  -2.105  -0.322  0.00  0.00    +0.135 C 
BRANCH  11  12
ATOM     12  O   UNL     1      -0.610  -2.604   0.898  0.00  0.00    -0.390 OA
ATOM     13  H   UNL     1      -1.100  -2.342   1.689  0.00  0.00    +0.210 HD
ENDBRANCH  11  12
BRANCH  11  14
ATOM     14  C   UNL     1      -1.177  -0.576  -0.287  0.00  0.00    -0.045 C 
BRANCH  14  16
ATOM     15  C   UNL     1       0.886  -0.394  -1.496  0.00  0.00    -0.096 C 
ATOM     16  N   UNL     1       0.202  -0.074  -0.235  0.00  0.00    +0.378 N 
ATOM     17  C   UNL     1       0.188   1.382  -0.042  0.00  0.00    -0.096 C 
ATOM     18  H   UNL     1       0.691  -0.511   0.532  0.00  0.00    -0.083 HD
ENDBRANCH  14  16
ENDBRANCH  11  14
ENDBRANCH  10  11
ENDBRANCH   9  10
ENDBRANCH   3   9
ENDBRANCH   1   6
BRANCH   1  19
ATOM     19  C   UNL     1      -7.486  -7.962  -1.490  0.00  0.00    +0.062 A 
ATOM     20  C   UNL     1      -7.694  -8.450  -2.774  0.00  0.00    +0.027 A 
ATOM     21  C   UNL     1      -7.739  -9.812  -2.994  0.00  0.00    +0.030 A 
ATOM     22  C   UNL     1      -7.577 -10.691  -1.938  0.00  0.00    +0.108 A 
ATOM     23  C   UNL     1      -7.369 -10.208  -0.659  0.00  0.00    +0.063 A 
ATOM     24  C   UNL     1      -7.318  -8.847  -0.432  0.00  0.00    +0.149 A 
BRANCH  24  25
ATOM     25  N   UNL     1      -7.089  -8.331   0.936  0.00  0.00    +0.058 N 
ATOM     26  O   UNL     1      -6.831  -9.097   1.836  0.00  0.00    -0.126 OA
ATOM     27  O   UNL     1      -7.160  -7.144   1.155  0.00  0.00    -0.126 OA
ENDBRANCH  24  25
BRANCH  22  28
ATOM     28  S   UNL     1      -7.635 -12.428  -2.223  0.00  0.00    +0.061 S 
ATOM     29  O   UNL     1      -8.000 -13.031  -0.989  0.00  0.00    -0.153 OA
ATOM     30  O   UNL     1      -8.384 -12.620  -3.415  0.00  0.00    -0.153 OA
BRANCH  28  31
ATOM     31  N   UNL     1      -6.089 -12.923  -2.552  0.00  0.00    -0.177 NA
ATOM     32  C   UNL     1      -5.583 -12.931  -3.931  0.00  0.00    +0.109 C 
ATOM     33  C   UNL     1      -4.277 -12.133  -3.983  0.00  0.00    +0.017 C 
ATOM     34  C   UNL     1      -3.298 -12.698  -2.951  0.00  0.00    +0.003 C 
ATOM     35  C   UNL     1      -3.894 -12.557  -1.549  0.00  0.00    +0.017 C 
ATOM     36  C   UNL     1      -5.195 -13.355  -1.469  0.00  0.00    +0.109 C 
ENDBRANCH  28  31
ENDBRANCH  22  28
ENDBRANCH   1  19
TORSDOF 11
