REMARK  Name = ZINC09828271
REMARK  3 active torsions:
REMARK  status: ('A' for Active; 'I' for Inactive)
REMARK    1  A    between atoms: C_6  and  S_11
REMARK    2  A    between atoms: S_11  and  N_14
REMARK    3  A    between atoms: N_14  and  C_15
REMARK                            x       y       z     vdW  Elec       q    Type
REMARK                         _______ _______ _______ _____ _____    ______ ____
ROOT
ATOM      1  N   UNL     1      -1.200  -0.720   0.010  0.00  0.00    -0.216 N 
ATOM      2  H   UNL     1      -1.307  -1.482   0.601  0.00  0.00    +0.174 HD
ENDROOT
BRANCH   1   3
ATOM      3  C   UNL     1       0.002  -0.004   0.002  0.00  0.00    +0.048 A 
ATOM      4  C   UNL     1      -0.017   1.385   0.010  0.00  0.00    +0.026 A 
ATOM      5  C   UNL     1       1.169   2.091   0.002  0.00  0.00    +0.025 A 
ATOM      6  C   UNL     1       2.381   1.414  -0.013  0.00  0.00    +0.037 A 
ATOM      7  C   UNL     1       2.400   0.025  -0.020  0.00  0.00    -0.024 A 
ATOM      8  C   UNL     1       1.214  -0.682  -0.013  0.00  0.00    +0.030 A 
ATOM      9  C   UNL     1       3.717  -0.706  -0.035  0.00  0.00    +0.046 C 
ATOM     10  C   UNL     1       4.737   0.093  -0.846  0.00  0.00    +0.101 C 
ATOM     11  C   UNL     1       4.730   1.532  -0.403  0.00  0.00    +0.218 C 
ATOM     12  O   UNL     1       5.767   2.160  -0.390  0.00  0.00    -0.275 OA
ATOM     13  N   UNL     1       3.586   2.128  -0.021  0.00  0.00    -0.285 N 
ATOM     14  H   UNL     1       3.595   3.059   0.251  0.00  0.00    +0.155 HD
ENDBRANCH   1   3
BRANCH   1  15
ATOM     15  S   UNL     1      -2.440  -0.267  -0.990  0.00  0.00    +0.072 S 
ATOM     16  O   UNL     1      -3.496  -1.192  -0.772  0.00  0.00    -0.150 OA
ATOM     17  O   UNL     1      -2.607   1.134  -0.822  0.00  0.00    -0.150 OA
BRANCH  15  23
ATOM     18  C   UNL     1      -0.787  -2.255  -7.181  0.00  0.00    +0.001 A 
ATOM     19  C   UNL     1      -1.434  -3.293  -6.512  0.00  0.00    +0.001 A 
ATOM     20  C   UNL     1      -1.870  -3.136  -5.232  0.00  0.00    +0.008 A 
ATOM     21  C   UNL     1      -1.667  -1.912  -4.573  0.00  0.00    -0.016 A 
ATOM     22  C   UNL     1      -2.104  -1.712  -3.252  0.00  0.00    +0.037 A 
ATOM     23  C   UNL     1      -1.890  -0.513  -2.646  0.00  0.00    +0.109 A 
ATOM     24  C   UNL     1      -1.248   0.526  -3.317  0.00  0.00    +0.029 A 
ATOM     25  C   UNL     1      -0.806   0.367  -4.595  0.00  0.00    +0.010 A 
ATOM     26  C   UNL     1      -1.009  -0.857  -5.254  0.00  0.00    -0.018 A 
ATOM     27  C   UNL     1      -0.573  -1.056  -6.575  0.00  0.00    +0.008 A 
ENDBRANCH  15  23
ENDBRANCH   1  15
TORSDOF 3
