REMARK  Name = ZINC39359559
REMARK  3 active torsions:
REMARK  status: ('A' for Active; 'I' for Inactive)
REMARK    1  A    between atoms: C_4  and  C_7
REMARK    2  A    between atoms: C_17  and  C_19
REMARK    3  A    between atoms: C_22  and  C_25
REMARK                            x       y       z     vdW  Elec       q    Type
REMARK                         _______ _______ _______ _____ _____    ______ ____
ROOT
ATOM      1  C   UNL     1       3.648  -0.649  -0.037  0.00  0.00    -0.014 C 
ATOM      2  C   UNL     1       4.861   0.036  -0.144  0.00  0.00    +0.002 A 
ATOM      3  C   UNL     1       4.888   1.444  -0.239  0.00  0.00    +0.025 A 
ATOM      4  C   UNL     1       6.083   2.086  -0.341  0.00  0.00    +0.019 A 
ATOM      5  C   UNL     1       7.286   1.381  -0.354  0.00  0.00    +0.017 A 
ATOM      6  C   UNL     1       7.323   0.023  -0.267  0.00  0.00    +0.025 A 
ATOM      7  C   UNL     1       6.126  -0.707  -0.158  0.00  0.00    +0.041 A 
ATOM      8  N   UNL     1       6.165  -2.041  -0.072  0.00  0.00    -0.284 N 
ATOM      9  C   UNL     1       5.089  -2.796   0.032  0.00  0.00    +0.230 C 
ATOM     10  O   UNL     1       5.200  -4.006   0.107  0.00  0.00    -0.274 OA
ATOM     11  C   UNL     1       3.718  -2.161   0.066  0.00  0.00    +0.152 C 
ATOM     12 BR   UNL     1       6.114   3.973  -0.468  0.00  0.00    -0.050 Br
ATOM     13  H   UNL     1       7.032  -2.477  -0.086  0.00  0.00    +0.155 HD
ENDROOT
BRANCH   1  17
ATOM     14  C   UNL     1      -0.016   1.382   0.011  0.00  0.00    +0.000 A 
ATOM     15  C   UNL     1       0.374   0.640   1.114  0.00  0.00    +0.001 A 
ATOM     16  C   UNL     1       1.576  -0.032   1.108  0.00  0.00    +0.008 A 
ATOM     17  C   UNL     1       2.408   0.038  -0.021  0.00  0.00    -0.020 A 
ATOM     18  C   UNL     1       2.003   0.793  -1.134  0.00  0.00    +0.008 A 
ATOM     19  C   UNL     1       0.797   1.457  -1.108  0.00  0.00    +0.001 A 
ENDBRANCH   1  17
BRANCH  11  20
ATOM     20  C   UNL     1       2.917  -2.740  -1.071  0.00  0.00    +0.055 C 
ATOM     21  N   UNL     1       2.381  -2.067  -2.004  0.00  0.00    -0.194 NA
ATOM     22  N   UNL     1       1.690  -2.829  -2.944  0.00  0.00    -0.258 N 
ATOM     23  C   UNL     1       1.790  -4.248  -2.565  0.00  0.00    +0.160 C 
ATOM     24  C   UNL     1       2.638  -4.212  -1.277  0.00  0.00    +0.085 C 
ATOM     25  H   UNL     1       1.222  -2.483  -3.720  0.00  0.00    +0.169 HD
BRANCH  23  26
ATOM     26  C   UNL     1       0.423  -4.824  -2.295  0.00  0.00    +0.127 A 
ATOM     27  C   UNL     1       0.011  -6.061  -2.626  0.00  0.00    +0.046 A 
ATOM     28  C   UNL     1      -1.329  -6.177  -2.189  0.00  0.00    +0.041 A 
ATOM     29  C   UNL     1      -1.655  -5.004  -1.616  0.00  0.00    +0.195 A 
ATOM     30  O   UNL     1      -0.588  -4.190  -1.679  0.00  0.00    -0.466 OA
ENDBRANCH  23  26
ENDBRANCH  11  20
TORSDOF 3
