REMARK  Name = ZINC63683256
REMARK  5 active torsions:
REMARK  status: ('A' for Active; 'I' for Inactive)
REMARK    1  A    between atoms: C_1  and  C_2
REMARK    2  A    between atoms: C_6  and  N_8
REMARK    3  A    between atoms: C_9  and  S_34
REMARK    4  A    between atoms: C_12  and  O_33
REMARK    5  A    between atoms: C_14  and  C_18
REMARK                            x       y       z     vdW  Elec       q    Type
REMARK                         _______ _______ _______ _____ _____    ______ ____
ROOT
ATOM      1  N   UNL     1       0.132  -2.752   2.491  0.00  0.00    -0.246 N 
ATOM      2  C   UNL     1       0.172  -2.050   3.769  0.00  0.00    +0.208 C 
ATOM      3  N   UNL     1      -0.334  -2.910   4.846  0.00  0.00    -0.264 NA
ATOM      4  C   UNL     1       0.365  -4.205   4.841  0.00  0.00    +0.198 C 
ATOM      5  C   UNL     1      -0.059  -4.979   3.589  0.00  0.00    +0.138 C 
ATOM      6  C   UNL     1       0.041  -4.082   2.386  0.00  0.00    +0.230 C 
ATOM      7  O   UNL     1       0.042  -4.583   1.282  0.00  0.00    -0.275 OA
ATOM      8  H   UNL     1      -0.248  -2.455   5.742  0.00  0.00    +0.127 HD
ENDROOT
BRANCH   5   9
ATOM      9  C   UNL     1       0.859  -6.190   3.404  0.00  0.00    +0.096 C 
ATOM     10  C   UNL     1       0.664  -7.167   4.566  0.00  0.00    +0.124 C 
ATOM     11  C   UNL     1       1.726  -8.247   4.396  0.00  0.00    -0.036 C 
ATOM     12  C   UNL     1       1.084  -9.407   4.396  0.00  0.00    -0.001 A 
ATOM     13  C   UNL     1       1.568 -10.797   4.352  0.00  0.00    +0.010 A 
ATOM     14  C   UNL     1       0.613 -11.764   4.353  0.00  0.00    +0.001 A 
ATOM     15  C   UNL     1      -0.758 -11.492   4.391  0.00  0.00    +0.002 A 
ATOM     16  C   UNL     1      -1.291 -10.245   4.438  0.00  0.00    +0.026 A 
ATOM     17  C   UNL     1      -0.387  -9.144   4.449  0.00  0.00    +0.043 A 
ATOM     18  N   UNL     1      -0.628  -7.849   4.517  0.00  0.00    -0.376 N 
ATOM     19  C   UNL     1       3.179  -7.902   4.177  0.00  0.00    +0.048 C 
ATOM     20  C   UNL     1       3.204  -6.828   3.074  0.00  0.00    +0.085 C 
ATOM     21  N   UNL     1       2.263  -5.751   3.397  0.00  0.00    -0.310 NA
ATOM     22  H   UNL     1       2.393  -4.961   2.782  0.00  0.00    +0.122 HD
ATOM     23  H   UNL     1      -1.497  -7.419   4.529  0.00  0.00    +0.160 HD
ENDBRANCH   5   9
BRANCH   1  29
ATOM     24  C   UNL     1      -2.180  -0.138  -0.972  0.00  0.00    +0.044 C 
ATOM     25  C   UNL     1      -0.918  -0.716  -0.385  0.00  0.00    -0.049 A 
ATOM     26  C   UNL     1       0.297  -0.498  -1.009  0.00  0.00    +0.003 A 
ATOM     27  C   UNL     1       1.457  -1.027  -0.474  0.00  0.00    +0.002 A 
ATOM     28  C   UNL     1       1.406  -1.774   0.686  0.00  0.00    +0.023 A 
ATOM     29  C   UNL     1       0.188  -1.995   1.316  0.00  0.00    +0.039 A 
ATOM     30  C   UNL     1      -0.975  -1.458   0.778  0.00  0.00    +0.027 A 
ENDBRANCH   1  29
BRANCH   4  31
ATOM     31  O   UNL     1       0.011  -4.946   6.011  0.00  0.00    -0.377 OA
ATOM     32  H   UNL     1       0.239  -4.503   6.840  0.00  0.00    +0.211 HD
ENDBRANCH   4  31
BRANCH   2  33
ATOM     33  S   UNL     1       1.883  -1.576   4.139  0.00  0.00    -0.140 S 
ATOM     34  H   UNL     1       1.797  -0.945   5.324  0.00  0.00    +0.105 HD
ENDBRANCH   2  33
TORSDOF 4
