REMARK  Name = ZINC16481256
REMARK  5 active torsions:
REMARK  status: ('A' for Active; 'I' for Inactive)
REMARK    1  A    between atoms: C_1  and  C_2
REMARK    2  A    between atoms: C_10  and  C_12
REMARK    3  A    between atoms: C_12  and  N_13
REMARK    4  A    between atoms: N_16  and  C_19
REMARK    5  A    between atoms: C_24  and  O_25
REMARK                            x       y       z     vdW  Elec       q    Type
REMARK                         _______ _______ _______ _____ _____    ______ ____
ROOT
ATOM      1  N   UNL     1      -1.153  -4.037   4.646  0.00  0.00    -0.294 NA
ATOM      2  C   UNL     1      -2.312  -3.167   4.887  0.00  0.00    +0.103 C 
ATOM      3  C   UNL     1      -3.600  -3.985   4.747  0.00  0.00    +0.120 C 
ATOM      4  N   UNL     1      -3.507  -5.156   5.633  0.00  0.00    -0.325 N 
ATOM      5  C   UNL     1      -2.307  -6.001   5.545  0.00  0.00    +0.120 C 
ATOM      6  C   UNL     1      -1.070  -5.103   5.654  0.00  0.00    +0.103 C 
ENDROOT
BRANCH   4   7
ATOM      7  C   UNL     1      -4.534  -5.458   6.534  0.00  0.00    +0.072 A 
ATOM      8  C   UNL     1      -5.577  -6.287   6.148  0.00  0.00    +0.027 A 
ATOM      9  C   UNL     1      -6.590  -6.585   7.040  0.00  0.00    +0.002 A 
ATOM     10  C   UNL     1      -6.567  -6.057   8.318  0.00  0.00    +0.004 A 
ATOM     11  C   UNL     1      -5.531  -5.230   8.710  0.00  0.00    +0.047 A 
ATOM     12  C   UNL     1      -4.509  -4.931   7.824  0.00  0.00    +0.138 A 
BRANCH  12  13
ATOM     13  O   UNL     1      -3.487  -4.122   8.210  0.00  0.00    -0.505 OA
ATOM     14  H   UNL     1      -3.644  -3.182   8.042  0.00  0.00    +0.292 HD
ENDBRANCH  12  13
ENDBRANCH   4   7
BRANCH   1  15
ATOM     15  C   UNL     1       0.091  -3.257   4.601  0.00  0.00    +0.138 C 
BRANCH  15  25
ATOM     16  C   UNL     1      -0.018   1.503   0.010  0.00  0.00    +0.064 C 
ATOM     17  C   UNL     1       0.002  -0.004   0.002  0.00  0.00    +0.033 A 
ATOM     18  C   UNL     1       0.005  -0.653  -1.162  0.00  0.00    +0.070 A 
ATOM     19  S   UNL     1       0.032  -2.358  -0.630  0.00  0.00    -0.059 S 
ATOM     20  C   UNL     1       0.036  -2.054   1.123  0.00  0.00    +0.158 A 
ATOM     21  N   UNL     1       0.023  -0.686   1.195  0.00  0.00    -0.261 N 
ATOM     22  C   UNL     1       0.027  -0.142   2.448  0.00  0.00    +0.259 A 
ATOM     23  O   UNL     1       0.011   1.071   2.587  0.00  0.00    -0.267 OA
ATOM     24  C   UNL     1       0.049  -0.973   3.568  0.00  0.00    +0.093 A 
ATOM     25  C   UNL     1       0.066  -2.342   3.404  0.00  0.00    +0.037 A 
ATOM     26  N   UNL     1       0.052  -2.840   2.171  0.00  0.00    -0.337 N 
ATOM     27  H   UNL     1       0.065  -3.802   2.045  0.00  0.00    +0.168 HD
ENDBRANCH  15  25
ENDBRANCH   1  15
TORSDOF 4
