REMARK  Name = ZINC05937375
REMARK  2 active torsions:
REMARK  status: ('A' for Active; 'I' for Inactive)
REMARK    1  A    between atoms: C_1  and  C_2
REMARK    2  A    between atoms: C_10  and  C_18
REMARK                            x       y       z     vdW  Elec       q    Type
REMARK                         _______ _______ _______ _____ _____    ______ ____
ROOT
ATOM      1  C   UNL     1       8.797   3.539   0.346  0.00  0.00    +0.044 C 
ATOM      2  C   UNL     1       8.703   2.035   0.334  0.00  0.00    -0.050 A 
ATOM      3  C   UNL     1       9.851   1.269   0.447  0.00  0.00    +0.007 A 
ATOM      4  C   UNL     1       9.779  -0.108   0.437  0.00  0.00    +0.047 A 
ATOM      5  C   UNL     1       8.549  -0.743   0.315  0.00  0.00    +0.138 A 
ATOM      6  C   UNL     1       7.387   0.034   0.201  0.00  0.00    +0.026 A 
ATOM      7  C   UNL     1       7.473   1.424   0.212  0.00  0.00    +0.015 A 
ATOM      8  C   UNL     1       6.083  -0.643   0.071  0.00  0.00    +0.003 A 
ATOM      9  C   UNL     1       4.885   0.047  -0.046  0.00  0.00    +0.038 A 
ATOM     10  C   UNL     1       3.704  -0.683  -0.164  0.00  0.00    +0.074 A 
ATOM     11  N   UNL     1       3.712  -2.012  -0.160  0.00  0.00    -0.232 NA
ATOM     12  C   UNL     1       4.830  -2.713  -0.056  0.00  0.00    +0.130 A 
ATOM     13  C   UNL     1       6.059  -2.055   0.066  0.00  0.00    +0.082 A 
ATOM     14  C   UNL     1       7.332  -2.777   0.191  0.00  0.00    +0.204 A 
ATOM     15  N   UNL     1       7.343  -4.082   0.190  0.00  0.00    -0.369 N 
ATOM     16  O   UNL     1       8.490  -2.094   0.306  0.00  0.00    -0.439 OA
ATOM     17  N   UNL     1       4.784  -4.097  -0.062  0.00  0.00    -0.343 N 
ATOM     18  H   UNL     1       8.296  -4.624   0.283  0.00  0.00    +0.159 HD
ATOM     19  H   UNL     1       5.713  -4.679   0.024  0.00  0.00    +0.144 HD
ATOM     20  H   UNL     1       3.817  -4.614  -0.154  0.00  0.00    +0.144 HD
ATOM     21  H   UNL     1       6.399  -4.640   0.096  0.00  0.00    +0.159 HD
ENDROOT
BRANCH  10  22
ATOM     22  C   UNL     1       2.414   0.036  -0.290  0.00  0.00    +0.004 A 
ATOM     23  C   UNL     1       2.390   1.430  -0.290  0.00  0.00    +0.014 A 
ATOM     24  C   UNL     1       1.189   2.101  -0.407  0.00  0.00    +0.050 A 
ATOM     25  C   UNL     1       0.007   1.387  -0.524  0.00  0.00    +0.162 A 
ATOM     26  C   UNL     1       0.025  -0.002  -0.525  0.00  0.00    +0.163 A 
ATOM     27  C   UNL     1       1.223  -0.682  -0.408  0.00  0.00    +0.059 A 
ATOM     28  O   UNL     1      -1.147  -0.692  -0.640  0.00  0.00    -0.488 OA
ATOM     29  C   UNL     1      -1.807  -0.596  -1.904  0.00  0.00    +0.232 C 
ATOM     30  C   UNL     1      -2.667   0.656  -1.969  0.00  0.00    +0.082 C 
ATOM     31  C   UNL     1      -1.840   1.931  -1.903  0.00  0.00    +0.232 C 
ATOM     32  O   UNL     1      -1.183   2.044  -0.634  0.00  0.00    -0.488 OA
ENDBRANCH  10  22
TORSDOF 1
