REMARK  Name = ZINC66411695
REMARK  5 active torsions:
REMARK  status: ('A' for Active; 'I' for Inactive)
REMARK    1  A    between atoms: C_1  and  C_2
REMARK    2  A    between atoms: C_7  and  S_21
REMARK    3  A    between atoms: N_11  and  C_12
REMARK    4  A    between atoms: C_12  and  C_13
REMARK    5  A    between atoms: S_21  and  N_24
REMARK                            x       y       z     vdW  Elec       q    Type
REMARK                         _______ _______ _______ _____ _____    ______ ____
ROOT
ATOM      1  C   UNL     1      -0.019   1.526   0.010  0.00  0.00    +0.028 C 
ATOM      2  C   UNL     1       0.002  -0.004   0.002  0.00  0.00    +0.075 C 
ATOM      3  C   UNL     1       0.778  -0.520  -1.221  0.00  0.00    +0.059 C 
ATOM      4  C   UNL     1       1.931  -1.304  -0.635  0.00  0.00    -0.023 A 
ATOM      5  C   UNL     1       2.960  -1.995  -1.246  0.00  0.00    +0.034 A 
ATOM      6  C   UNL     1       3.911  -2.644  -0.481  0.00  0.00    +0.105 A 
ATOM      7  C   UNL     1       3.831  -2.599   0.899  0.00  0.00    +0.030 A 
ATOM      8  C   UNL     1       2.807  -1.911   1.513  0.00  0.00    +0.025 A 
ATOM      9  C   UNL     1       1.842  -1.253   0.747  0.00  0.00    +0.034 A 
ATOM     10  N   UNL     1       0.735  -0.509   1.166  0.00  0.00    -0.322 N 
ENDROOT
BRANCH   6  11
ATOM     11  S   UNL     1       5.222  -3.525  -1.262  0.00  0.00    +0.056 S 
ATOM     12  O   UNL     1       5.670  -4.498  -0.329  0.00  0.00    -0.153 OA
ATOM     13  O   UNL     1       4.763  -3.869  -2.561  0.00  0.00    -0.153 OA
BRANCH  11  14
ATOM     14  N   UNL     1       6.473  -2.459  -1.469  0.00  0.00    -0.204 NA
ATOM     15  H   UNL     1       6.381  -1.540  -1.173  0.00  0.00    +0.144 HD
ATOM     16  H   UNL     1       7.297  -2.753  -1.887  0.00  0.00    +0.144 HD
ENDBRANCH  11  14
ENDBRANCH   6  11
BRANCH  10  17
ATOM     17  C   UNL     1       0.363  -0.268   2.562  0.00  0.00    +0.140 C 
BRANCH  17  18
ATOM     18  C   UNL     1      -0.561  -1.363   3.031  0.00  0.00    -0.024 A 
ATOM     19  C   UNL     1      -1.934  -1.243   2.886  0.00  0.00    +0.045 A 
ATOM     20  C   UNL     1      -2.751  -2.268   3.329  0.00  0.00    +0.131 A 
ATOM     21  N   UNL     1      -2.237  -3.349   3.883  0.00  0.00    -0.224 NA
ATOM     22  C   UNL     1      -0.934  -3.497   4.037  0.00  0.00    +0.131 A 
ATOM     23  C   UNL     1      -0.056  -2.515   3.613  0.00  0.00    +0.045 A 
ATOM     24 CL   UNL     1      -0.315  -4.942   4.774  0.00  0.00    -0.062 Cl
ATOM     25 CL   UNL     1      -4.473  -2.130   3.152  0.00  0.00    -0.062 Cl
ENDBRANCH  17  18
ENDBRANCH  10  17
TORSDOF 4
