REMARK  Name = ZINC27100113
REMARK  11 active torsions:
REMARK  status: ('A' for Active; 'I' for Inactive)
REMARK    1  A    between atoms: C_1  and  C_2
REMARK    2  A    between atoms: C_2  and  O_3
REMARK    3  A    between atoms: O_3  and  C_4
REMARK    4  A    between atoms: C_4  and  C_6
REMARK    5  A    between atoms: C_9  and  O_12
REMARK    6  A    between atoms: O_12  and  C_13
REMARK    7  A    between atoms: C_14  and  C_38
REMARK    8  A    between atoms: C_22  and  O_37
REMARK    9  A    between atoms: C_23  and  C_24
REMARK   10  A    between atoms: C_24  and  N_25
REMARK   11  A    between atoms: C_30  and  C_32
REMARK                            x       y       z     vdW  Elec       q    Type
REMARK                         _______ _______ _______ _____ _____    ______ ____
ROOT
ATOM      1  C   UNL     1       5.649   3.564   1.248  0.00  0.00    +0.213 A 
ATOM      2  C   UNL     1       4.972   3.241   2.367  0.00  0.00    +0.148 A 
ATOM      3  O   UNL     1       3.756   2.680   2.341  0.00  0.00    -0.456 OA
ATOM      4  C   UNL     1       3.115   2.395   1.189  0.00  0.00    +0.144 A 
ATOM      5  C   UNL     1       3.729   2.691  -0.042  0.00  0.00    +0.068 A 
ATOM      6  C   UNL     1       5.066   3.308  -0.025  0.00  0.00    +0.235 A 
ATOM      7  O   UNL     1       5.649   3.587  -1.060  0.00  0.00    -0.283 OA
ATOM      8  C   UNL     1       3.076   2.401  -1.241  0.00  0.00    +0.019 A 
ATOM      9  C   UNL     1       1.837   1.828  -1.216  0.00  0.00    +0.046 A 
ATOM     10  C   UNL     1       1.221   1.532  -0.001  0.00  0.00    +0.122 A 
ATOM     11  C   UNL     1       1.854   1.818   1.197  0.00  0.00    +0.020 A 
ATOM     12  C   UNL     1       5.608   3.522   3.704  0.00  0.00    +0.090 C 
ENDROOT
BRANCH  10  13
ATOM     13  O   UNL     1      -0.011   0.963   0.007  0.00  0.00    -0.506 OA
ATOM     14  H   UNL     1      -0.501   0.727   0.963  0.00  0.00    +0.292 HD
ENDBRANCH  10  13
BRANCH   1  15
ATOM     15  O   UNL     1       6.883   4.133   1.334  0.00  0.00    -0.449 OA
BRANCH  15  19
ATOM     16  C   UNL     1       7.111   8.252   1.490  0.00  0.00    +0.059 A 
ATOM     17  C   UNL     1       8.278   7.483   1.527  0.00  0.00    +0.018 A 
ATOM     18  C   UNL     1       8.198   6.110   1.474  0.00  0.00    +0.047 A 
ATOM     19  C   UNL     1       6.958   5.487   1.386  0.00  0.00    +0.129 A 
ATOM     20  C   UNL     1       5.795   6.248   1.344  0.00  0.00    +0.047 A 
ATOM     21  C   UNL     1       5.866   7.621   1.400  0.00  0.00    +0.018 A 
BRANCH  16  22
ATOM     22  C   UNL     1       7.192   9.723   1.546  0.00  0.00    +0.339 C 
ATOM     23  O   UNL     1       8.274  10.269   1.625  0.00  0.00    -0.245 OA
BRANCH  22  24
ATOM     24  O   UNL     1       6.065  10.462   1.511  0.00  0.00    -0.461 OA
BRANCH  24  26
ATOM     25  C   UNL     1       4.844  12.568   1.518  0.00  0.00    +0.048 C 
ATOM     26  C   UNL     1       6.221  11.904   1.570  0.00  0.00    +0.229 C 
ENDBRANCH  24  26
ENDBRANCH  22  24
ENDBRANCH  16  22
ENDBRANCH  15  19
ENDBRANCH   1  15
BRANCH  11  27
ATOM     27  C   UNL     1       1.176   1.499   2.505  0.00  0.00    -0.035 C 
BRANCH  27  28
ATOM     28  N   UNL     1       1.537   0.138   2.924  0.00  0.00    +0.387 N 
ATOM     29  C   UNL     1       0.997  -0.860   1.992  0.00  0.00    -0.077 C 
ATOM     30  C   UNL     1       1.512  -2.249   2.375  0.00  0.00    -0.019 C 
ATOM     31  C   UNL     1       1.076  -2.572   3.807  0.00  0.00    -0.003 C 
ATOM     32  C   UNL     1       1.611  -1.492   4.751  0.00  0.00    -0.010 C 
ATOM     33  C   UNL     1       1.093  -0.124   4.299  0.00  0.00    -0.030 C 
ATOM     34  H   UNL     1       2.634   0.056   2.904  0.00  0.00    -0.080 HD
BRANCH  33  35
ATOM     35  C   UNL     1       1.633   0.945   5.213  0.00  0.00    -0.024 A 
ATOM     36  C   UNL     1       1.023   1.568   6.252  0.00  0.00    +0.009 A 
ATOM     37  C   UNL     1       1.720   2.529   6.959  0.00  0.00    +0.008 A 
ATOM     38  C   UNL     1       2.993   2.820   6.595  0.00  0.00    +0.045 A 
ATOM     39  S   UNL     1       3.244   1.714   5.216  0.00  0.00    -0.103 S 
ENDBRANCH  33  35
ENDBRANCH  27  28
ENDBRANCH  11  27
TORSDOF 9
