REMARK  Name = ZINC39951404
REMARK  7 active torsions:
REMARK  status: ('A' for Active; 'I' for Inactive)
REMARK    1  A    between atoms: C_1  and  C_2
REMARK    2  A    between atoms: C_2  and  C_3
REMARK    3  A    between atoms: C_2  and  C_4
REMARK    4  A    between atoms: C_9  and  C_26
REMARK    5  A    between atoms: C_10  and  O_12
REMARK    6  A    between atoms: C_16  and  C_18
REMARK    7  A    between atoms: C_21  and  N_23
REMARK                            x       y       z     vdW  Elec       q    Type
REMARK                         _______ _______ _______ _____ _____    ______ ____
ROOT
ATOM      1  C   UNL     1      -1.457  -0.406   0.228  0.00  0.00    +0.010 C 
ATOM      2  C   UNL     1      -2.217   0.199  -0.912  0.00  0.00    -0.008 C 
ATOM      3  C   UNL     1      -3.664   0.442  -0.634  0.00  0.00    -0.075 C 
ATOM      4  N   UNL     1      -4.310  -0.542   0.197  0.00  0.00    +0.395 N 
ATOM      5  C   UNL     1      -3.922  -1.911   0.018  0.00  0.00    -0.066 C 
ATOM      6  C   UNL     1      -2.758  -2.422   0.840  0.00  0.00    -0.007 C 
ATOM      7  C   UNL     1      -1.456  -1.915   0.256  0.00  0.00    +0.127 C 
ATOM      8  C   UNL     1      -2.842  -1.909   2.282  0.00  0.00    +0.090 C 
ATOM      9  N   UNL     1      -2.985  -0.446   2.201  0.00  0.00    -0.307 NA
ATOM     10  C   UNL     1      -1.838   0.204   1.567  0.00  0.00    +0.092 C 
ATOM     11  C   UNL     1      -4.272  -0.105   1.597  0.00  0.00    +0.070 C 
ATOM     12  C   UNL     1      -2.764  -3.952   0.838  0.00  0.00    +0.013 C 
ATOM     13  H   UNL     1      -5.285  -0.514  -0.062  0.00  0.00    -0.079 HD
ENDROOT
BRANCH  11  14
ATOM     14  C   UNL     1      -5.378  -0.785   2.362  0.00  0.00    +0.108 A 
ATOM     15  C   UNL     1      -5.352  -1.099   3.669  0.00  0.00    +0.047 A 
ATOM     16  C   UNL     1      -6.587  -1.720   3.966  0.00  0.00    +0.076 A 
ATOM     17  C   UNL     1      -7.294  -1.747   2.822  0.00  0.00    +0.280 A 
ATOM     18  O   UNL     1      -6.559  -1.174   1.855  0.00  0.00    -0.439 OA
BRANCH  17  19
ATOM     19  N   UNL     1      -8.655  -2.308   2.659  0.00  0.00    +0.093 N 
ATOM     20  O   UNL     1      -9.225  -2.796   3.606  0.00  0.00    -0.123 OA
ATOM     21  O   UNL     1      -9.195  -2.278   1.578  0.00  0.00    -0.123 OA
ENDBRANCH  17  19
ENDBRANCH  11  14
BRANCH   1  23
ATOM     22  C   UNL     1       0.449  -0.464  -1.387  0.00  0.00    +0.008 C 
ATOM     23  C   UNL     1       0.002  -0.004   0.002  0.00  0.00    -0.007 C 
ATOM     24  C   UNL     1       0.133   1.517   0.103  0.00  0.00    +0.008 C 
ENDBRANCH   1  23
BRANCH   7  25
ATOM     25  O   UNL     1      -0.377  -2.378   1.070  0.00  0.00    -0.391 OA
ATOM     26  H   UNL     1      -0.317  -3.341   1.133  0.00  0.00    +0.210 HD
ENDBRANCH   7  25
TORSDOF 4
