REMARK  Name = ZINC38658723
REMARK  10 active torsions:
REMARK  status: ('A' for Active; 'I' for Inactive)
REMARK    1  A    between atoms: C_1  and  O_2
REMARK    2  A    between atoms: O_2  and  C_3
REMARK    3  A    between atoms: C_7  and  C_11
REMARK    4  A    between atoms: C_8  and  O_9
REMARK    5  A    between atoms: O_9  and  C_10
REMARK    6  A    between atoms: C_16  and  O_25
REMARK    7  A    between atoms: C_20  and  N_24
REMARK    8  A    between atoms: C_21  and  C_22
REMARK    9  A    between atoms: O_25  and  C_26
REMARK   10  A    between atoms: C_26  and  C_28
REMARK                            x       y       z     vdW  Elec       q    Type
REMARK                         _______ _______ _______ _____ _____    ______ ____
ROOT
ATOM      1  C   UNL     1      -2.450  -4.243  -0.181  0.00  0.00    +0.102 C 
ATOM      2  C   UNL     1      -2.932  -4.877   1.097  0.00  0.00    +0.008 A 
ATOM      3  C   UNL     1      -2.048  -5.047   2.148  0.00  0.00    +0.012 A 
ATOM      4  C   UNL     1      -2.472  -5.627   3.327  0.00  0.00    +0.047 A 
ATOM      5  C   UNL     1      -3.790  -6.041   3.462  0.00  0.00    +0.135 A 
ATOM      6  C   UNL     1      -4.678  -5.871   2.412  0.00  0.00    +0.093 A 
ATOM      7  C   UNL     1      -4.250  -5.287   1.226  0.00  0.00    +0.138 A 
ATOM      8  O   UNL     1      -5.131  -5.129   0.208  0.00  0.00    -0.441 OA
ATOM      9  C   UNL     1      -4.681  -4.940  -1.044  0.00  0.00    +0.199 C 
ATOM     10  C   UNL     1      -3.422  -4.521  -1.294  0.00  0.00    +0.098 C 
ENDROOT
BRANCH   1  15
ATOM     11  C   UNL     1      -1.020  -0.740  -0.073  0.00  0.00    +0.162 A 
ATOM     12  C   UNL     1      -2.111  -0.015   0.379  0.00  0.00    +0.049 A 
ATOM     13  C   UNL     1      -3.305  -0.658   0.646  0.00  0.00    +0.004 A 
ATOM     14  C   UNL     1      -3.414  -2.025   0.465  0.00  0.00    +0.008 A 
ATOM     15  C   UNL     1      -2.329  -2.754   0.015  0.00  0.00    +0.011 A 
ATOM     16  C   UNL     1      -1.131  -2.114  -0.261  0.00  0.00    +0.166 A 
BRANCH  11  18
ATOM     17  C   UNL     1       0.196   1.304  -0.120  0.00  0.00    +0.277 C 
ATOM     18  O   UNL     1       0.155  -0.108  -0.337  0.00  0.00    -0.491 OA
ENDBRANCH  11  18
BRANCH  16  19
ATOM     19  O   UNL     1      -0.064  -2.829  -0.709  0.00  0.00    -0.491 OA
ATOM     20  C   UNL     1       0.821  -3.361   0.278  0.00  0.00    +0.277 C 
ENDBRANCH  16  19
ENDBRANCH   1  15
BRANCH   9  21
ATOM     21  N   UNL     1      -5.527  -5.179  -2.098  0.00  0.00    -0.328 N 
ATOM     22  H   UNL     1      -6.434  -5.480  -1.934  0.00  0.00    +0.145 HD
ATOM     23  H   UNL     1      -5.217  -5.048  -3.008  0.00  0.00    +0.145 HD
ENDBRANCH   9  21
BRANCH  10  24
ATOM     24  C   UNL     1      -3.005  -4.337  -2.651  0.00  0.00    +0.101 C 
ATOM     25  N   UNL     1      -2.674  -4.192  -3.728  0.00  0.00    -0.191 NA
ENDBRANCH  10  24
BRANCH   5  26
ATOM     26  O   UNL     1      -4.209  -6.612   4.622  0.00  0.00    -0.422 OA
BRANCH  26  27
ATOM     27  C   UNL     1      -4.501  -7.927   4.610  0.00  0.00    +0.346 C 
ATOM     28  O   UNL     1      -4.285  -8.588   3.614  0.00  0.00    -0.244 OA
BRANCH  27  29
ATOM     29  C   UNL     1      -5.083  -8.565   5.808  0.00  0.00    +0.078 A 
ATOM     30  C   UNL     1      -5.338  -7.806   6.953  0.00  0.00    +0.016 A 
ATOM     31  C   UNL     1      -5.881  -8.408   8.068  0.00  0.00    +0.001 A 
ATOM     32  C   UNL     1      -6.174  -9.761   8.056  0.00  0.00    +0.001 A 
ATOM     33  C   UNL     1      -5.924 -10.519   6.927  0.00  0.00    +0.021 A 
ATOM     34  C   UNL     1      -5.386  -9.929   5.800  0.00  0.00    +0.055 A 
ATOM     35 CL   UNL     1      -5.081 -10.880   4.380  0.00  0.00    -0.083 Cl
ENDBRANCH  27  29
ENDBRANCH  26  27
ENDBRANCH   5  26
TORSDOF 8
