REMARK  Name = ZINC04148012
REMARK  4 active torsions:
REMARK  status: ('A' for Active; 'I' for Inactive)
REMARK    1  A    between atoms: C_10  and  N_14
REMARK    2  A    between atoms: N_14  and  S_15
REMARK    3  A    between atoms: S_15  and  C_18
REMARK    4  A    between atoms: C_22  and  N_24
REMARK                            x       y       z     vdW  Elec       q    Type
REMARK                         _______ _______ _______ _____ _____    ______ ____
ROOT
ATOM      1  N   UNL     1       0.017   6.047  -1.488  0.00  0.00    -0.216 N 
ATOM      2  H   UNL     1       0.889   5.632  -1.585  0.00  0.00    +0.174 HD
ENDROOT
BRANCH   1  12
ATOM      3  C   UNL     1      -5.808   4.519  -6.746  0.00  0.00    +0.001 A 
ATOM      4  C   UNL     1      -5.685   5.745  -7.379  0.00  0.00    +0.004 A 
ATOM      5  C   UNL     1      -4.749   6.664  -6.954  0.00  0.00    +0.047 A 
ATOM      6  C   UNL     1      -3.917   6.366  -5.881  0.00  0.00    +0.136 A 
ATOM      7  C   UNL     1      -4.044   5.124  -5.243  0.00  0.00    +0.028 A 
ATOM      8  C   UNL     1      -4.991   4.205  -5.680  0.00  0.00    +0.012 A 
ATOM      9  C   UNL     1      -3.035   5.124  -4.166  0.00  0.00    +0.028 A 
ATOM     10  C   UNL     1      -2.661   4.201  -3.194  0.00  0.00    +0.014 A 
ATOM     11  C   UNL     1      -1.647   4.507  -2.313  0.00  0.00    +0.025 A 
ATOM     12  C   UNL     1      -1.006   5.741  -2.388  0.00  0.00    +0.052 A 
ATOM     13  C   UNL     1      -1.373   6.665  -3.353  0.00  0.00    +0.071 A 
ATOM     14  C   UNL     1      -2.389   6.366  -4.251  0.00  0.00    +0.138 A 
ATOM     15  O   UNL     1      -2.936   7.065  -5.269  0.00  0.00    -0.455 OA
ENDBRANCH   1  12
BRANCH   1  16
ATOM     16  S   UNL     1      -0.257   7.118  -0.256  0.00  0.00    +0.072 S 
ATOM     17  O   UNL     1      -0.833   8.276  -0.845  0.00  0.00    -0.150 OA
ATOM     18  O   UNL     1       0.938   7.168   0.512  0.00  0.00    -0.150 OA
BRANCH  16  19
ATOM     19  C   UNL     1      -1.494   6.413   0.782  0.00  0.00    +0.111 A 
ATOM     20  C   UNL     1      -1.137   5.517   1.773  0.00  0.00    +0.029 A 
ATOM     21  C   UNL     1      -2.107   4.965   2.587  0.00  0.00    +0.004 A 
ATOM     22  C   UNL     1      -3.434   5.307   2.411  0.00  0.00    +0.033 A 
ATOM     23  C   UNL     1      -3.792   6.199   1.417  0.00  0.00    +0.128 A 
ATOM     24  C   UNL     1      -2.821   6.755   0.606  0.00  0.00    +0.061 A 
BRANCH  23  25
ATOM     25  N   UNL     1      -5.215   6.561   1.225  0.00  0.00    +0.056 N 
ATOM     26  O   UNL     1      -6.069   6.073   1.942  0.00  0.00    -0.126 OA
ATOM     27  O   UNL     1      -5.530   7.346   0.349  0.00  0.00    -0.126 OA
ENDBRANCH  23  25
ENDBRANCH  16  19
ENDBRANCH   1  16
TORSDOF 4
