REMARK  Name = ZINC08597126
REMARK  10 active torsions:
REMARK  status: ('A' for Active; 'I' for Inactive)
REMARK    1  A    between atoms: C_1  and  C_2
REMARK    2  A    between atoms: C_2  and  C_3
REMARK    3  A    between atoms: C_2  and  C_4
REMARK    4  A    between atoms: C_4  and  C_5
REMARK    5  A    between atoms: C_5  and  N_6
REMARK    6  A    between atoms: C_7  and  C_9
REMARK    7  A    between atoms: C_18  and  C_21
REMARK    8  A    between atoms: C_21  and  S_22
REMARK    9  A    between atoms: S_22  and  C_25
REMARK   10  A    between atoms: C_25  and  C_26
REMARK                            x       y       z     vdW  Elec       q    Type
REMARK                         _______ _______ _______ _____ _____    ______ ____
ROOT
ATOM      1  C   UNL     1       4.875  -0.762  -3.801  0.00  0.00    +0.039 A 
ATOM      2  C   UNL     1       4.168  -1.477  -4.772  0.00  0.00    +0.015 A 
ATOM      3  C   UNL     1       4.811  -1.918  -5.909  0.00  0.00    +0.025 A 
ATOM      4  C   UNL     1       6.161  -1.654  -6.087  0.00  0.00    +0.049 A 
ATOM      5  C   UNL     1       6.878  -0.946  -5.117  0.00  0.00    +0.055 A 
ATOM      6  C   UNL     1       6.234  -0.493  -3.982  0.00  0.00    +0.038 A 
ATOM      7  N   UNL     1       8.246  -0.710  -5.300  0.00  0.00    -0.282 N 
ATOM      8  C   UNL     1       8.923  -1.314  -6.294  0.00  0.00    +0.239 C 
ATOM      9  O   UNL     1      10.075  -1.004  -6.510  0.00  0.00    -0.273 OA
ATOM     10  C   UNL     1       8.264  -2.373  -7.141  0.00  0.00    +0.178 C 
ATOM     11  N   UNL     1       6.826  -2.083  -7.237  0.00  0.00    -0.330 N 
ATOM     12  H   UNL     1       8.712  -0.103  -4.703  0.00  0.00    +0.155 HD
ATOM     13  H   UNL     1       6.352  -2.187  -8.077  0.00  0.00    +0.147 HD
ENDROOT
BRANCH   1  15
ATOM     14  N   UNL     1       2.873  -0.545  -2.413  0.00  0.00    -0.311 N 
ATOM     15  C   UNL     1       4.184  -0.286  -2.587  0.00  0.00    +0.244 C 
ATOM     16  O   UNL     1       4.798   0.340  -1.745  0.00  0.00    -0.270 OA
ATOM     17  H   UNL     1       2.384  -1.045  -3.085  0.00  0.00    +0.149 HD
BRANCH  14  18
ATOM     18  C   UNL     1       2.187  -0.073  -1.207  0.00  0.00    +0.105 C 
BRANCH  18  19
ATOM     19  C   UNL     1       0.718  -0.497  -1.257  0.00  0.00    +0.022 C 
BRANCH  19  21
ATOM     20  C   UNL     1      -0.019   1.526   0.010  0.00  0.00    +0.007 C 
ATOM     21  C   UNL     1       0.002  -0.004   0.002  0.00  0.00    -0.016 C 
ATOM     22  C   UNL     1      -1.433  -0.534   0.013  0.00  0.00    +0.007 C 
ENDBRANCH  19  21
ENDBRANCH  18  19
ENDBRANCH  14  18
ENDBRANCH   1  15
BRANCH  10  23
ATOM     23  C   UNL     1       8.469  -3.745  -6.495  0.00  0.00    +0.198 C 
BRANCH  23  24
ATOM     24  S   UNL     1       7.804  -5.032  -7.588  0.00  0.00    -0.025 S 
ATOM     25  O   UNL     1       6.397  -4.861  -7.680  0.00  0.00    -0.174 OA
ATOM     26  O   UNL     1       8.577  -5.053  -8.780  0.00  0.00    -0.174 OA
BRANCH  24  27
ATOM     27  C   UNL     1       8.138  -6.555  -6.661  0.00  0.00    +0.201 C 
BRANCH  27  28
ATOM     28  C   UNL     1       7.638  -7.740  -7.446  0.00  0.00    -0.025 A 
ATOM     29  C   UNL     1       6.341  -8.187  -7.273  0.00  0.00    +0.005 A 
ATOM     30  C   UNL     1       5.881  -9.274  -7.993  0.00  0.00    +0.001 A 
ATOM     31  C   UNL     1       6.718  -9.915  -8.886  0.00  0.00    +0.015 A 
ATOM     32  C   UNL     1       8.016  -9.469  -9.061  0.00  0.00    +0.018 A 
ATOM     33  C   UNL     1       8.474  -8.377  -8.344  0.00  0.00    +0.020 A 
ATOM     34 BR   UNL     1       9.162 -10.346 -10.283  0.00  0.00    -0.050 Br
ENDBRANCH  27  28
ENDBRANCH  24  27
ENDBRANCH  23  24
ENDBRANCH  10  23
TORSDOF 8
