REMARK  Name = ZINC39306891
REMARK  7 active torsions:
REMARK  status: ('A' for Active; 'I' for Inactive)
REMARK    1  A    between atoms: C_4  and  N_7
REMARK    2  A    between atoms: C_8  and  C_10
REMARK    3  A    between atoms: C_15  and  N_16
REMARK    4  A    between atoms: C_17  and  C_19
REMARK    5  A    between atoms: C_19  and  N_20
REMARK    6  A    between atoms: C_23  and  C_26
REMARK    7  A    between atoms: C_23  and  O_33
REMARK                            x       y       z     vdW  Elec       q    Type
REMARK                         _______ _______ _______ _____ _____    ______ ____
ROOT
ATOM      1  N   UNL     1       3.813  -4.882   0.031  0.00  0.00    -0.286 N 
ATOM      2  C   UNL     1       3.804  -6.225  -0.075  0.00  0.00    +0.201 C 
ATOM      3  O   UNL     1       4.843  -6.846  -0.002  0.00  0.00    -0.278 OA
ATOM      4  H   UNL     1       2.976  -4.392   0.054  0.00  0.00    +0.155 HD
ENDROOT
BRANCH   1  10
ATOM      5  C   UNL     1       5.084  -2.937   0.719  0.00  0.00    +0.058 A 
ATOM      6  C   UNL     1       6.305  -2.263   0.793  0.00  0.00    +0.015 A 
ATOM      7  C   UNL     1       7.440  -2.837   0.261  0.00  0.00    +0.001 A 
ATOM      8  C   UNL     1       7.375  -4.079  -0.349  0.00  0.00    +0.002 A 
ATOM      9  C   UNL     1       6.176  -4.756  -0.430  0.00  0.00    +0.024 A 
ATOM     10  C   UNL     1       5.023  -4.197   0.106  0.00  0.00    +0.046 A 
BRANCH   5  12
ATOM     11  N   UNL     1       3.905  -1.075   1.779  0.00  0.00    -0.281 N 
ATOM     12  C   UNL     1       3.866  -2.329   1.287  0.00  0.00    +0.250 C 
ATOM     13  O   UNL     1       2.826  -2.959   1.311  0.00  0.00    -0.270 OA
ATOM     14  H   UNL     1       4.715  -0.547   1.697  0.00  0.00    +0.155 HD
BRANCH  11  18
ATOM     15  C   UNL     1       0.549   0.535   3.649  0.00  0.00    +0.000 A 
ATOM     16  C   UNL     1       1.815   0.859   4.104  0.00  0.00    +0.002 A 
ATOM     17  C   UNL     1       2.929   0.327   3.486  0.00  0.00    +0.023 A 
ATOM     18  C   UNL     1       2.778  -0.535   2.407  0.00  0.00    +0.034 A 
ATOM     19  C   UNL     1       1.506  -0.858   1.953  0.00  0.00    +0.023 A 
ATOM     20  C   UNL     1       0.396  -0.323   2.575  0.00  0.00    +0.002 A 
ENDBRANCH  11  18
ENDBRANCH   5  12
ENDBRANCH   1  10
BRANCH   2  21
ATOM     21  C   UNL     1       2.502  -6.956  -0.282  0.00  0.00    +0.019 C 
BRANCH  21  22
ATOM     22  N   UNL     1       2.759  -8.400  -0.365  0.00  0.00    +0.386 N 
ATOM     23  C   UNL     1       3.281  -8.877   0.922  0.00  0.00    -0.075 C 
ATOM     24  C   UNL     1       3.626 -10.364   0.817  0.00  0.00    +0.021 C 
ATOM     25  C   UNL     1       2.364 -11.151   0.453  0.00  0.00    +0.088 C 
ATOM     26  C   UNL     1       1.787 -10.596  -0.853  0.00  0.00    +0.021 C 
ATOM     27  C   UNL     1       1.510  -9.101  -0.686  0.00  0.00    -0.075 C 
ATOM     28  H   UNL     1       3.439  -8.579  -1.088  0.00  0.00    -0.081 HD
BRANCH  25  29
ATOM     29  C   UNL     1       2.713 -12.606   0.271  0.00  0.00    -0.016 A 
ATOM     30  C   UNL     1       3.973 -12.965  -0.171  0.00  0.00    +0.007 A 
ATOM     31  C   UNL     1       4.293 -14.299  -0.337  0.00  0.00    +0.015 A 
ATOM     32  C   UNL     1       3.353 -15.275  -0.062  0.00  0.00    +0.018 A 
ATOM     33  C   UNL     1       2.092 -14.916   0.380  0.00  0.00    +0.015 A 
ATOM     34  C   UNL     1       1.774 -13.582   0.551  0.00  0.00    +0.007 A 
ATOM     35 BR   UNL     1       3.790 -17.101  -0.290  0.00  0.00    -0.050 Br
ENDBRANCH  25  29
BRANCH  25  36
ATOM     36  O   UNL     1       1.399 -11.017   1.497  0.00  0.00    -0.384 OA
ATOM     37  H   UNL     1       0.572 -11.491   1.333  0.00  0.00    +0.211 HD
ENDBRANCH  25  36
ENDBRANCH  21  22
ENDBRANCH   2  21
TORSDOF 7
