REMARK  Name = ZINC20558570
REMARK  6 active torsions:
REMARK  status: ('A' for Active; 'I' for Inactive)
REMARK    1  A    between atoms: C_1  and  C_2
REMARK    2  A    between atoms: C_5  and  C_8
REMARK    3  A    between atoms: C_8  and  N_9
REMARK    4  A    between atoms: C_21  and  C_29
REMARK    5  A    between atoms: C_23  and  C_27
REMARK    6  A    between atoms: C_24  and  N_26
REMARK                            x       y       z     vdW  Elec       q    Type
REMARK                         _______ _______ _______ _____ _____    ______ ____
ROOT
ATOM      1  N   UNL     1      -1.139   1.830  -0.036  0.00  0.00    -0.198 N 
ATOM      2  C   UNL     1      -0.004   1.034  -0.237  0.00  0.00    +0.062 A 
ATOM      3  C   UNL     1      -0.167  -0.340  -0.361  0.00  0.00    +0.025 A 
ATOM      4  C   UNL     1       0.933  -1.155  -0.542  0.00  0.00    +0.002 A 
ATOM      5  C   UNL     1       2.201  -0.604  -0.600  0.00  0.00    +0.001 A 
ATOM      6  C   UNL     1       2.376   0.757  -0.482  0.00  0.00    +0.013 A 
ATOM      7  C   UNL     1       1.270   1.598  -0.302  0.00  0.00    +0.042 A 
ATOM      8  C   UNL     1       1.520   3.056  -0.200  0.00  0.00    +0.162 C 
ATOM      9  C   UNL     1       0.609   3.885   0.301  0.00  0.00    +0.141 C 
ATOM     10  S   UNL     1      -0.937   3.224   0.852  0.00  0.00    +0.076 S 
ATOM     11  O   UNL     1      -0.762   2.832   2.207  0.00  0.00    -0.150 OA
ATOM     12  O   UNL     1      -1.948   4.132   0.438  0.00  0.00    -0.150 OA
ATOM     13  C   UNL     1       0.860   5.364   0.409  0.00  0.00    +0.118 C 
ATOM     14  C   UNL     1       2.004   5.763  -0.482  0.00  0.00    +0.099 C 
ATOM     15  C   UNL     1       2.863   4.823  -0.951  0.00  0.00    +0.199 C 
ATOM     16  O   UNL     1       2.719   3.527  -0.635  0.00  0.00    -0.439 OA
ENDROOT
BRANCH  13  17
ATOM     17  C   UNL     1       1.194   5.711   1.837  0.00  0.00    -0.033 A 
ATOM     18  C   UNL     1       2.299   5.145   2.445  0.00  0.00    +0.007 A 
ATOM     19  C   UNL     1       2.610   5.467   3.752  0.00  0.00    +0.038 A 
ATOM     20  C   UNL     1       1.807   6.347   4.458  0.00  0.00    +0.123 A 
ATOM     21  C   UNL     1       0.697   6.909   3.850  0.00  0.00    +0.038 A 
ATOM     22  C   UNL     1       0.391   6.590   2.540  0.00  0.00    +0.007 A 
ATOM     23  F   UNL     1       2.106   6.657   5.738  0.00  0.00    -0.205 F 
ENDBRANCH  13  17
BRANCH  15  24
ATOM     24  N   UNL     1       3.900   5.206  -1.765  0.00  0.00    -0.328 N 
ATOM     25  H   UNL     1       4.603   4.453  -2.152  0.00  0.00    +0.145 HD
ATOM     26  H   UNL     1       4.029   6.266  -2.031  0.00  0.00    +0.145 HD
ENDBRANCH  15  24
BRANCH  14  27
ATOM     27  C   UNL     1       2.188   7.138  -0.835  0.00  0.00    +0.101 C 
ATOM     28  N   UNL     1       2.334   8.230  -1.115  0.00  0.00    -0.191 NA
ENDBRANCH  14  27
BRANCH   1  29
ATOM     29  C   UNL     1      -2.445   1.453  -0.583  0.00  0.00    +0.166 C 
BRANCH  29  34
ATOM     30  C   UNL     1      -2.795   3.170  -6.090  0.00  0.00    +0.044 C 
ATOM     31  C   UNL     1      -2.704   2.722  -4.654  0.00  0.00    -0.050 A 
ATOM     32  C   UNL     1      -2.107   1.514  -4.343  0.00  0.00    +0.003 A 
ATOM     33  C   UNL     1      -2.023   1.104  -3.025  0.00  0.00    +0.005 A 
ATOM     34  C   UNL     1      -2.536   1.901  -2.019  0.00  0.00    -0.028 A 
ATOM     35  C   UNL     1      -3.137   3.106  -2.330  0.00  0.00    +0.005 A 
ATOM     36  C   UNL     1      -3.217   3.518  -3.647  0.00  0.00    +0.003 A 
ENDBRANCH  29  34
ENDBRANCH   1  29
TORSDOF 5
