REMARK  Name = ZINC29233828
REMARK  13 active torsions:
REMARK  status: ('A' for Active; 'I' for Inactive)
REMARK    1  A    between atoms: C_1  and  C_2
REMARK    2  A    between atoms: C_2  and  C_3
REMARK    3  A    between atoms: C_2  and  C_4
REMARK    4  A    between atoms: C_4  and  C_6
REMARK    5  A    between atoms: C_4  and  N_35
REMARK    6  A    between atoms: C_6  and  O_8
REMARK    7  A    between atoms: O_8  and  C_9
REMARK    8  A    between atoms: C_9  and  C_10
REMARK    9  A    between atoms: C_10  and  N_11
REMARK   10  A    between atoms: C_13  and  C_28
REMARK   11  A    between atoms: C_14  and  C_21
REMARK   12  A    between atoms: C_15  and  C_18
REMARK   13  A    between atoms: C_18  and  C_20
REMARK                            x       y       z     vdW  Elec       q    Type
REMARK                         _______ _______ _______ _____ _____    ______ ____
ROOT
ATOM      1  N   UNL     1      -2.257   5.021   0.761  0.00  0.00    -0.311 N 
ATOM      2  C   UNL     1      -3.305   5.398   1.532  0.00  0.00    +0.098 A 
ATOM      3  C   UNL     1      -4.013   4.478   2.271  0.00  0.00    +0.007 A 
ATOM      4  C   UNL     1      -3.648   3.111   2.222  0.00  0.00    +0.007 A 
ATOM      5  C   UNL     1      -2.552   2.734   1.420  0.00  0.00    +0.090 A 
ATOM      6  C   UNL     1      -1.866   3.736   0.685  0.00  0.00    +0.263 A 
ATOM      7  O   UNL     1      -0.918   3.431  -0.018  0.00  0.00    -0.267 OA
ENDROOT
BRANCH   4   8
ATOM      8  C   UNL     1      -4.395   2.102   2.999  0.00  0.00    -0.016 A 
ATOM      9  C   UNL     1      -5.735   1.838   2.702  0.00  0.00    +0.010 A 
ATOM     10  C   UNL     1      -6.425   0.891   3.429  0.00  0.00    +0.020 A 
ATOM     11  C   UNL     1      -5.797   0.210   4.458  0.00  0.00    +0.041 A 
ATOM     12  C   UNL     1      -4.471   0.471   4.762  0.00  0.00    +0.020 A 
ATOM     13  C   UNL     1      -3.768   1.412   4.040  0.00  0.00    +0.010 A 
ATOM     14 CL   UNL     1      -6.676  -0.976   5.373  0.00  0.00    -0.084 Cl
ENDBRANCH   4   8
BRANCH   3  15
ATOM     15  C   UNL     1      -5.157   4.915   3.108  0.00  0.00    -0.016 A 
ATOM     16  C   UNL     1      -5.084   4.816   4.497  0.00  0.00    +0.010 A 
ATOM     17  C   UNL     1      -6.148   5.229   5.272  0.00  0.00    +0.020 A 
ATOM     18  C   UNL     1      -7.291   5.730   4.672  0.00  0.00    +0.041 A 
ATOM     19  C   UNL     1      -7.370   5.826   3.293  0.00  0.00    +0.020 A 
ATOM     20  C   UNL     1      -6.309   5.420   2.509  0.00  0.00    +0.010 A 
ATOM     21 CL   UNL     1      -8.630   6.241   5.652  0.00  0.00    -0.084 Cl
ENDBRANCH   3  15
BRANCH   5  22
ATOM     22  C   UNL     1      -2.147   1.380   1.344  0.00  0.00    +0.166 C 
ATOM     23  O   UNL     1      -2.742   0.532   1.978  0.00  0.00    -0.292 OA
ATOM     24  C   UNL     1      -0.977   0.991   0.477  0.00  0.00    +0.092 C 
ENDBRANCH   5  22
BRANCH   1  25
ATOM     25  C   UNL     1      -1.532   6.036  -0.007  0.00  0.00    +0.166 C 
BRANCH  25  26
ATOM     26  C   UNL     1      -2.255   6.285  -1.332  0.00  0.00    +0.253 C 
BRANCH  26  27
ATOM     27  O   UNL     1      -2.231   5.073  -2.132  0.00  0.00    -0.464 OA
BRANCH  27  28
ATOM     28  C   UNL     1      -2.910   5.093  -3.289  0.00  0.00    +0.293 C 
ATOM     29  O   UNL     1      -3.437   6.114  -3.663  0.00  0.00    -0.253 OA
BRANCH  28  30
ATOM     30  C   UNL     1      -3.017   3.842  -4.122  0.00  0.00    +0.039 C 
BRANCH  30  31
ATOM     31  N   UNL     1      -4.264   3.874  -4.897  0.00  0.00    +0.387 N 
ATOM     32  H   UNL     1      -5.121   3.931  -4.210  0.00  0.00    -0.089 HD
ATOM     33  H   UNL     1      -4.342   2.961  -5.505  0.00  0.00    -0.089 HD
ATOM     34  H   UNL     1      -4.264   4.755  -5.556  0.00  0.00    -0.089 HD
ENDBRANCH  30  31
BRANCH  30  36
ATOM     35  C   UNL     1      -0.530   3.648  -4.271  0.00  0.00    +0.006 C 
ATOM     36  C   UNL     1      -1.825   3.763  -5.079  0.00  0.00    -0.021 C 
ATOM     37  C   UNL     1      -1.974   2.536  -5.980  0.00  0.00    +0.006 C 
ENDBRANCH  30  36
ENDBRANCH  28  30
ENDBRANCH  27  28
ENDBRANCH  26  27
ENDBRANCH  25  26
ENDBRANCH   1  25
TORSDOF 10
