REMARK  Name = ZINC20527344
REMARK  10 active torsions:
REMARK  status: ('A' for Active; 'I' for Inactive)
REMARK    1  A    between atoms: C_1  and  C_2
REMARK    2  A    between atoms: C_2  and  C_4
REMARK    3  A    between atoms: C_2  and  N_10
REMARK    4  A    between atoms: C_11  and  C_13
REMARK    5  A    between atoms: C_13  and  S_14
REMARK    6  A    between atoms: S_14  and  C_15
REMARK    7  A    between atoms: N_19  and  N_20
REMARK    8  A    between atoms: N_21  and  N_22
REMARK    9  A    between atoms: C_23  and  C_24
REMARK   10  A    between atoms: C_29  and  O_30
REMARK                            x       y       z     vdW  Elec       q    Type
REMARK                         _______ _______ _______ _____ _____    ______ ____
ROOT
ATOM      1  C   UNL     1      -1.838  -4.220  -0.004  0.00  0.00    +0.210 A 
ATOM      2  N   UNL     1      -0.527  -4.202  -0.016  0.00  0.00    -0.119 NA
ATOM      3  N   UNL     1      -0.112  -2.864  -0.018  0.00  0.00    -0.109 NA
ATOM      4  C   UNL     1      -1.183  -2.108   0.002  0.00  0.00    +0.254 A 
ATOM      5  N   UNL     1      -2.278  -2.927   0.008  0.00  0.00    -0.211 N 
ATOM      6  N   UNL     1      -1.202  -0.721   0.010  0.00  0.00    -0.204 N 
ATOM      7  H   UNL     1      -2.162  -0.184   0.022  0.00  0.00    +0.177 HD
ENDROOT
BRANCH   5   8
ATOM      8  N   UNL     1      -3.583  -2.522   0.023  0.00  0.00    -0.294 N 
ATOM      9  H   UNL     1      -3.826  -1.450   0.032  0.00  0.00    +0.163 HD
ATOM     10  H   UNL     1      -4.390  -3.269   0.027  0.00  0.00    +0.163 HD
ENDBRANCH   5   8
BRANCH   6  11
ATOM     11  N   UNL     1       0.002  -0.004   0.002  0.00  0.00    -0.187 NA
ATOM     12  C   UNL     1      -0.015   1.294   0.009  0.00  0.00    +0.142 C 
BRANCH  12  13
ATOM     13  C   UNL     1       1.250   2.049   0.001  0.00  0.00    +0.036 A 
ATOM     14  C   UNL     1       1.236   3.445   0.003  0.00  0.00    +0.013 A 
ATOM     15  C   UNL     1       2.425   4.145   0.001  0.00  0.00    +0.001 A 
ATOM     16  C   UNL     1       3.632   3.469  -0.014  0.00  0.00    +0.004 A 
ATOM     17  C   UNL     1       3.660   2.087  -0.022  0.00  0.00    +0.046 A 
ATOM     18  C   UNL     1       2.476   1.368  -0.014  0.00  0.00    +0.125 A 
BRANCH  18  19
ATOM     19  O   UNL     1       2.502   0.010  -0.021  0.00  0.00    -0.506 OA
ATOM     20  H   UNL     1       3.465  -0.521  -0.033  0.00  0.00    +0.292 HD
ENDBRANCH  18  19
ENDBRANCH  12  13
ENDBRANCH   6  11
BRANCH   1  21
ATOM     21  S   UNL     1      -2.855  -5.659  -0.001  0.00  0.00    -0.075 S 
BRANCH  21  22
ATOM     22  C   UNL     1      -1.670  -7.033  -0.021  0.00  0.00    +0.173 C 
BRANCH  22  24
ATOM     23  N   UNL     1      -1.739  -9.506  -0.034  0.00  0.00    -0.308 N 
ATOM     24  C   UNL     1      -2.418  -8.341  -0.021  0.00  0.00    +0.224 C 
ATOM     25  O   UNL     1      -3.631  -8.347  -0.008  0.00  0.00    -0.275 OA
ATOM     26  H   UNL     1      -0.639  -9.501  -0.045  0.00  0.00    +0.149 HD
BRANCH  23  28
ATOM     27  C   UNL     1      -2.814 -11.166   1.405  0.00  0.00    +0.033 C 
ATOM     28  C   UNL     1      -2.466 -10.778  -0.034  0.00  0.00    +0.100 C 
BRANCH  28  29
ATOM     29  C   UNL     1      -1.604 -11.849  -0.649  0.00  0.00    -0.027 A 
ATOM     30  C   UNL     1      -0.249 -11.889  -0.374  0.00  0.00    +0.005 A 
ATOM     31  C   UNL     1       0.541 -12.875  -0.935  0.00  0.00    +0.000 A 
ATOM     32  C   UNL     1      -0.021 -13.815  -1.778  0.00  0.00    +0.000 A 
ATOM     33  C   UNL     1      -1.375 -13.773  -2.056  0.00  0.00    +0.000 A 
ATOM     34  C   UNL     1      -2.166 -12.790  -1.492  0.00  0.00    +0.005 A 
ENDBRANCH  28  29
ENDBRANCH  23  28
ENDBRANCH  22  24
ENDBRANCH  21  22
ENDBRANCH   1  21
TORSDOF 9
