REMARK  Name = ZINC61890006
REMARK  2 active torsions:
REMARK  status: ('A' for Active; 'I' for Inactive)
REMARK    1  A    between atoms: N_10  and  C_13
REMARK    2  A    between atoms: C_18  and  C_20
REMARK                            x       y       z     vdW  Elec       q    Type
REMARK                         _______ _______ _______ _____ _____    ______ ____
ROOT
ATOM      1  C   UNL     1      -0.019   1.526   0.010  0.00  0.00    +0.000 C 
ATOM      2  C   UNL     1       1.416   2.058  -0.000  0.00  0.00    +0.001 C 
ATOM      3  C   UNL     1       2.153   1.560   1.246  0.00  0.00    +0.016 C 
ATOM      4  C   UNL     1       2.157   0.036   1.259  0.00  0.00    +0.056 C 
ATOM      5  C   UNL     1       0.734  -0.510   1.248  0.00  0.00    +0.016 C 
ATOM      6  C   UNL     1       0.002  -0.004   0.002  0.00  0.00    +0.001 C 
ATOM      7  C   UNL     1       2.918  -0.485   2.490  0.00  0.00    +0.112 C 
ATOM      8  C   UNL     1       4.064  -1.271   1.887  0.00  0.00    +0.223 C 
ATOM      9  O   UNL     1       4.920  -1.857   2.513  0.00  0.00    -0.275 OA
ATOM     10  N   UNL     1       3.980  -1.215   0.551  0.00  0.00    -0.237 N 
ATOM     11  C   UNL     1       2.942  -0.504   0.089  0.00  0.00    +0.229 C 
ATOM     12  O   UNL     1       2.677  -0.324  -1.080  0.00  0.00    -0.275 OA
ENDROOT
BRANCH  10  13
ATOM     13  C   UNL     1       4.944  -1.876  -0.332  0.00  0.00    +0.101 C 
ATOM     14  C   UNL     1       4.981  -3.390  -0.036  0.00  0.00    +0.024 C 
ATOM     15  C   UNL     1       6.472  -3.774  -0.203  0.00  0.00    +0.003 C 
ATOM     16  C   UNL     1       7.209  -2.548   0.391  0.00  0.00    +0.020 C 
ATOM     17  C   UNL     1       6.361  -1.340  -0.062  0.00  0.00    +0.112 C 
BRANCH  17  18
ATOM     18  C   UNL     1       6.321  -0.324   1.002  0.00  0.00    +0.068 C 
ATOM     19  N   UNL     1       6.290   0.460   1.824  0.00  0.00    -0.196 NA
ENDBRANCH  17  18
ENDBRANCH  10  13
TORSDOF 2
