REMARK  Name = ZINC14463497
REMARK  8 active torsions:
REMARK  status: ('A' for Active; 'I' for Inactive)
REMARK    1  A    between atoms: C_1  and  C_2
REMARK    2  A    between atoms: C_2  and  C_3
REMARK    3  A    between atoms: C_3  and  C_4
REMARK    4  A    between atoms: N_6  and  C_7
REMARK    5  A    between atoms: C_20  and  C_23
REMARK    6  A    between atoms: C_26  and  C_29
REMARK    7  A    between atoms: C_29  and  C_30
REMARK    8  A    between atoms: C_29  and  C_31
REMARK                            x       y       z     vdW  Elec       q    Type
REMARK                         _______ _______ _______ _____ _____    ______ ____
ROOT
ATOM      1  C   UNL     1      -3.397  -0.798  -0.507  0.00  0.00    +0.034 A 
ATOM      2  C   UNL     1      -3.298  -1.560  -1.664  0.00  0.00    +0.025 A 
ATOM      3  C   UNL     1      -2.079  -1.702  -2.277  0.00  0.00    +0.025 A 
ATOM      4  C   UNL     1      -0.965  -1.034  -1.785  0.00  0.00    +0.031 A 
ATOM      5  C   UNL     1      -1.057  -0.246  -0.652  0.00  0.00    -0.018 A 
ATOM      6  C   UNL     1      -2.282  -0.145  -0.006  0.00  0.00    +0.029 A 
ATOM      7  C   UNL     1       0.119   0.473  -0.073  0.00  0.00    +0.049 C 
ATOM      8  C   UNL     1       0.037   1.960  -0.330  0.00  0.00    -0.023 C 
ATOM      9  C   UNL     1       1.232   2.448  -0.555  0.00  0.00    -0.030 C 
ATOM     10  C   UNL     1       2.278   1.353  -0.472  0.00  0.00    +0.033 C 
ATOM     11  C   UNL     1       1.458   0.052  -0.711  0.00  0.00    +0.029 C 
ATOM     12  C   UNL     1       1.283  -0.129  -2.221  0.00  0.00    +0.105 C 
ATOM     13  N   UNL     1       0.257  -1.149  -2.462  0.00  0.00    -0.336 N 
ATOM     14  H   UNL     1       0.420  -1.884  -3.074  0.00  0.00    +0.147 HD
ENDROOT
BRANCH  12  15
ATOM     15  C   UNL     1       0.852   1.176  -2.840  0.00  0.00    -0.027 A 
ATOM     16  C   UNL     1      -0.492   1.474  -2.958  0.00  0.00    +0.006 A 
ATOM     17  C   UNL     1      -0.888   2.673  -3.520  0.00  0.00    +0.004 A 
ATOM     18  C   UNL     1       0.061   3.570  -3.975  0.00  0.00    -0.045 A 
ATOM     19  C   UNL     1       1.406   3.269  -3.862  0.00  0.00    +0.004 A 
ATOM     20  C   UNL     1       1.801   2.072  -3.294  0.00  0.00    +0.006 A 
BRANCH  18  21
ATOM     21  C   UNL     1      -0.369   4.874  -4.593  0.00  0.00    +0.013 C 
ATOM     22  C   UNL     1      -1.233   4.594  -5.825  0.00  0.00    +0.012 C 
ATOM     23  C   UNL     1      -1.180   5.679  -3.575  0.00  0.00    +0.012 C 
ENDBRANCH  18  21
ENDBRANCH  12  15
BRANCH   1  26
ATOM     24  C   UNL     1      -5.772  -0.646  -0.554  0.00  0.00    +0.217 C 
ATOM     25  O   UNL     1      -5.746  -0.787  -1.759  0.00  0.00    -0.275 OA
ATOM     26  N   UNL     1      -4.627  -0.688   0.155  0.00  0.00    -0.285 N 
ATOM     27  H   UNL     1      -4.654  -0.642   1.123  0.00  0.00    +0.155 HD
BRANCH  24  28
ATOM     28  C   UNL     1      -7.087  -0.425   0.150  0.00  0.00    +0.096 C 
BRANCH  28  30
ATOM     29  C   UNL     1      -9.555  -0.197  -0.163  0.00  0.00    +0.004 C 
ATOM     30  C   UNL     1      -8.221  -0.421  -0.877  0.00  0.00    +0.006 C 
ENDBRANCH  28  30
ENDBRANCH  24  28
ENDBRANCH   1  26
TORSDOF 5
