REMARK  Name = ZINC14475714
REMARK  5 active torsions:
REMARK  status: ('A' for Active; 'I' for Inactive)
REMARK    1  A    between atoms: C_4  and  N_7
REMARK    2  A    between atoms: N_7  and  C_8
REMARK    3  A    between atoms: C_21  and  C_24
REMARK    4  A    between atoms: C_26  and  N_31
REMARK    5  A    between atoms: C_29  and  O_30
REMARK                            x       y       z     vdW  Elec       q    Type
REMARK                         _______ _______ _______ _____ _____    ______ ____
ROOT
ATOM      1  C   UNL     1       0.636   0.434   0.270  0.00  0.00    +0.032 A 
ATOM      2  C   UNL     1       0.458   1.628  -0.417  0.00  0.00    +0.025 A 
ATOM      3  C   UNL     1      -0.785   1.942  -0.929  0.00  0.00    +0.025 A 
ATOM      4  C   UNL     1      -1.851   1.067  -0.755  0.00  0.00    +0.031 A 
ATOM      5  C   UNL     1      -1.680  -0.124  -0.074  0.00  0.00    -0.018 A 
ATOM      6  C   UNL     1      -0.429  -0.435   0.442  0.00  0.00    +0.029 A 
ATOM      7  C   UNL     1      -2.805  -1.126   0.140  0.00  0.00    +0.049 C 
ATOM      8  C   UNL     1      -2.967  -1.265   1.661  0.00  0.00    -0.023 C 
ATOM      9  C   UNL     1      -3.922  -0.485   2.103  0.00  0.00    -0.030 C 
ATOM     10  C   UNL     1      -4.532   0.306   0.959  0.00  0.00    +0.033 C 
ATOM     11  C   UNL     1      -4.167  -0.544  -0.281  0.00  0.00    +0.029 C 
ATOM     12  C   UNL     1      -4.062   0.321  -1.523  0.00  0.00    +0.108 C 
ATOM     13  N   UNL     1      -3.104   1.406  -1.287  0.00  0.00    -0.336 N 
ATOM     14  H   UNL     1      -3.379   2.444  -1.526  0.00  0.00    +0.147 HD
ENDROOT
BRANCH  12  15
ATOM     15  C   UNL     1      -3.591  -0.521  -2.682  0.00  0.00    +0.017 A 
ATOM     16  C   UNL     1      -2.273  -0.458  -3.092  0.00  0.00    +0.041 A 
ATOM     17  C   UNL     1      -1.841  -1.230  -4.154  0.00  0.00    +0.127 A 
ATOM     18  C   UNL     1      -2.726  -2.067  -4.809  0.00  0.00    +0.036 A 
ATOM     19  C   UNL     1      -4.044  -2.134  -4.402  0.00  0.00    +0.048 A 
ATOM     20  C   UNL     1      -4.479  -1.364  -3.333  0.00  0.00    +0.122 A 
BRANCH  17  21
ATOM     21  N   UNL     1      -0.429  -1.160  -4.591  0.00  0.00    +0.056 N 
ATOM     22  O   UNL     1       0.351  -0.423  -4.016  0.00  0.00    -0.126 OA
ATOM     23  O   UNL     1      -0.047  -1.839  -5.527  0.00  0.00    -0.126 OA
ENDBRANCH  17  21
BRANCH  20  24
ATOM     24  O   UNL     1      -5.775  -1.432  -2.928  0.00  0.00    -0.506 OA
ATOM     25  H   UNL     1      -6.479  -2.101  -3.445  0.00  0.00    +0.292 HD
ENDBRANCH  20  24
ENDBRANCH  12  15
BRANCH   1  26
ATOM     26  N   UNL     1       1.895   0.109   0.790  0.00  0.00    -0.314 N 
ATOM     27  H   UNL     1       2.807   0.451   0.279  0.00  0.00    +0.152 HD
BRANCH  26  31
ATOM     28  C   UNL     1       2.186  -2.155   4.273  0.00  0.00    +0.000 A 
ATOM     29  C   UNL     1       3.199  -2.202   3.333  0.00  0.00    +0.002 A 
ATOM     30  C   UNL     1       3.106  -1.452   2.177  0.00  0.00    +0.023 A 
ATOM     31  C   UNL     1       1.992  -0.650   1.958  0.00  0.00    +0.031 A 
ATOM     32  C   UNL     1       0.979  -0.601   2.908  0.00  0.00    +0.023 A 
ATOM     33  C   UNL     1       1.076  -1.358   4.059  0.00  0.00    +0.002 A 
ENDBRANCH  26  31
ENDBRANCH   1  26
TORSDOF 5
