REMARK  Name = ZINC66241666
REMARK  8 active torsions:
REMARK  status: ('A' for Active; 'I' for Inactive)
REMARK    1  A    between atoms: C_1  and  C_2
REMARK    2  A    between atoms: C_2  and  C_4
REMARK    3  A    between atoms: C_2  and  N_15
REMARK    4  A    between atoms: C_4  and  C_5
REMARK    5  A    between atoms: C_16  and  C_18
REMARK    6  A    between atoms: C_21  and  N_24
REMARK    7  A    between atoms: C_25  and  N_31
REMARK    8  A    between atoms: C_26  and  C_29
REMARK                            x       y       z     vdW  Elec       q    Type
REMARK                         _______ _______ _______ _____ _____    ______ ____
ROOT
ATOM      1  N   UNL     1       0.688  -0.476  -1.203  0.00  0.00    -0.308 N 
ATOM      2  C   UNL     1       0.006  -0.608  -2.358  0.00  0.00    +0.244 C 
ATOM      3  O   UNL     1      -1.178  -0.335  -2.400  0.00  0.00    -0.270 OA
ATOM      4  H   UNL     1       1.632  -0.695  -1.170  0.00  0.00    +0.149 HD
ENDROOT
BRANCH   2   5
ATOM      5  C   UNL     1       0.697  -1.084  -3.573  0.00  0.00    +0.037 A 
ATOM      6  C   UNL     1       2.057  -1.404  -3.526  0.00  0.00    +0.015 A 
ATOM      7  C   UNL     1       2.698  -1.849  -4.660  0.00  0.00    +0.028 A 
ATOM      8  C   UNL     1       1.994  -1.979  -5.853  0.00  0.00    +0.067 A 
ATOM      9  C   UNL     1       0.641  -1.661  -5.904  0.00  0.00    +0.028 A 
ATOM     10  C   UNL     1      -0.008  -1.221  -4.772  0.00  0.00    +0.015 A 
BRANCH   8  11
ATOM     11  N   UNL     1       2.648  -2.429  -7.003  0.00  0.00    -0.218 N 
ATOM     12  C   UNL     1       2.104  -3.208  -7.974  0.00  0.00    +0.137 A 
ATOM     13  C   UNL     1       3.095  -3.419  -8.929  0.00  0.00    +0.111 A 
ATOM     14  C   UNL     1       4.250  -2.735  -8.485  0.00  0.00    +0.155 A 
ATOM     15  N   UNL     1       3.974  -2.152  -7.353  0.00  0.00    -0.172 NA
BRANCH  12  16
ATOM     16  N   UNL     1       0.812  -3.696  -8.008  0.00  0.00    -0.342 N 
ATOM     17  H   UNL     1       0.197  -3.490  -7.288  0.00  0.00    +0.144 HD
ATOM     18  H   UNL     1       0.521  -4.247  -8.752  0.00  0.00    +0.144 HD
ENDBRANCH  12  16
BRANCH  13  19
ATOM     19  C   UNL     1       2.968  -4.184 -10.133  0.00  0.00    +0.104 C 
ATOM     20  N   UNL     1       2.867  -4.792 -11.087  0.00  0.00    -0.191 NA
ENDBRANCH  13  19
ENDBRANCH   8  11
ENDBRANCH   2   5
BRANCH   1  22
ATOM     21  C   UNL     1      -0.019   1.526   0.010  0.00  0.00    +0.028 C 
ATOM     22  C   UNL     1       0.002  -0.004   0.002  0.00  0.00    +0.074 C 
BRANCH  22  23
ATOM     23  C   UNL     1       0.742  -0.511   1.242  0.00  0.00    +0.057 C 
BRANCH  23  24
ATOM     24  C   UNL     1       0.657  -2.014   1.298  0.00  0.00    -0.045 A 
ATOM     25  C   UNL     1      -0.409  -2.617   1.964  0.00  0.00    +0.004 A 
ATOM     26  C   UNL     1      -0.516  -3.972   2.033  0.00  0.00    +0.009 A 
ATOM     27  C   UNL     1       0.461  -4.779   1.425  0.00  0.00    -0.018 A 
ATOM     28  C   UNL     1       0.385  -6.181   1.476  0.00  0.00    +0.008 A 
ATOM     29  C   UNL     1       1.350  -6.930   0.875  0.00  0.00    +0.001 A 
ATOM     30  C   UNL     1       2.415  -6.327   0.209  0.00  0.00    +0.001 A 
ATOM     31  C   UNL     1       2.522  -4.972   0.140  0.00  0.00    +0.008 A 
ATOM     32  C   UNL     1       1.545  -4.166   0.748  0.00  0.00    -0.018 A 
ATOM     33  C   UNL     1       1.619  -2.764   0.693  0.00  0.00    +0.012 A 
ENDBRANCH  23  24
ENDBRANCH  22  23
ENDBRANCH   1  22
TORSDOF 7
