REMARK  Name = ZINC39711252
REMARK  10 active torsions:
REMARK  status: ('A' for Active; 'I' for Inactive)
REMARK    1  A    between atoms: C_1  and  C_2
REMARK    2  A    between atoms: C_6  and  C_15
REMARK    3  A    between atoms: C_13  and  C_14
REMARK    4  A    between atoms: C_15  and  C_17
REMARK    5  A    between atoms: C_15  and  N_29
REMARK    6  A    between atoms: N_22  and  C_23
REMARK    7  A    between atoms: N_29  and  C_30
REMARK    8  A    between atoms: N_29  and  C_37
REMARK    9  A    between atoms: C_30  and  C_31
REMARK   10  A    between atoms: C_37  and  C_38
REMARK                            x       y       z     vdW  Elec       q    Type
REMARK                         _______ _______ _______ _____ _____    ______ ____
ROOT
ATOM      1  C   UNL     1      -1.610  -5.298  -2.650  0.00  0.00    -0.009 C 
ENDROOT
BRANCH   1   7
ATOM      2  C   UNL     1       4.079  -1.302  -1.016  0.00  0.00    +0.044 C 
ATOM      3  C   UNL     1       2.690  -1.830  -0.770  0.00  0.00    -0.047 A 
ATOM      4  C   UNL     1       2.317  -3.008  -1.333  0.00  0.00    +0.013 A 
ATOM      5  C   UNL     1       0.965  -3.511  -1.086  0.00  0.00    -0.007 A 
ATOM      6  C   UNL     1       0.547  -4.689  -1.631  0.00  0.00    -0.006 C 
ATOM      7  C   UNL     1      -0.869  -5.134  -1.322  0.00  0.00    +0.088 C 
ATOM      8  C   UNL     1      -1.702  -4.236  -0.435  0.00  0.00    +0.223 C 
ATOM      9  O   UNL     1      -2.845  -4.545  -0.154  0.00  0.00    -0.275 OA
ATOM     10  N   UNL     1      -1.183  -3.114   0.035  0.00  0.00    -0.285 N 
ATOM     11  C   UNL     1       0.061  -2.719  -0.235  0.00  0.00    +0.041 A 
ATOM     12  C   UNL     1       0.547  -1.512   0.301  0.00  0.00    +0.027 A 
ATOM     13  C   UNL     1       1.815  -1.102   0.038  0.00  0.00    -0.046 A 
ATOM     14  C   UNL     1       2.295   0.195   0.637  0.00  0.00    +0.044 C 
ATOM     15  H   UNL     1      -1.734  -2.552   0.602  0.00  0.00    +0.155 HD
ENDBRANCH   1   7
BRANCH   1  16
ATOM     16  C   UNL     1      -1.080  -4.279  -3.660  0.00  0.00    +0.205 C 
ATOM     17  N   UNL     1      -1.124  -2.925  -3.092  0.00  0.00    -0.152 NA
ATOM     18  N   UNL     1      -1.867  -2.226  -3.785  0.00  0.00    -0.070 NA
ATOM     19  N   UNL     1      -2.417  -2.921  -4.861  0.00  0.00    -0.179 N 
ATOM     20  N   UNL     1      -1.963  -4.217  -4.843  0.00  0.00    -0.185 NA
ATOM     21  H   UNL     1      -3.025  -2.549  -5.519  0.00  0.00    +0.191 HD
BRANCH  20  22
ATOM     22  C   UNL     1      -3.078  -5.165  -4.718  0.00  0.00    +0.080 C 
ATOM     23  C   UNL     1      -3.082  -6.110  -5.921  0.00  0.00    +0.021 C 
ATOM     24  C   UNL     1      -4.244  -7.097  -5.791  0.00  0.00    +0.002 C 
ATOM     25  C   UNL     1      -5.565  -6.327  -5.742  0.00  0.00    +0.000 C 
ATOM     26  C   UNL     1      -5.561  -5.382  -4.539  0.00  0.00    +0.002 C 
ATOM     27  C   UNL     1      -4.399  -4.395  -4.669  0.00  0.00    +0.021 C 
ENDBRANCH  20  22
ENDBRANCH   1  16
BRANCH   1  28
ATOM     28  N   UNL     1      -1.395  -6.657  -3.166  0.00  0.00    +0.390 N 
ATOM     29  H   UNL     1      -1.903  -6.773  -4.030  0.00  0.00    -0.080 HD
BRANCH  28  30
ATOM     30  C   UNL     1      -1.873  -7.636  -2.181  0.00  0.00    -0.042 C 
BRANCH  30  31
ATOM     31  C   UNL     1      -3.378  -7.699  -2.224  0.00  0.00    -0.064 A 
ATOM     32  C   UNL     1      -4.127  -6.830  -1.454  0.00  0.00    +0.002 A 
ATOM     33  C   UNL     1      -5.508  -6.887  -1.493  0.00  0.00    +0.000 A 
ATOM     34  C   UNL     1      -6.139  -7.812  -2.303  0.00  0.00    +0.000 A 
ATOM     35  C   UNL     1      -5.389  -8.680  -3.074  0.00  0.00    +0.000 A 
ATOM     36  C   UNL     1      -4.009  -8.620  -3.038  0.00  0.00    +0.002 A 
ENDBRANCH  30  31
ENDBRANCH  28  30
BRANCH  28  37
ATOM     37  C   UNL     1       0.039  -6.866  -3.409  0.00  0.00    -0.040 C 
BRANCH  37  38
ATOM     38  C   UNL     1       0.379  -6.432  -4.812  0.00  0.00    -0.046 A 
ATOM     39  C   UNL     1      -0.098  -7.144  -5.902  0.00  0.00    +0.005 A 
ATOM     40  C   UNL     1       0.241  -6.708  -7.174  0.00  0.00    +0.020 A 
ATOM     41  C   UNL     1       1.037  -5.587  -7.312  0.00  0.00    +0.111 A 
ATOM     42  N   UNL     1       1.473  -4.935  -6.252  0.00  0.00    -0.263 NA
ATOM     43  C   UNL     1       1.166  -5.317  -5.028  0.00  0.00    +0.112 A 
ENDBRANCH  37  38
ENDBRANCH  28  37
ENDBRANCH   1  28
TORSDOF 8
