REMARK  Name = ZINC02793793
REMARK  15 active torsions:
REMARK  status: ('A' for Active; 'I' for Inactive)
REMARK    1  A    between atoms: C_1  and  C_2
REMARK    2  A    between atoms: C_2  and  C_3
REMARK    3  A    between atoms: C_2  and  C_4
REMARK    4  A    between atoms: C_7  and  C_10
REMARK    5  A    between atoms: C_13  and  C_34
REMARK    6  A    between atoms: C_18  and  C_20
REMARK    7  A    between atoms: N_22  and  N_23
REMARK    8  A    between atoms: N_23  and  C_24
REMARK    9  A    between atoms: C_24  and  N_26
REMARK   10  A    between atoms: N_26  and  C_27
REMARK   11  A    between atoms: C_27  and  C_28
REMARK   12  A    between atoms: C_28  and  C_29
REMARK   13  A    between atoms: C_29  and  N_30
REMARK   14  A    between atoms: N_30  and  C_31
REMARK   15  A    between atoms: N_30  and  C_32
REMARK                            x       y       z     vdW  Elec       q    Type
REMARK                         _______ _______ _______ _____ _____    ______ ____
ROOT
ATOM      1  C   UNL     1      -6.151   6.934  -0.225  0.00  0.00    +0.104 C 
ATOM      2  C   UNL     1      -6.760   5.761   0.552  0.00  0.00    +0.063 C 
ATOM      3  C   UNL     1      -6.158   4.440   0.061  0.00  0.00    +0.215 C 
ATOM      4  N   UNL     1      -4.697   4.559   0.050  0.00  0.00    -0.238 N 
ATOM      5  C   UNL     1      -4.035   5.754   0.051  0.00  0.00    +0.119 A 
ATOM      6  C   UNL     1      -2.711   5.500   0.051  0.00  0.00    +0.078 A 
ATOM      7  C   UNL     1      -2.546   4.096   0.036  0.00  0.00    +0.150 A 
ATOM      8  N   UNL     1      -3.745   3.541   0.040  0.00  0.00    -0.164 NA
ATOM      9  N   UNL     1      -4.703   6.982   0.058  0.00  0.00    -0.322 N 
ATOM     10  H   UNL     1      -4.213   7.947   0.257  0.00  0.00    +0.148 HD
ENDROOT
BRANCH   1  14
ATOM     11  C   UNL     1      -7.988  10.585   1.015  0.00  0.00    -0.045 A 
ATOM     12  C   UNL     1      -8.391   9.972  -0.156  0.00  0.00    +0.004 A 
ATOM     13  C   UNL     1      -7.797   8.790  -0.557  0.00  0.00    +0.006 A 
ATOM     14  C   UNL     1      -6.799   8.222   0.213  0.00  0.00    -0.027 A 
ATOM     15  C   UNL     1      -6.400   8.833   1.387  0.00  0.00    +0.006 A 
ATOM     16  C   UNL     1      -6.991  10.017   1.786  0.00  0.00    +0.004 A 
BRANCH  11  18
ATOM     17  C   UNL     1      -9.293  11.677   2.820  0.00  0.00    +0.012 C 
ATOM     18  C   UNL     1      -8.636  11.874   1.452  0.00  0.00    +0.013 C 
ATOM     19  C   UNL     1      -7.573  12.971   1.550  0.00  0.00    +0.012 C 
ENDBRANCH  11  18
ENDBRANCH   1  14
BRANCH   7  20
ATOM     20  C   UNL     1      -1.257   3.375   0.026  0.00  0.00    +0.280 C 
ATOM     21  O   UNL     1      -0.213   3.997   0.025  0.00  0.00    -0.267 OA
ATOM     22  N   UNL     1      -1.239   2.027   0.019  0.00  0.00    -0.230 N 
ATOM     23  H   UNL     1      -2.184   1.465   0.020  0.00  0.00    +0.173 HD
BRANCH  22  24
ATOM     24  N   UNL     1      -0.016   1.344   0.009  0.00  0.00    -0.246 N 
ATOM     25  H   UNL     1       0.929   1.907   0.008  0.00  0.00    +0.172 HD
BRANCH  24  26
ATOM     26  C   UNL     1       0.002  -0.004   0.002  0.00  0.00    +0.147 C 
ATOM     27  S   UNL     1       1.496  -0.840  -0.017  0.00  0.00    -0.017 S 
BRANCH  26  28
ATOM     28  N   UNL     1      -1.156  -0.694   0.009  0.00  0.00    -0.326 N 
ATOM     29  H   UNL     1      -2.116  -0.157   0.021  0.00  0.00    +0.148 HD
BRANCH  28  30
ATOM     30  C   UNL     1      -1.136  -2.159   0.001  0.00  0.00    +0.101 C 
BRANCH  30  31
ATOM     31  C   UNL     1      -2.571  -2.688   0.012  0.00  0.00    +0.000 C 
BRANCH  31  32
ATOM     32  C   UNL     1      -2.551  -4.218   0.004  0.00  0.00    -0.078 C 
BRANCH  32  33
ATOM     33  N   UNL     1      -3.929  -4.726   0.014  0.00  0.00    +0.376 N 
ATOM     34  C   UNL     1      -4.627  -4.380  -1.231  0.00  0.00    -0.097 C 
ATOM     35  C   UNL     1      -3.953  -6.177   0.245  0.00  0.00    -0.097 C 
ATOM     36  H   UNL     1      -4.461  -4.243   0.847  0.00  0.00    -0.083 HD
ENDBRANCH  32  33
ENDBRANCH  31  32
ENDBRANCH  30  31
ENDBRANCH  28  30
ENDBRANCH  26  28
ENDBRANCH  24  26
ENDBRANCH  22  24
ENDBRANCH   7  20
BRANCH   3  37
ATOM     37  C   UNL     1      -6.573   3.307   1.001  0.00  0.00    +0.412 C 
ATOM     38  F   UNL     1      -6.120   3.584   2.295  0.00  0.00    -0.168 F 
ATOM     39  F   UNL     1      -7.968   3.194   1.009  0.00  0.00    -0.168 F 
ATOM     40  F   UNL     1      -6.011   2.104   0.558  0.00  0.00    -0.168 F 
ENDBRANCH   3  37
TORSDOF 11
