REMARK  Name = ZINC40035883
REMARK  10 active torsions:
REMARK  status: ('A' for Active; 'I' for Inactive)
REMARK    1  A    between atoms: C_1  and  C_2
REMARK    2  A    between atoms: C_2  and  C_3
REMARK    3  A    between atoms: C_3  and  C_38
REMARK    4  A    between atoms: N_15  and  C_36
REMARK    5  A    between atoms: N_18  and  N_19
REMARK    6  A    between atoms: C_20  and  C_21
REMARK    7  A    between atoms: C_24  and  O_27
REMARK    8  A    between atoms: O_27  and  C_28
REMARK    9  A    between atoms: C_28  and  C_29
REMARK   10  A    between atoms: C_36  and  C_37
REMARK                            x       y       z     vdW  Elec       q    Type
REMARK                         _______ _______ _______ _____ _____    ______ ____
ROOT
ATOM      1  C   UNL     1      -1.433  -0.534   0.013  0.00  0.00    +0.004 C 
ATOM      2  C   UNL     1      -1.300  -2.053   0.091  0.00  0.00    +0.047 C 
ATOM      3  C   UNL     1      -0.797  -2.607  -1.214  0.00  0.00    -0.037 A 
ATOM      4  C   UNL     1       0.056  -3.692  -1.231  0.00  0.00    +0.004 A 
ATOM      5  C   UNL     1       0.510  -4.198  -2.436  0.00  0.00    +0.000 A 
ATOM      6  C   UNL     1       0.115  -3.623  -3.631  0.00  0.00    +0.001 A 
ATOM      7  C   UNL     1      -0.736  -2.536  -3.628  0.00  0.00    +0.010 A 
ATOM      8  C   UNL     1      -1.194  -2.023  -2.418  0.00  0.00    +0.004 A 
ATOM      9  C   UNL     1      -2.100  -0.852  -2.383  0.00  0.00    +0.084 A 
ATOM     10  C   UNL     1      -2.220  -0.133  -1.203  0.00  0.00    +0.049 A 
ATOM     11  C   UNL     1      -3.084   0.970  -1.169  0.00  0.00    +0.260 A 
ATOM     12  O   UNL     1      -3.217   1.626  -0.149  0.00  0.00    -0.267 OA
ATOM     13  N   UNL     1      -3.767   1.290  -2.289  0.00  0.00    -0.280 N 
ATOM     14  C   UNL     1      -3.608   0.554  -3.424  0.00  0.00    +0.219 A 
ATOM     15  N   UNL     1      -2.798  -0.485  -3.462  0.00  0.00    -0.214 NA
ATOM     16  N   UNL     1      -4.306   0.900  -4.551  0.00  0.00    -0.206 N 
ATOM     17  C   UNL     1      -2.149  -0.026   1.266  0.00  0.00    +0.016 C 
ATOM     18  H   UNL     1      -4.906   1.663  -4.535  0.00  0.00    +0.177 HD
ENDROOT
BRANCH   1  20
ATOM     19  C   UNL     1      -0.165   1.615  -0.110  0.00  0.00    +0.005 C 
ATOM     20  C   UNL     1      -0.039   0.092  -0.060  0.00  0.00    +0.008 C 
ENDBRANCH   1  20
BRANCH  16  21
ATOM     21  N   UNL     1      -4.155   0.154  -5.727  0.00  0.00    -0.188 NA
ATOM     22  C   UNL     1      -4.816   0.482  -6.794  0.00  0.00    +0.138 C 
BRANCH  22  23
ATOM     23  C   UNL     1      -4.657  -0.304  -8.031  0.00  0.00    -0.005 A 
ATOM     24  C   UNL     1      -3.798  -1.406  -8.055  0.00  0.00    +0.013 A 
ATOM     25  C   UNL     1      -3.653  -2.138  -9.214  0.00  0.00    +0.046 A 
ATOM     26  C   UNL     1      -4.358  -1.782 -10.356  0.00  0.00    +0.121 A 
ATOM     27  C   UNL     1      -5.212  -0.687 -10.337  0.00  0.00    +0.046 A 
ATOM     28  C   UNL     1      -5.368   0.048  -9.181  0.00  0.00    +0.013 A 
BRANCH  26  29
ATOM     29  O   UNL     1      -4.211  -2.506 -11.496  0.00  0.00    -0.487 OA
BRANCH  29  30
ATOM     30  C   UNL     1      -4.965  -2.085 -12.634  0.00  0.00    +0.264 C 
BRANCH  30  31
ATOM     31  C   UNL     1      -4.676  -3.000 -13.796  0.00  0.00    -0.010 A 
ATOM     32  C   UNL     1      -3.637  -2.711 -14.661  0.00  0.00    +0.008 A 
ATOM     33  C   UNL     1      -3.370  -3.551 -15.726  0.00  0.00    +0.020 A 
ATOM     34  C   UNL     1      -4.144  -4.679 -15.927  0.00  0.00    +0.041 A 
ATOM     35  C   UNL     1      -5.184  -4.968 -15.061  0.00  0.00    +0.020 A 
ATOM     36  C   UNL     1      -5.446  -4.131 -13.993  0.00  0.00    +0.008 A 
ATOM     37 CL   UNL     1      -3.811  -5.734 -17.266  0.00  0.00    -0.084 Cl
ENDBRANCH  30  31
ENDBRANCH  29  30
ENDBRANCH  26  29
ENDBRANCH  22  23
ENDBRANCH  16  21
BRANCH  13  38
ATOM     38  C   UNL     1      -4.681   2.435  -2.285  0.00  0.00    +0.125 C 
ATOM     39  C   UNL     1      -3.919   3.698  -2.693  0.00  0.00    +0.027 C 
ENDBRANCH  13  38
TORSDOF 7
