REMARK  Name = ZINC41584665
REMARK  5 active torsions:
REMARK  status: ('A' for Active; 'I' for Inactive)
REMARK    1  A    between atoms: C_3  and  C_7
REMARK    2  A    between atoms: N_13  and  C_14
REMARK    3  A    between atoms: C_14  and  C_15
REMARK    4  A    between atoms: C_16  and  O_33
REMARK    5  A    between atoms: C_23  and  C_24
REMARK                            x       y       z     vdW  Elec       q    Type
REMARK                         _______ _______ _______ _____ _____    ______ ____
ROOT
ATOM      1  C   UNL     1       4.965   0.412   3.077  0.00  0.00    +0.023 A 
ATOM      2  C   UNL     1       4.784  -0.958   3.154  0.00  0.00    +0.122 A 
ATOM      3  C   UNL     1       5.614  -1.736   3.957  0.00  0.00    +0.046 A 
ATOM      4  C   UNL     1       6.618  -1.157   4.679  0.00  0.00    +0.017 A 
ATOM      5  C   UNL     1       6.816   0.223   4.613  0.00  0.00    +0.049 A 
ATOM      6  C   UNL     1       5.986   1.013   3.801  0.00  0.00    +0.173 A 
ATOM      7  O   UNL     1       6.404   2.289   3.924  0.00  0.00    -0.354 OA
ATOM      8  N   UNL     1       7.507   2.343   4.806  0.00  0.00    -0.077 NA
ATOM      9  C   UNL     1       7.777   1.141   5.243  0.00  0.00    +0.121 A 
ENDROOT
BRANCH   9  10
ATOM     10  C   UNL     1       8.860   0.771   6.186  0.00  0.00    +0.010 A 
ATOM     11  C   UNL     1       8.669  -0.267   7.096  0.00  0.00    +0.051 A 
ATOM     12  C   UNL     1       9.681  -0.609   7.973  0.00  0.00    +0.162 A 
ATOM     13  C   UNL     1      10.884   0.079   7.949  0.00  0.00    +0.193 A 
ATOM     14  C   UNL     1      11.078   1.114   7.045  0.00  0.00    +0.162 A 
ATOM     15  C   UNL     1      10.073   1.457   6.160  0.00  0.00    +0.051 A 
ATOM     16  F   UNL     1      12.252   1.782   7.026  0.00  0.00    -0.202 F 
ATOM     17  F   UNL     1      11.871  -0.258   8.808  0.00  0.00    -0.199 F 
ATOM     18  F   UNL     1       9.497  -1.616   8.855  0.00  0.00    -0.202 F 
ENDBRANCH   9  10
BRANCH   2  19
ATOM     19  O   UNL     1       3.788  -1.547   2.442  0.00  0.00    -0.506 OA
ATOM     20  H   UNL     1       4.053  -1.830   1.556  0.00  0.00    +0.292 HD
ENDBRANCH   2  19
BRANCH   1  21
ATOM     21  C   UNL     1       4.063   1.247   2.206  0.00  0.00    -0.035 C 
BRANCH  21  27
ATOM     22  C   UNL     1       3.696   2.049  -0.023  0.00  0.00    -0.036 C 
ATOM     23  C   UNL     1       4.249   2.075  -1.449  0.00  0.00    -0.011 C 
ATOM     24  C   UNL     1       5.602   2.793  -1.454  0.00  0.00    -0.003 C 
ATOM     25  C   UNL     1       6.547   2.087  -0.478  0.00  0.00    -0.019 C 
ATOM     26  C   UNL     1       5.909   2.061   0.913  0.00  0.00    -0.078 C 
ATOM     27  N   UNL     1       4.633   1.337   0.855  0.00  0.00    +0.387 N 
ATOM     28  H   UNL     1       4.790   0.408   0.496  0.00  0.00    -0.080 HD
BRANCH  22  31
ATOM     29  C   UNL     1      -0.017   1.378   0.010  0.00  0.00    +0.020 A 
ATOM     30  C   UNL     1       1.185   2.070   0.002  0.00  0.00    +0.005 A 
ATOM     31  C   UNL     1       2.365   1.343  -0.013  0.00  0.00    -0.043 A 
ATOM     32  C   UNL     1       2.305  -0.038  -0.020  0.00  0.00    +0.112 A 
ATOM     33  N   UNL     1       1.144  -0.663  -0.013  0.00  0.00    -0.263 NA
ATOM     34  C   UNL     1       0.002  -0.004   0.002  0.00  0.00    +0.111 A 
ENDBRANCH  22  31
ENDBRANCH  21  27
ENDBRANCH   1  21
TORSDOF 5
