REMARK  Name = ZINC01086629
REMARK  5 active torsions:
REMARK  status: ('A' for Active; 'I' for Inactive)
REMARK    1  A    between atoms: C_1  and  C_2
REMARK    2  A    between atoms: C_5  and  C_11
REMARK    3  A    between atoms: C_6  and  N_8
REMARK    4  A    between atoms: C_14  and  C_16
REMARK    5  A    between atoms: C_16  and  C_17
REMARK                            x       y       z     vdW  Elec       q    Type
REMARK                         _______ _______ _______ _____ _____    ______ ____
ROOT
ATOM      1  C   UNL     1       1.232  -2.159   0.074  0.00  0.00    +0.252 C 
ATOM      2  O   UNL     1       0.192  -2.782  -0.008  0.00  0.00    -0.270 OA
ATOM      3  N   UNL     1       2.402  -2.815   0.201  0.00  0.00    -0.252 N 
ATOM      4  C   UNL     1       2.419  -4.162   0.238  0.00  0.00    +0.221 C 
ATOM      5  O   UNL     1       1.382  -4.784   0.157  0.00  0.00    -0.275 OA
ATOM      6  H   UNL     1       3.233  -2.317   0.266  0.00  0.00    +0.158 HD
ENDROOT
BRANCH   1  11
ATOM      7  C   UNL     1       1.159   3.592  -0.086  0.00  0.00    +0.044 C 
ATOM      8  C   UNL     1       1.178   2.086  -0.044  0.00  0.00    -0.048 A 
ATOM      9  C   UNL     1       1.776   1.434   1.020  0.00  0.00    +0.004 A 
ATOM     10  C   UNL     1       1.797   0.056   1.065  0.00  0.00    +0.015 A 
ATOM     11  C   UNL     1       1.214  -0.682   0.033  0.00  0.00    +0.067 A 
ATOM     12  C   UNL     1       0.612  -0.018  -1.038  0.00  0.00    +0.139 A 
ATOM     13  C   UNL     1       0.598   1.361  -1.070  0.00  0.00    +0.036 A 
BRANCH  12  14
ATOM     14  N   UNL     1      -0.010  -0.791  -2.136  0.00  0.00    +0.057 N 
ATOM     15  O   UNL     1      -0.637  -0.216  -3.007  0.00  0.00    -0.126 OA
ATOM     16  O   UNL     1       0.107  -2.003  -2.169  0.00  0.00    -0.126 OA
ENDBRANCH  12  14
ENDBRANCH   1  11
BRANCH   4  17
ATOM     17  C   UNL     1       3.728  -4.895   0.381  0.00  0.00    +0.120 C 
BRANCH  17  18
ATOM     18  C   UNL     1       3.469  -6.403   0.396  0.00  0.00    +0.146 C 
ATOM     19  C   UNL     1       4.758  -7.137   0.661  0.00  0.00    +0.231 C 
ATOM     20  O   UNL     1       4.988  -7.509   1.792  0.00  0.00    -0.274 OA
ATOM     21  N   UNL     1       5.654  -7.396  -0.285  0.00  0.00    -0.284 N 
ATOM     22  C   UNL     1       5.521  -7.151  -1.648  0.00  0.00    +0.047 A 
ATOM     23  C   UNL     1       6.651  -7.173  -2.459  0.00  0.00    +0.024 A 
ATOM     24  C   UNL     1       6.542  -6.926  -3.813  0.00  0.00    +0.002 A 
ATOM     25  C   UNL     1       5.309  -6.664  -4.381  0.00  0.00    +0.001 A 
ATOM     26  C   UNL     1       4.174  -6.657  -3.590  0.00  0.00    +0.016 A 
ATOM     27  C   UNL     1       4.277  -6.907  -2.232  0.00  0.00    +0.030 A 
ATOM     28  S   UNL     1       2.829  -6.931  -1.222  0.00  0.00    -0.110 S 
ATOM     29  H   UNL     1       6.488  -7.798   0.005  0.00  0.00    +0.155 HD
ENDBRANCH  17  18
ENDBRANCH   4  17
TORSDOF 4
