REMARK  Name = ZINC37127476
REMARK  6 active torsions:
REMARK  status: ('A' for Active; 'I' for Inactive)
REMARK    1  A    between atoms: C_1  and  C_2
REMARK    2  A    between atoms: C_5  and  N_12
REMARK    3  A    between atoms: C_8  and  C_10
REMARK    4  A    between atoms: C_8  and  C_11
REMARK    5  A    between atoms: N_12  and  C_13
REMARK    6  A    between atoms: C_17  and  N_19
REMARK                            x       y       z     vdW  Elec       q    Type
REMARK                         _______ _______ _______ _____ _____    ______ ____
ROOT
ATOM      1  N   UNL     1      -0.701  -2.352  -0.993  0.00  0.00    -0.341 N 
ATOM      2  H   UNL     1      -1.381  -1.900  -0.470  0.00  0.00    +0.146 HD
ENDROOT
BRANCH   1   6
ATOM      3  C   UNL     1       0.190   0.993   1.553  0.00  0.00    +0.007 C 
ATOM      4  C   UNL     1       0.167  -0.430   0.992  0.00  0.00    -0.012 C 
ATOM      5  C   UNL     1       0.696  -0.422  -0.443  0.00  0.00    +0.025 C 
ATOM      6  C   UNL     1       0.674  -1.845  -1.003  0.00  0.00    +0.071 C 
ATOM      7  C   UNL     1       1.557  -2.748  -0.139  0.00  0.00    +0.028 C 
ATOM      8  C   UNL     1       1.027  -2.756   1.296  0.00  0.00    -0.033 C 
ATOM      9  C   UNL     1       1.050  -1.333   1.857  0.00  0.00    +0.009 C 
ATOM     10  C   UNL     1      -0.408  -3.286   1.307  0.00  0.00    +0.011 C 
ATOM     11  C   UNL     1       1.910  -3.659   2.160  0.00  0.00    +0.011 C 
ENDBRANCH   1   6
BRANCH   1  12
ATOM     12  C   UNL     1      -1.032  -3.487  -1.737  0.00  0.00    +0.029 A 
ATOM     13  C   UNL     1      -0.057  -4.139  -2.482  0.00  0.00    +0.023 A 
ATOM     14  C   UNL     1      -0.385  -5.262  -3.218  0.00  0.00    +0.004 A 
ATOM     15  C   UNL     1      -1.681  -5.739  -3.215  0.00  0.00    +0.028 A 
ATOM     16  C   UNL     1      -2.660  -5.093  -2.472  0.00  0.00    +0.067 A 
ATOM     17  C   UNL     1      -2.334  -3.968  -1.728  0.00  0.00    +0.050 A 
BRANCH  16  18
ATOM     18  N   UNL     1      -3.975  -5.578  -2.470  0.00  0.00    -0.240 N 
ATOM     19  C   UNL     1      -4.404  -6.716  -3.061  0.00  0.00    +0.114 A 
ATOM     20  C   UNL     1      -5.732  -6.826  -2.828  0.00  0.00    +0.041 A 
ATOM     21  C   UNL     1      -6.129  -5.719  -2.068  0.00  0.00    +0.135 A 
ATOM     22  N   UNL     1      -5.076  -4.974  -1.849  0.00  0.00    -0.175 NA
ENDBRANCH  16  18
ENDBRANCH   1  12
TORSDOF 3
