REMARK  Name = ZINC39227881
REMARK  5 active torsions:
REMARK  status: ('A' for Active; 'I' for Inactive)
REMARK    1  A    between atoms: C_1  and  S_2
REMARK    2  A    between atoms: S_2  and  C_3
REMARK    3  A    between atoms: C_7  and  N_9
REMARK    4  A    between atoms: C_10  and  C_12
REMARK    5  A    between atoms: C_14  and  O_39
REMARK                            x       y       z     vdW  Elec       q    Type
REMARK                         _______ _______ _______ _____ _____    ______ ____
ROOT
ATOM      1  C   UNL     1       2.598  -5.143  -4.973  0.00  0.00    +0.107 C 
ATOM      2  C   UNL     1       1.203  -5.770  -5.049  0.00  0.00    +0.127 C 
ATOM      3  C   UNL     1       1.317  -7.230  -5.492  0.00  0.00    +0.032 C 
ATOM      4  C   UNL     1       1.992  -7.304  -6.864  0.00  0.00    +0.004 C 
ATOM      5  C   UNL     1       3.386  -6.682  -6.771  0.00  0.00    -0.024 C 
ATOM      6  C   UNL     1       3.258  -5.216  -6.350  0.00  0.00    +0.004 C 
ATOM      7  C   UNL     1       4.649  -4.579  -6.304  0.00  0.00    -0.005 C 
ATOM      8  C   UNL     1       5.304  -4.735  -7.678  0.00  0.00    -0.020 C 
ATOM      9  C   UNL     1       6.679  -4.117  -7.668  0.00  0.00    +0.006 A 
ATOM     10  H   UNL     1       6.471  -2.336  -6.610  0.00  0.00    +0.166 HD
ATOM     11  C   UNL     1       7.747  -4.702  -8.261  0.00  0.00    -0.022 A 
ATOM     12  C   UNL     1       8.882  -3.833  -8.050  0.00  0.00    +0.003 A 
ATOM     13  C   UNL     1      10.226  -3.915  -8.427  0.00  0.00    +0.010 A 
ATOM     14  C   UNL     1      11.043  -2.880  -8.044  0.00  0.00    +0.001 A 
ATOM     15  C   UNL     1      10.571  -1.800  -7.318  0.00  0.00    +0.002 A 
ATOM     16  C   UNL     1       9.246  -1.692  -6.931  0.00  0.00    +0.026 A 
ATOM     17  C   UNL     1       8.393  -2.728  -7.305  0.00  0.00    +0.047 A 
ATOM     18  N   UNL     1       7.060  -2.936  -7.095  0.00  0.00    -0.359 N 
ATOM     19  C   UNL     1       7.670  -6.021  -8.990  0.00  0.00    +0.019 C 
ATOM     20  C   UNL     1       6.190  -6.340  -9.243  0.00  0.00    -0.073 C 
ATOM     21  N   UNL     1       5.429  -6.163  -8.002  0.00  0.00    +0.386 N 
ATOM     22  C   UNL     1       4.090  -6.757  -8.127  0.00  0.00    -0.074 C 
ATOM     23  H   UNL     1       5.919  -6.626  -7.252  0.00  0.00    -0.081 HD
ENDROOT
BRANCH   1  25
ATOM     24  N   UNL     1       1.922  -3.395  -3.359  0.00  0.00    -0.285 N 
ATOM     25  C   UNL     1       2.480  -3.703  -4.547  0.00  0.00    +0.223 C 
ATOM     26  O   UNL     1       2.886  -2.820  -5.273  0.00  0.00    -0.275 OA
ATOM     27  H   UNL     1       1.667  -4.102  -2.745  0.00  0.00    +0.155 HD
BRANCH  24  32
ATOM     28  C   UNL     1       1.194   0.203  -3.641  0.00  0.00    +0.009 A 
ATOM     29  C   UNL     1       1.296   0.594  -2.311  0.00  0.00    +0.015 A 
ATOM     30  C   UNL     1       1.605  -0.337  -1.338  0.00  0.00    +0.003 A 
ATOM     31  C   UNL     1       1.812  -1.659  -1.683  0.00  0.00    +0.023 A 
ATOM     32  C   UNL     1       1.712  -2.056  -3.011  0.00  0.00    +0.034 A 
ATOM     33  C   UNL     1       1.397  -1.125  -3.990  0.00  0.00    +0.038 A 
BRANCH  28  35
ATOM     34  C   UNL     1       0.633   2.946  -3.963  0.00  0.00    +0.090 C 
ATOM     35  S   UNL     1       0.801   1.391  -4.881  0.00  0.00    -0.129 S 
ENDBRANCH  28  35
ENDBRANCH  24  32
ENDBRANCH   1  25
BRANCH   2  36
ATOM     36  O   UNL     1       0.409  -5.049  -5.993  0.00  0.00    -0.391 OA
ATOM     37  H   UNL     1      -0.490  -5.392  -6.093  0.00  0.00    +0.210 HD
ENDBRANCH   2  36
TORSDOF 4
