REMARK  Name = ZINC36155912
REMARK  12 active torsions:
REMARK  status: ('A' for Active; 'I' for Inactive)
REMARK    1  A    between atoms: C_1  and  O_2
REMARK    2  A    between atoms: O_2  and  C_3
REMARK    3  A    between atoms: C_3  and  C_4
REMARK    4  A    between atoms: C_4  and  C_6
REMARK    5  A    between atoms: C_4  and  O_37
REMARK    6  A    between atoms: C_6  and  N_7
REMARK    7  A    between atoms: N_7  and  C_8
REMARK    8  A    between atoms: N_7  and  C_14
REMARK    9  A    between atoms: C_8  and  C_9
REMARK   10  A    between atoms: C_14  and  C_15
REMARK   11  A    between atoms: N_27  and  C_30
REMARK   12  A    between atoms: C_30  and  C_31
REMARK                            x       y       z     vdW  Elec       q    Type
REMARK                         _______ _______ _______ _____ _____    ______ ____
ROOT
ATOM      1  C   UNL     1       2.082  -6.280  -2.906  0.00  0.00    +0.094 A 
ATOM      2  N   UNL     1       2.796  -7.059  -3.759  0.00  0.00    -0.312 N 
ATOM      3  H   UNL     1       3.320  -6.639  -4.459  0.00  0.00    +0.170 HD
ATOM      4  C   UNL     1       2.793  -8.400  -3.652  0.00  0.00    +0.260 A 
ATOM      5  O   UNL     1       3.441  -9.085  -4.426  0.00  0.00    -0.267 OA
ATOM      6  C   UNL     1       2.016  -9.012  -2.614  0.00  0.00    +0.075 A 
ATOM      7  C   UNL     1       1.862 -10.431  -2.309  0.00  0.00    -0.020 A 
ATOM      8  C   UNL     1       1.064 -10.753  -1.267  0.00  0.00    +0.010 A 
ATOM      9  S   UNL     1       0.483  -9.203  -0.639  0.00  0.00    -0.072 S 
ATOM     10  C   UNL     1       1.312  -8.126  -1.782  0.00  0.00    +0.116 A 
ATOM     11  N   UNL     1       1.369  -6.808  -1.946  0.00  0.00    -0.229 NA
ATOM     12  C   UNL     1       0.754 -12.132  -0.772  0.00  0.00    +0.127 C 
ATOM     13  N   UNL     1       1.165 -13.097  -1.809  0.00  0.00    -0.293 NA
ATOM     14  C   UNL     1       2.532 -12.815  -2.267  0.00  0.00    +0.090 C 
ATOM     15  C   UNL     1       2.553 -11.535  -3.106  0.00  0.00    +0.052 C 
ENDROOT
BRANCH   1  16
ATOM     16  C   UNL     1       2.116  -4.782  -3.065  0.00  0.00    -0.003 C 
BRANCH  16  17
ATOM     17  N   UNL     1       1.278  -4.160  -2.031  0.00  0.00    +0.391 N 
ATOM     18  H   UNL     1       0.352  -4.558  -2.065  0.00  0.00    -0.080 HD
BRANCH  17  19
ATOM     19  C   UNL     1       1.199  -2.713  -2.270  0.00  0.00    -0.044 C 
BRANCH  19  20
ATOM     20  C   UNL     1       0.407  -2.451  -3.553  0.00  0.00    +0.124 C 
BRANCH  20  21
ATOM     21  O   UNL     1       1.161  -2.907  -4.679  0.00  0.00    -0.391 OA
ATOM     22  H   UNL     1       2.019  -2.473  -4.779  0.00  0.00    +0.210 HD
ENDBRANCH  20  21
BRANCH  20  23
ATOM     23  C   UNL     1       0.142  -0.951  -3.691  0.00  0.00    +0.188 C 
BRANCH  23  25
ATOM     24  C   UNL     1      -1.006   0.660  -5.045  0.00  0.00    +0.194 C 
ATOM     25  O   UNL     1      -0.696  -0.717  -4.825  0.00  0.00    -0.381 OA
ENDBRANCH  23  25
ENDBRANCH  20  23
ENDBRANCH  19  20
ENDBRANCH  17  19
BRANCH  17  26
ATOM     26  C   UNL     1       1.869  -4.407  -0.709  0.00  0.00    -0.002 C 
BRANCH  26  27
ATOM     27  C   UNL     1       0.938  -3.896   0.360  0.00  0.00    +0.089 A 
ATOM     28  C   UNL     1       0.024  -4.627   1.023  0.00  0.00    +0.042 A 
ATOM     29  C   UNL     1      -0.623  -3.754   1.928  0.00  0.00    +0.041 A 
ATOM     30  C   UNL     1      -0.065  -2.541   1.764  0.00  0.00    +0.195 A 
ATOM     31  O   UNL     1       0.883  -2.634   0.817  0.00  0.00    -0.470 OA
ENDBRANCH  26  27
ENDBRANCH  17  26
ENDBRANCH  16  17
ENDBRANCH   1  16
BRANCH  13  32
ATOM     32  C   UNL     1       1.047 -14.477  -1.320  0.00  0.00    +0.120 C 
BRANCH  32  33
ATOM     33  C   UNL     1      -0.405 -14.804  -1.081  0.00  0.00    -0.033 A 
ATOM     34  C   UNL     1      -0.974 -14.557   0.155  0.00  0.00    +0.005 A 
ATOM     35  C   UNL     1      -2.305 -14.856   0.374  0.00  0.00    +0.000 A 
ATOM     36  C   UNL     1      -3.068 -15.402  -0.641  0.00  0.00    +0.000 A 
ATOM     37  C   UNL     1      -2.499 -15.648  -1.877  0.00  0.00    +0.000 A 
ATOM     38  C   UNL     1      -1.168 -15.345  -2.098  0.00  0.00    +0.005 A 
ENDBRANCH  32  33
ENDBRANCH  13  32
TORSDOF 11
