REMARK  Name = ZINC23151969
REMARK  9 active torsions:
REMARK  status: ('A' for Active; 'I' for Inactive)
REMARK    1  A    between atoms: C_1  and  C_2
REMARK    2  A    between atoms: C_7  and  C_9
REMARK    3  A    between atoms: C_7  and  C_10
REMARK    4  A    between atoms: N_13  and  C_17
REMARK    5  A    between atoms: C_17  and  C_18
REMARK    6  A    between atoms: N_20  and  C_21
REMARK    7  A    between atoms: C_26  and  N_27
REMARK    8  A    between atoms: N_27  and  C_28
REMARK    9  A    between atoms: N_27  and  C_29
REMARK                            x       y       z     vdW  Elec       q    Type
REMARK                         _______ _______ _______ _____ _____    ______ ____
ROOT
ATOM      1  C   UNL     1       0.028   1.521   0.009  0.00  0.00    +0.007 C 
ATOM      2  C   UNL     1       0.037  -0.011   0.002  0.00  0.00    -0.011 C 
ATOM      3  C   UNL     1      -1.404  -0.525   0.017  0.00  0.00    +0.038 C 
ATOM      4  C   UNL     1      -1.407  -2.047  -0.040  0.00  0.00    +0.113 C 
ATOM      5  C   UNL     1      -0.563  -2.678   1.049  0.00  0.00    +0.041 C 
ATOM      6  C   UNL     1       0.798  -2.042   1.274  0.00  0.00    -0.032 C 
ATOM      7  C   UNL     1       0.746  -0.519   1.255  0.00  0.00    +0.009 C 
ATOM      8  C   UNL     1       1.304  -2.478   2.667  0.00  0.00    +0.011 C 
ATOM      9  C   UNL     1       1.810  -2.546   0.241  0.00  0.00    +0.011 C 
ATOM     10  C   UNL     1      -1.024  -2.535  -1.415  0.00  0.00    +0.247 C 
ATOM     11  O   UNL     1      -0.033  -2.261  -2.059  0.00  0.00    -0.273 OA
ATOM     12  N   UNL     1      -2.034  -3.337  -1.815  0.00  0.00    -0.215 N 
ATOM     13  C   UNL     1      -3.050  -3.316  -0.945  0.00  0.00    +0.310 C 
ATOM     14  O   UNL     1      -4.079  -3.946  -1.093  0.00  0.00    -0.252 OA
ATOM     15  N   UNL     1      -2.801  -2.523   0.111  0.00  0.00    -0.285 N 
ATOM     16  H   UNL     1      -3.403  -2.299   0.835  0.00  0.00    +0.151 HD
ENDROOT
BRANCH  12  17
ATOM     17  C   UNL     1      -2.017  -4.128  -3.047  0.00  0.00    +0.214 C 
BRANCH  17  18
ATOM     18  C   UNL     1      -1.428  -5.486  -2.764  0.00  0.00    +0.235 C 
ATOM     19  O   UNL     1      -1.059  -5.765  -1.643  0.00  0.00    -0.274 OA
ATOM     20  N   UNL     1      -1.311  -6.390  -3.757  0.00  0.00    -0.283 N 
ATOM     21  H   UNL     1      -1.679  -6.198  -4.634  0.00  0.00    +0.155 HD
BRANCH  20  22
ATOM     22  C   UNL     1      -0.659  -7.609  -3.522  0.00  0.00    +0.055 A 
ATOM     23  C   UNL     1       0.286  -7.708  -2.511  0.00  0.00    +0.025 A 
ATOM     24  C   UNL     1       0.928  -8.910  -2.282  0.00  0.00    +0.002 A 
ATOM     25  C   UNL     1       0.632 -10.016  -3.057  0.00  0.00    +0.002 A 
ATOM     26  C   UNL     1      -0.308  -9.927  -4.066  0.00  0.00    +0.025 A 
ATOM     27  C   UNL     1      -0.962  -8.726  -4.300  0.00  0.00    +0.051 A 
BRANCH  27  28
ATOM     28  N   UNL     1      -1.918  -8.634  -5.317  0.00  0.00    -0.335 N 
ATOM     29  C   UNL     1      -3.327  -8.913  -5.026  0.00  0.00    +0.129 C 
ATOM     30  C   UNL     1      -1.511  -8.258  -6.673  0.00  0.00    +0.129 C 
ENDBRANCH  27  28
ENDBRANCH  20  22
ENDBRANCH  17  18
ENDBRANCH  12  17
TORSDOF 4
