REMARK  Name = ZINC20633896
REMARK  5 active torsions:
REMARK  status: ('A' for Active; 'I' for Inactive)
REMARK    1  A    between atoms: C_1  and  C_2
REMARK    2  A    between atoms: C_9  and  C_11
REMARK    3  A    between atoms: C_12  and  C_13
REMARK    4  A    between atoms: C_23  and  C_27
REMARK    5  A    between atoms: C_23  and  C_28
REMARK                            x       y       z     vdW  Elec       q    Type
REMARK                         _______ _______ _______ _____ _____    ______ ____
ROOT
ATOM      1  C   UNL     1      -3.572   0.735  -3.642  0.00  0.00    +0.066 C 
ATOM      2  C   UNL     1      -2.093   0.448  -3.642  0.00  0.00    +0.054 A 
ATOM      3  C   UNL     1      -1.426   0.128  -2.452  0.00  0.00    +0.060 A 
ATOM      4  C   UNL     1      -0.053  -0.136  -2.493  0.00  0.00    +0.058 A 
ATOM      5  N   UNL     1       0.569  -0.067  -3.658  0.00  0.00    -0.218 NA
ATOM      6  C   UNL     1      -0.095   0.240  -4.764  0.00  0.00    +0.222 A 
ATOM      7  N   UNL     1      -1.397   0.492  -4.763  0.00  0.00    -0.219 NA
ATOM      8  N   UNL     1       0.596   0.300  -5.961  0.00  0.00    -0.251 N 
ATOM      9  C   UNL     1      -0.055   0.611  -7.100  0.00  0.00    +0.243 C 
ATOM     10  O   UNL     1      -1.250   0.838  -7.075  0.00  0.00    -0.270 OA
ATOM     11  C   UNL     1       0.717  -0.496  -1.254  0.00  0.00    +0.063 C 
ATOM     12  C   UNL     1       0.002  -0.004   0.002  0.00  0.00    -0.022 C 
ATOM     13  C   UNL     1      -1.437  -0.535   0.013  0.00  0.00    +0.086 C 
ATOM     14  C   UNL     1      -2.155   0.071  -1.176  0.00  0.00    +0.167 C 
ATOM     15  O   UNL     1      -3.288   0.493  -1.080  0.00  0.00    -0.292 OA
ATOM     16  C   UNL     1      -0.019   1.526   0.010  0.00  0.00    +0.011 C 
ATOM     17  C   UNL     1       0.742  -0.511   1.242  0.00  0.00    +0.011 C 
ATOM     18  H   UNL     1       1.676   0.095  -5.984  0.00  0.00    +0.158 HD
ENDROOT
BRANCH   9  19
ATOM     19  C   UNL     1       0.675   0.674  -8.364  0.00  0.00    +0.068 C 
ATOM     20  C   UNL     1       0.023   0.985  -9.505  0.00  0.00    +0.013 C 
BRANCH  20  21
ATOM     21  C   UNL     1       0.757   1.049 -10.777  0.00  0.00    -0.021 A 
ATOM     22  C   UNL     1       2.131   0.788 -10.809  0.00  0.00    +0.012 A 
ATOM     23  C   UNL     1       2.816   0.848 -12.002  0.00  0.00    +0.050 A 
ATOM     24  C   UNL     1       2.148   1.168 -13.177  0.00  0.00    +0.166 A 
ATOM     25  C   UNL     1       0.777   1.429 -13.153  0.00  0.00    +0.167 A 
ATOM     26  C   UNL     1       0.082   1.365 -11.962  0.00  0.00    +0.057 A 
ATOM     27  O   UNL     1       0.366   1.715 -14.424  0.00  0.00    -0.453 OA
ATOM     28  C   UNL     1       1.412   1.226 -15.284  0.00  0.00    +0.466 C 
ATOM     29  O   UNL     1       2.592   1.290 -14.461  0.00  0.00    -0.453 OA
ENDBRANCH  20  21
ENDBRANCH   9  19
TORSDOF 2
