REMARK  Name = ZINC15866433
REMARK  3 active torsions:
REMARK  status: ('A' for Active; 'I' for Inactive)
REMARK    1  A    between atoms: C_1  and  C_2
REMARK    2  A    between atoms: C_6  and  C_8
REMARK    3  A    between atoms: C_11  and  C_19
REMARK                            x       y       z     vdW  Elec       q    Type
REMARK                         _______ _______ _______ _____ _____    ______ ____
ROOT
ATOM      1  C   UNL     1       1.191   5.288   1.968  0.00  0.00    +0.144 C 
ATOM      2  C   UNL     1       2.482   4.663   1.424  0.00  0.00    +0.059 C 
ATOM      3  C   UNL     1       2.247   4.143   0.002  0.00  0.00    +0.112 C 
ATOM      4  N   UNL     1       1.900   5.284  -0.868  0.00  0.00    -0.305 N 
ATOM      5  C   UNL     1       0.999   6.200  -0.344  0.00  0.00    +0.236 A 
ATOM      6  N   UNL     1       0.659   6.211   0.970  0.00  0.00    -0.206 N 
ATOM      7  N   UNL     1      -0.258   7.253   1.109  0.00  0.00    -0.042 NA
ATOM      8  N   UNL     1      -0.402   7.776  -0.066  0.00  0.00    -0.021 NA
ATOM      9  N   UNL     1       0.336   7.160  -0.925  0.00  0.00    -0.092 NA
ATOM     10  H   UNL     1       2.280   5.387  -1.754  0.00  0.00    +0.150 HD
ENDROOT
BRANCH   1  16
ATOM     11  C   UNL     1       0.457   5.966   6.872  0.00  0.00    +0.044 C 
ATOM     12  C   UNL     1       1.138   6.362   5.587  0.00  0.00    -0.050 A 
ATOM     13  C   UNL     1       2.036   7.413   5.576  0.00  0.00    +0.003 A 
ATOM     14  C   UNL     1       2.661   7.776   4.398  0.00  0.00    +0.001 A 
ATOM     15  C   UNL     1       2.387   7.088   3.230  0.00  0.00    +0.006 A 
ATOM     16  C   UNL     1       1.489   6.038   3.241  0.00  0.00    -0.023 A 
ATOM     17  C   UNL     1       0.860   5.678   4.418  0.00  0.00    +0.009 A 
ENDBRANCH   1  16
BRANCH   3  18
ATOM     18  C   UNL     1       1.115   3.148   0.008  0.00  0.00    +0.011 A 
ATOM     19  C   UNL     1       1.169   1.794   0.001  0.00  0.00    +0.014 A 
ATOM     20  C   UNL     1      -0.013   1.076   0.008  0.00  0.00    +0.023 A 
ATOM     21  C   UNL     1      -1.190   1.748   0.017  0.00  0.00    +0.055 A 
ATOM     22  S   UNL     1      -0.644   3.448   0.026  0.00  0.00    -0.085 S 
ATOM     23 BR   UNL     1      -2.953   1.064   0.021  0.00  0.00    -0.043 Br
ENDBRANCH   3  18
TORSDOF 2
