REMARK  Name = ZINC10002377
REMARK  10 active torsions:
REMARK  status: ('A' for Active; 'I' for Inactive)
REMARK    1  A    between atoms: C_1  and  C_2
REMARK    2  A    between atoms: C_2  and  C_3
REMARK    3  A    between atoms: C_2  and  C_4
REMARK    4  A    between atoms: C_4  and  C_5
REMARK    5  A    between atoms: C_5  and  C_7
REMARK    6  A    between atoms: C_5  and  N_23
REMARK    7  A    between atoms: N_9  and  N_10
REMARK    8  A    between atoms: C_11  and  C_12
REMARK    9  A    between atoms: C_21  and  O_22
REMARK   10  A    between atoms: C_24  and  C_26
REMARK                            x       y       z     vdW  Elec       q    Type
REMARK                         _______ _______ _______ _____ _____    ______ ____
ROOT
ATOM      1  C   UNL     1       0.019   1.211  -2.468  0.00  0.00    +0.253 C 
ATOM      2  O   UNL     1      -0.495   0.506  -3.311  0.00  0.00    -0.272 OA
ATOM      3  N   UNL     1       1.281   1.654  -2.639  0.00  0.00    -0.205 N 
ATOM      4  H   UNL     1       1.692   2.218  -1.965  0.00  0.00    +0.177 HD
ENDROOT
BRANCH   3   5
ATOM      5  N   UNL     1       1.998   1.299  -3.788  0.00  0.00    -0.188 NA
ATOM      6  C   UNL     1       3.215   1.726  -3.953  0.00  0.00    +0.142 C 
BRANCH   6   7
ATOM      7  C   UNL     1       3.968   1.354  -5.159  0.00  0.00    +0.044 A 
ATOM      8  C   UNL     1       5.337   1.825  -5.360  0.00  0.00    -0.006 A 
ATOM      9  C   UNL     1       5.974   2.641  -4.417  0.00  0.00    +0.009 A 
ATOM     10  C   UNL     1       7.252   3.059  -4.642  0.00  0.00    +0.001 A 
ATOM     11  C   UNL     1       7.934   2.685  -5.798  0.00  0.00    +0.001 A 
ATOM     12  C   UNL     1       7.344   1.892  -6.734  0.00  0.00    +0.008 A 
ATOM     13  C   UNL     1       6.027   1.443  -6.536  0.00  0.00    -0.017 A 
ATOM     14  C   UNL     1       5.385   0.623  -7.481  0.00  0.00    +0.012 A 
ATOM     15  C   UNL     1       4.112   0.194  -7.278  0.00  0.00    +0.046 A 
ATOM     16  C   UNL     1       3.393   0.539  -6.134  0.00  0.00    +0.126 A 
BRANCH  16  17
ATOM     17  O   UNL     1       2.125   0.083  -5.971  0.00  0.00    -0.506 OA
ATOM     18  H   UNL     1       1.447   0.666  -6.338  0.00  0.00    +0.292 HD
ENDBRANCH  16  17
ENDBRANCH   6   7
ENDBRANCH   3   5
BRANCH   1  19
ATOM     19  C   UNL     1      -0.753   1.593  -1.232  0.00  0.00    +0.161 C 
BRANCH  19  20
ATOM     20  N   UNL     1      -2.087   0.991  -1.284  0.00  0.00    -0.300 N 
ATOM     21  C   UNL     1      -3.107   1.552  -0.604  0.00  0.00    +0.245 C 
ATOM     22  O   UNL     1      -2.919   2.558   0.052  0.00  0.00    -0.270 OA
ATOM     23  H   UNL     1      -2.237   0.188  -1.807  0.00  0.00    +0.150 HD
BRANCH  21  24
ATOM     24  C   UNL     1      -4.453   0.945  -0.657  0.00  0.00    +0.037 A 
ATOM     25  C   UNL     1      -4.673  -0.207  -1.414  0.00  0.00    +0.014 A 
ATOM     26  C   UNL     1      -5.930  -0.773  -1.454  0.00  0.00    +0.021 A 
ATOM     27  C   UNL     1      -6.976  -0.194  -0.755  0.00  0.00    +0.041 A 
ATOM     28  C   UNL     1      -6.765   0.953  -0.007  0.00  0.00    +0.021 A 
ATOM     29  C   UNL     1      -5.511   1.524   0.046  0.00  0.00    +0.014 A 
ATOM     30 CL   UNL     1      -8.557  -0.907  -0.817  0.00  0.00    -0.084 Cl
ENDBRANCH  21  24
ENDBRANCH  19  20
BRANCH  19  31
ATOM     31  C   UNL     1      -0.013   1.086   0.008  0.00  0.00    +0.034 C 
BRANCH  31  33
ATOM     32  C   UNL     1      -0.064   0.971   2.503  0.00  0.00    +0.007 C 
ATOM     33  C   UNL     1      -0.729   1.579   1.267  0.00  0.00    -0.015 C 
ATOM     34  C   UNL     1      -0.641   3.105   1.339  0.00  0.00    +0.007 C 
ENDBRANCH  31  33
ENDBRANCH  19  31
ENDBRANCH   1  19
TORSDOF 8
