REMARK  Name = ZINC61848763
REMARK  4 active torsions:
REMARK  status: ('A' for Active; 'I' for Inactive)
REMARK    1  A    between atoms: C_3  and  C_17
REMARK    2  A    between atoms: C_6  and  S_7
REMARK    3  A    between atoms: S_7  and  C_8
REMARK    4  A    between atoms: C_12  and  N_14
REMARK                            x       y       z     vdW  Elec       q    Type
REMARK                         _______ _______ _______ _____ _____    ______ ____
ROOT
ATOM      1  C   UNL     1      -1.012  -2.585  -0.151  0.00  0.00    +0.196 A 
ATOM      2  N   UNL     1       0.280  -2.877  -0.138  0.00  0.00    -0.207 NA
ATOM      3  C   UNL     1       0.695  -4.136  -0.258  0.00  0.00    +0.122 A 
ATOM      4  C   UNL     1      -0.248  -5.150  -0.399  0.00  0.00    +0.086 A 
ATOM      5  C   UNL     1      -1.596  -4.804  -0.407  0.00  0.00    +0.122 A 
ATOM      6  N   UNL     1      -1.938  -3.524  -0.277  0.00  0.00    -0.207 NA
ATOM      7  N   UNL     1       2.049  -4.433  -0.245  0.00  0.00    -0.343 N 
ATOM      8  H   UNL     1       2.701  -3.721  -0.147  0.00  0.00    +0.144 HD
ATOM      9  H   UNL     1       2.345  -5.352  -0.333  0.00  0.00    +0.144 HD
ENDROOT
BRANCH   5  10
ATOM     10  N   UNL     1      -2.571  -5.780  -0.545  0.00  0.00    -0.343 N 
ATOM     11  H   UNL     1      -2.315  -6.712  -0.635  0.00  0.00    +0.144 HD
ATOM     12  H   UNL     1      -3.508  -5.532  -0.550  0.00  0.00    +0.144 HD
ENDBRANCH   5  10
BRANCH   1  13
ATOM     13  S   UNL     1      -1.513  -0.903   0.012  0.00  0.00    -0.050 S 
BRANCH  13  19
ATOM     14  C   UNL     1       0.584   0.358  -1.214  0.00  0.00    +0.016 A 
ATOM     15  C   UNL     1       1.758   1.055  -1.233  0.00  0.00    +0.017 A 
ATOM     16  C   UNL     1       2.382   1.410  -0.031  0.00  0.00    +0.081 A 
ATOM     17  C   UNL     1       1.798   1.047   1.191  0.00  0.00    +0.056 A 
ATOM     18  C   UNL     1       0.614   0.344   1.201  0.00  0.00    +0.036 A 
ATOM     19  C   UNL     1       0.002  -0.004  -0.001  0.00  0.00    +0.017 A 
ATOM     20 CL   UNL     1       2.565   1.482   2.686  0.00  0.00    -0.083 Cl
BRANCH  16  21
ATOM     21  C   UNL     1       3.646   2.160  -0.050  0.00  0.00    +0.388 C 
ATOM     22  O   UNL     1       4.154   2.475  -1.117  0.00  0.00    -0.241 OA
ATOM     23  O   UNL     1       4.190   2.469   1.002  0.00  0.00    -0.241 OA
ENDBRANCH  16  21
ENDBRANCH  13  19
ENDBRANCH   1  13
TORSDOF 4
