REMARK  Name = ZINC39597941
REMARK  7 active torsions:
REMARK  status: ('A' for Active; 'I' for Inactive)
REMARK    1  A    between atoms: C_1  and  C_2
REMARK    2  A    between atoms: C_4  and  C_9
REMARK    3  A    between atoms: C_5  and  C_8
REMARK    4  A    between atoms: C_13  and  C_22
REMARK    5  A    between atoms: N_24  and  C_25
REMARK    6  A    between atoms: C_25  and  C_26
REMARK    7  A    between atoms: C_26  and  C_27
REMARK                            x       y       z     vdW  Elec       q    Type
REMARK                         _______ _______ _______ _____ _____    ______ ____
ROOT
ATOM      1  C   UNL     1       0.374  -0.080  -2.545  0.00  0.00    +0.247 C 
ATOM      2  O   UNL     1       1.001  -0.592  -3.455  0.00  0.00    -0.270 OA
ATOM      3  N   UNL     1      -0.613   0.796  -2.815  0.00  0.00    -0.296 N 
ATOM      4  C   UNL     1      -1.406   1.597  -1.853  0.00  0.00    +0.121 C 
ATOM      5  C   UNL     1      -1.571   2.974  -2.533  0.00  0.00    +0.100 C 
ATOM      6  C   UNL     1      -1.404   2.692  -4.036  0.00  0.00    -0.004 C 
ATOM      7  C   UNL     1      -1.146   1.182  -4.144  0.00  0.00    +0.115 C 
ATOM      8  C   UNL     1      -0.211   3.466  -4.589  0.00  0.00    -0.010 C 
ATOM      9  C   UNL     1      -0.100   3.214  -6.096  0.00  0.00    -0.082 C 
ATOM     10  N   UNL     1      -1.338   3.644  -6.758  0.00  0.00    +0.379 N 
ATOM     11  C   UNL     1      -2.466   2.832  -6.287  0.00  0.00    -0.082 C 
ATOM     12  C   UNL     1      -2.677   3.067  -4.788  0.00  0.00    -0.010 C 
ATOM     13  H   UNL     1      -1.512   4.615  -6.545  0.00  0.00    -0.086 HD
ATOM     14  H   UNL     1      -1.240   3.534  -7.756  0.00  0.00    -0.086 HD
ENDROOT
BRANCH   1  17
ATOM     15  C   UNL     1       3.165  -0.193  -1.029  0.00  0.00    +0.046 C 
ATOM     16  C   UNL     1       1.823   0.154  -0.382  0.00  0.00    +0.182 C 
ATOM     17  C   UNL     1       0.683  -0.406  -1.203  0.00  0.00    +0.066 C 
ATOM     18  C   UNL     1       0.017  -1.273  -0.417  0.00  0.00    +0.046 C 
ATOM     19  N   UNL     1       0.585  -1.346   0.817  0.00  0.00    -0.269 N 
ATOM     20  O   UNL     1       1.707  -0.483   0.899  0.00  0.00    -0.266 OA
ATOM     21  C   UNL     1      -1.196  -2.058  -0.846  0.00  0.00    +0.066 C 
ATOM     22  H   UNL     1       0.266  -1.909   1.540  0.00  0.00    +0.194 HD
ENDBRANCH   1  17
BRANCH   5  23
ATOM     23  C   UNL     1      -0.505   3.927  -2.054  0.00  0.00    +0.218 C 
ATOM     24  O   UNL     1       0.556   3.498  -1.653  0.00  0.00    -0.275 OA
ATOM     25  N   UNL     1      -0.732   5.255  -2.072  0.00  0.00    -0.315 N 
ATOM     26  H   UNL     1      -1.580   5.598  -2.393  0.00  0.00    +0.149 HD
BRANCH  25  27
ATOM     27  C   UNL     1       0.304   6.181  -1.607  0.00  0.00    +0.109 C 
BRANCH  27  28
ATOM     28  C   UNL     1      -0.204   7.619  -1.732  0.00  0.00    +0.056 C 
BRANCH  28  29
ATOM     29  C   UNL     1       0.861   8.571  -1.253  0.00  0.00    -0.021 A 
ATOM     30  C   UNL     1       1.975   9.102  -2.043  0.00  0.00    +0.003 A 
ATOM     31  C   UNL     1       2.394   8.934  -3.364  0.00  0.00    +0.010 A 
ATOM     32  C   UNL     1       3.507   9.588  -3.811  0.00  0.00    +0.001 A 
ATOM     33  C   UNL     1       4.225  10.419  -2.962  0.00  0.00    +0.002 A 
ATOM     34  C   UNL     1       3.829  10.599  -1.654  0.00  0.00    +0.026 A 
ATOM     35  C   UNL     1       2.699   9.943  -1.178  0.00  0.00    +0.047 A 
ATOM     36  N   UNL     1       2.062   9.916   0.042  0.00  0.00    -0.360 N 
ATOM     37  C   UNL     1       0.967   9.099  -0.023  0.00  0.00    +0.087 A 
ATOM     38  H   UNL     1       2.345  10.407   0.829  0.00  0.00    +0.165 HD
ENDBRANCH  28  29
ENDBRANCH  27  28
ENDBRANCH  25  27
ENDBRANCH   5  23
TORSDOF 5
