REMARK  Name = ZINC55189034
REMARK  5 active torsions:
REMARK  status: ('A' for Active; 'I' for Inactive)
REMARK    1  A    between atoms: C_2  and  C_7
REMARK    2  A    between atoms: N_9  and  C_10
REMARK    3  A    between atoms: C_10  and  C_11
REMARK    4  A    between atoms: C_11  and  C_17
REMARK    5  A    between atoms: C_17  and  C_18
REMARK                            x       y       z     vdW  Elec       q    Type
REMARK                         _______ _______ _______ _____ _____    ______ ____
ROOT
ATOM      1  C   UNL     1       1.835   6.102  -1.395  0.00  0.00    +0.263 C 
ATOM      2  O   UNL     1       1.018   5.593  -0.651  0.00  0.00    -0.269 OA
ATOM      3  N   UNL     1       3.152   5.929  -1.168  0.00  0.00    -0.310 N 
ATOM      4  H   UNL     1       3.804   6.335  -1.761  0.00  0.00    +0.149 HD
ENDROOT
BRANCH   1   6
ATOM      5  C   UNL     1       0.047   7.087  -2.784  0.00  0.00    +0.081 A 
ATOM      6  C   UNL     1       1.385   6.905  -2.543  0.00  0.00    +0.135 A 
ATOM      7  N   UNL     1       2.273   7.468  -3.365  0.00  0.00    -0.221 NA
ATOM      8  C   UNL     1       1.886   8.190  -4.397  0.00  0.00    +0.156 A 
ATOM      9  S   UNL     1       0.107   8.108  -4.250  0.00  0.00    -0.060 S 
ATOM     10  N   UNL     1       2.655   8.843  -5.346  0.00  0.00    -0.338 N 
ATOM     11  H   UNL     1       3.623   8.799  -5.299  0.00  0.00    +0.144 HD
ATOM     12  H   UNL     1       2.227   9.343  -6.058  0.00  0.00    +0.144 HD
ENDBRANCH   1   6
BRANCH   3  13
ATOM     13  C   UNL     1       3.600   5.129  -0.025  0.00  0.00    +0.112 C 
BRANCH  13  14
ATOM     14  C   UNL     1       5.122   4.978  -0.073  0.00  0.00    -0.004 C 
ATOM     15  C   UNL     1       5.584   4.099   1.091  0.00  0.00    +0.009 C 
ATOM     16  C   UNL     1       5.178   4.750   2.414  0.00  0.00    +0.001 C 
ATOM     17  C   UNL     1       5.831   6.129   2.526  0.00  0.00    +0.000 C 
ATOM     18  C   UNL     1       5.368   7.008   1.362  0.00  0.00    +0.001 C 
ATOM     19  C   UNL     1       5.775   6.357   0.038  0.00  0.00    +0.009 C 
BRANCH  14  20
ATOM     20  C   UNL     1       5.528   4.327  -1.397  0.00  0.00    +0.133 C 
BRANCH  20  21
ATOM     21  C   UNL     1       7.021   4.122  -1.418  0.00  0.00    +0.357 C 
ATOM     22  O   UNL     1       7.709   4.559  -0.512  0.00  0.00    -0.246 OA
ATOM     23  O   UNL     1       7.540   3.518  -2.341  0.00  0.00    -0.246 OA
ENDBRANCH  20  21
ENDBRANCH  14  20
ENDBRANCH  13  14
ENDBRANCH   3  13
TORSDOF 5
