REMARK  Name = ZINC30976639
REMARK  11 active torsions:
REMARK  status: ('A' for Active; 'I' for Inactive)
REMARK    1  A    between atoms: C_1  and  C_2
REMARK    2  A    between atoms: C_2  and  C_3
REMARK    3  A    between atoms: C_3  and  C_5
REMARK    4  A    between atoms: C_3  and  N_15
REMARK    5  A    between atoms: C_8  and  S_11
REMARK    6  A    between atoms: S_11  and  C_14
REMARK    7  A    between atoms: C_16  and  C_18
REMARK    8  A    between atoms: N_21  and  C_24
REMARK    9  A    between atoms: C_24  and  C_25
REMARK   10  A    between atoms: C_27  and  C_30
REMARK   11  A    between atoms: C_33  and  C_36
REMARK                            x       y       z     vdW  Elec       q    Type
REMARK                         _______ _______ _______ _____ _____    ______ ____
ROOT
ATOM      1  C   UNL     1      -0.898   4.237   8.319  0.00  0.00    +0.071 C 
ATOM      2  C   UNL     1       0.490   3.623   8.116  0.00  0.00    -0.006 C 
ATOM      3  C   UNL     1       1.481   4.290   9.072  0.00  0.00    -0.077 C 
ATOM      4  N   UNL     1       1.036   4.093  10.457  0.00  0.00    +0.386 N 
ATOM      5  C   UNL     1      -0.273   4.715  10.688  0.00  0.00    -0.077 C 
ATOM      6  C   UNL     1      -1.318   4.061   9.781  0.00  0.00    -0.006 C 
ATOM      7  H   UNL     1       0.928   3.011  10.623  0.00  0.00    -0.081 HD
ENDROOT
BRANCH   1   9
ATOM      8  N   UNL     1      -1.724   3.566   6.085  0.00  0.00    -0.308 N 
ATOM      9  C   UNL     1      -1.892   3.543   7.423  0.00  0.00    +0.216 C 
ATOM     10  O   UNL     1      -2.842   2.964   7.905  0.00  0.00    -0.276 OA
ATOM     11  H   UNL     1      -0.862   4.091   5.648  0.00  0.00    +0.149 HD
BRANCH   8  12
ATOM     12  C   UNL     1      -2.690   2.891   5.215  0.00  0.00    +0.103 C 
BRANCH  12  13
ATOM     13  C   UNL     1      -2.022   2.523   3.915  0.00  0.00    -0.027 A 
ATOM     14  C   UNL     1      -2.295   1.306   3.318  0.00  0.00    +0.007 A 
ATOM     15  C   UNL     1      -1.683   0.968   2.126  0.00  0.00    +0.027 A 
ATOM     16  C   UNL     1      -0.798   1.847   1.530  0.00  0.00    +0.088 A 
ATOM     17  C   UNL     1      -0.521   3.062   2.129  0.00  0.00    +0.027 A 
ATOM     18  C   UNL     1      -1.137   3.402   3.319  0.00  0.00    +0.007 A 
BRANCH  16  19
ATOM     19  S   UNL     1      -0.017   1.417   0.010  0.00  0.00    -0.006 S 
ATOM     20  O   UNL     1       0.002  -0.004   0.002  0.00  0.00    -0.170 OA
ATOM     21  O   UNL     1       1.195   2.158   0.002  0.00  0.00    -0.170 OA
ATOM     22  C   UNL     1      -1.135   2.034  -1.279  0.00  0.00    +0.200 C 
ENDBRANCH  16  19
ENDBRANCH  12  13
BRANCH  12  24
ATOM     23  C   UNL     1      -4.620   4.103   6.239  0.00  0.00    +0.006 C 
ATOM     24  C   UNL     1      -3.867   3.828   4.936  0.00  0.00    +0.024 C 
ENDBRANCH  12  24
ENDBRANCH   8  12
ENDBRANCH   1   9
BRANCH   4  25
ATOM     25  C   UNL     1       2.035   4.599  11.408  0.00  0.00    +0.022 C 
BRANCH  25  26
ATOM     26  C   UNL     1       3.290   3.771  11.307  0.00  0.00    +0.211 A 
ATOM     27  N   UNL     1       4.310   3.997  10.517  0.00  0.00    -0.193 NA
ATOM     28  C   UNL     1       5.192   3.005  10.771  0.00  0.00    +0.202 A 
ATOM     29  N   UNL     1       4.662   2.242  11.691  0.00  0.00    -0.056 NA
ATOM     30  O   UNL     1       3.574   2.672  12.012  0.00  0.00    -0.340 OA
BRANCH  28  31
ATOM     31  C   UNL     1       6.515   2.816  10.125  0.00  0.00    +0.022 A 
ATOM     32  C   UNL     1       6.951   3.710   9.149  0.00  0.00    +0.012 A 
ATOM     33  C   UNL     1       8.184   3.533   8.555  0.00  0.00    +0.004 A 
ATOM     34  C   UNL     1       8.983   2.464   8.920  0.00  0.00    -0.050 A 
ATOM     35  C   UNL     1       8.553   1.570   9.884  0.00  0.00    +0.004 A 
ATOM     36  C   UNL     1       7.324   1.741  10.488  0.00  0.00    +0.012 A 
ATOM     37  C   UNL     1      10.326   2.271   8.263  0.00  0.00    +0.044 C 
ENDBRANCH  28  31
ENDBRANCH  25  26
ENDBRANCH   4  25
TORSDOF 8
