REMARK  Name = ZINC12047690
REMARK  6 active torsions:
REMARK  status: ('A' for Active; 'I' for Inactive)
REMARK    1  A    between atoms: C_3  and  N_7
REMARK    2  A    between atoms: C_11  and  C_12
REMARK    3  A    between atoms: C_12  and  N_62
REMARK    4  A    between atoms: C_19  and  C_23
REMARK    5  A    between atoms: C_23  and  C_25
REMARK    6  A    between atoms: C_23  and  O_31
REMARK                            x       y       z     vdW  Elec       q    Type
REMARK                         _______ _______ _______ _____ _____    ______ ____
ROOT
ATOM      1  C   UNL     1      -0.391  -6.852   2.141  0.00  0.00    -0.036 C 
ATOM      2  C   UNL     1      -0.144  -6.716   0.654  0.00  0.00    +0.210 C 
ATOM      3  O   UNL     1      -1.291  -6.164  -0.004  0.00  0.00    -0.494 OA
ATOM      4  C   UNL     1      -1.361  -4.805  -0.010  0.00  0.00    +0.122 A 
ATOM      5  C   UNL     1      -1.180  -4.103  -1.194  0.00  0.00    +0.046 A 
ATOM      6  C   UNL     1      -1.207  -2.721  -1.181  0.00  0.00    +0.010 A 
ATOM      7  C   UNL     1      -1.413  -2.041   0.005  0.00  0.00    -0.018 A 
ATOM      8  C   UNL     1      -1.595  -2.740   1.185  0.00  0.00    +0.011 A 
ATOM      9  C   UNL     1      -1.580  -4.120   1.169  0.00  0.00    -0.022 A 
ATOM     10  C   UNL     1      -1.812  -4.899   2.450  0.00  0.00    -0.039 C 
ATOM     11  N   UNL     1      -0.533  -5.549   2.823  0.00  0.00    +0.388 N 
ATOM     12  H   UNL     1       0.243  -4.940   2.536  0.00  0.00    -0.081 HD
ENDROOT
BRANCH  11  13
ATOM     13  C   UNL     1      -0.473  -5.739   4.282  0.00  0.00    -0.023 C 
BRANCH  13  18
ATOM     14  N   UNL     1       0.655  -8.008   4.642  0.00  0.00    -0.320 N 
ATOM     15  C   UNL     1       1.896  -8.467   4.980  0.00  0.00    +0.091 A 
ATOM     16  C   UNL     1       2.702  -7.402   5.170  0.00  0.00    +0.020 A 
ATOM     17  C   UNL     1       1.933  -6.244   4.936  0.00  0.00    +0.021 A 
ATOM     18  C   UNL     1       0.687  -6.643   4.612  0.00  0.00    +0.007 A 
BRANCH  14  21
ATOM     19  C   UNL     1      -1.509 -10.626   3.234  0.00  0.00    +0.022 A 
ATOM     20  C   UNL     1      -0.376  -9.862   3.467  0.00  0.00    +0.029 A 
ATOM     21  C   UNL     1      -0.465  -8.806   4.369  0.00  0.00    +0.064 A 
ATOM     22  C   UNL     1      -1.681  -8.550   4.989  0.00  0.00    +0.136 A 
ATOM     23  N   UNL     1      -2.736  -9.297   4.735  0.00  0.00    -0.261 NA
ATOM     24  C   UNL     1      -2.684 -10.309   3.890  0.00  0.00    +0.111 A 
ENDBRANCH  14  21
ENDBRANCH  13  18
ENDBRANCH  11  13
BRANCH   7  25
ATOM     25  C   UNL     1      -1.433  -0.534   0.013  0.00  0.00    +0.148 C 
BRANCH  25  26
ATOM     26  C   UNL     1       0.002  -0.004   0.002  0.00  0.00    +0.022 C 
ATOM     27  C   UNL     1      -0.019   1.526   0.010  0.00  0.00    +0.006 C 
ATOM     28  C   UNL     1       1.417   2.055  -0.000  0.00  0.00    +0.000 C 
ATOM     29  C   UNL     1       2.157   1.548   1.239  0.00  0.00    +0.000 C 
ATOM     30  C   UNL     1       2.178   0.019   1.231  0.00  0.00    +0.000 C 
ATOM     31  C   UNL     1       0.742  -0.511   1.242  0.00  0.00    +0.006 C 
ENDBRANCH  25  26
BRANCH  25  32
ATOM     32  O   UNL     1      -2.124  -0.060  -1.145  0.00  0.00    -0.387 OA
ATOM     33  H   UNL     1      -1.725  -0.336  -1.981  0.00  0.00    +0.210 HD
ENDBRANCH  25  32
ENDBRANCH   7  25
TORSDOF 6
