REMARK  Name = ZINC13591508
REMARK  10 active torsions:
REMARK  status: ('A' for Active; 'I' for Inactive)
REMARK    1  A    between atoms: C_1  and  C_2
REMARK    2  A    between atoms: C_2  and  O_3
REMARK    3  A    between atoms: O_3  and  C_4
REMARK    4  A    between atoms: C_7  and  N_13
REMARK    5  A    between atoms: C_9  and  O_10
REMARK    6  A    between atoms: O_10  and  C_11
REMARK    7  A    between atoms: C_11  and  C_12
REMARK    8  A    between atoms: C_14  and  C_16
REMARK    9  A    between atoms: C_16  and  N_64
REMARK   10  A    between atoms: C_25  and  C_27
REMARK                            x       y       z     vdW  Elec       q    Type
REMARK                         _______ _______ _______ _____ _____    ______ ____
ROOT
ATOM      1  C   UNL     1      -0.964  -4.982   3.435  0.00  0.00    +0.020 C 
ENDROOT
BRANCH   1  17
ATOM      2  C   UNL     1      -0.801  -4.865   1.020  0.00  0.00    -0.073 C 
ATOM      3  C   UNL     1       0.072  -4.278  -0.090  0.00  0.00    +0.017 C 
ATOM      4  C   UNL     1       0.037  -2.772  -0.030  0.00  0.00    -0.044 A 
ATOM      5  C   UNL     1       0.462  -2.059  -1.142  0.00  0.00    +0.053 A 
ATOM      6  C   UNL     1       0.448  -0.677  -1.126  0.00  0.00    +0.162 A 
ATOM      7  C   UNL     1       0.011  -0.003   0.006  0.00  0.00    +0.162 A 
ATOM      8  C   UNL     1      -0.410  -0.715   1.113  0.00  0.00    +0.051 A 
ATOM      9  C   UNL     1      -0.399  -2.103   1.094  0.00  0.00    -0.054 A 
ATOM     10  C   UNL     1      -0.875  -2.837   2.321  0.00  0.00    -0.040 C 
ATOM     11  C   UNL     1      -0.316  -2.150   3.568  0.00  0.00    -0.008 C 
ATOM     12  O   UNL     1      -0.001   1.362   0.015  0.00  0.00    -0.488 OA
ATOM     13  C   UNL     1       1.278   1.998  -0.001  0.00  0.00    +0.232 C 
ATOM     14  C   UNL     1       1.801   2.124  -1.423  0.00  0.00    +0.082 C 
ATOM     15  C   UNL     1       2.072   0.771  -2.062  0.00  0.00    +0.232 C 
ATOM     16  O   UNL     1       0.858   0.032  -2.217  0.00  0.00    -0.488 OA
ATOM     17  N   UNL     1      -0.399  -4.230   2.293  0.00  0.00    +0.390 N 
ATOM     18  H   UNL     1       0.625  -4.236   2.362  0.00  0.00    -0.080 HD
ENDBRANCH   1  17
BRANCH   1  20
ATOM     19  N   UNL     1      -0.650  -7.205   4.474  0.00  0.00    -0.287 N 
ATOM     20  C   UNL     1      -0.308  -6.338   3.501  0.00  0.00    +0.201 C 
ATOM     21  O   UNL     1       0.526  -6.648   2.677  0.00  0.00    -0.278 OA
ATOM     22  H   UNL     1      -1.268  -6.933   5.171  0.00  0.00    +0.155 HD
BRANCH  19  26
ATOM     23  C   UNL     1       0.953 -11.058   4.486  0.00  0.00    +0.162 A 
ATOM     24  C   UNL     1       1.719  -9.988   4.050  0.00  0.00    +0.051 A 
ATOM     25  C   UNL     1       1.188  -8.713   4.047  0.00  0.00    +0.027 A 
ATOM     26  C   UNL     1      -0.114  -8.499   4.479  0.00  0.00    +0.037 A 
ATOM     27  C   UNL     1      -0.882  -9.567   4.921  0.00  0.00    +0.072 A 
ATOM     28  C   UNL     1      -0.352 -10.847   4.920  0.00  0.00    +0.164 A 
BRANCH  23  29
ATOM     29  O   UNL     1       1.477 -12.313   4.489  0.00  0.00    -0.489 OA
BRANCH  29  31
ATOM     30  C   UNL     1       3.235 -13.928   4.107  0.00  0.00    +0.048 C 
ATOM     31  C   UNL     1       2.823 -12.456   4.031  0.00  0.00    +0.226 C 
ENDBRANCH  29  31
ENDBRANCH  23  29
BRANCH  28  32
ATOM     32  O   UNL     1      -1.105 -11.896   5.348  0.00  0.00    -0.489 OA
BRANCH  32  33
ATOM     33  C   UNL     1      -2.436 -11.606   5.779  0.00  0.00    +0.226 C 
ATOM     34  C   UNL     1      -3.122 -12.900   6.221  0.00  0.00    +0.048 C 
ENDBRANCH  32  33
ENDBRANCH  28  32
ENDBRANCH  19  26
ENDBRANCH   1  20
TORSDOF 7
