REMARK  Name = ZINC36013979
REMARK  14 active torsions:
REMARK  status: ('A' for Active; 'I' for Inactive)
REMARK    1  A    between atoms: C_1  and  C_2
REMARK    2  A    between atoms: C_2  and  N_3
REMARK    3  A    between atoms: C_4  and  C_23
REMARK    4  A    between atoms: C_5  and  C_18
REMARK    5  A    between atoms: C_6  and  C_11
REMARK    6  A    between atoms: C_14  and  C_17
REMARK    7  A    between atoms: C_18  and  O_20
REMARK    8  A    between atoms: O_20  and  C_21
REMARK    9  A    between atoms: C_21  and  C_22
REMARK   10  A    between atoms: C_23  and  N_24
REMARK   11  A    between atoms: N_33  and  C_34
REMARK   12  A    between atoms: C_34  and  C_35
REMARK   13  A    between atoms: C_34  and  C_36
REMARK   14  A    between atoms: C_34  and  C_37
REMARK                            x       y       z     vdW  Elec       q    Type
REMARK                         _______ _______ _______ _____ _____    ______ ____
ROOT
ATOM      1  N   UNL     1      -2.532  -0.323  -0.253  0.00  0.00    -0.261 N 
ATOM      2  C   UNL     1      -2.766  -0.745   1.024  0.00  0.00    +0.010 C 
ATOM      3  C   UNL     1      -3.847  -1.496   1.323  0.00  0.00    +0.076 C 
ATOM      4  C   UNL     1      -4.791  -1.854   0.193  0.00  0.00    +0.143 C 
ATOM      5  N   UNL     1      -4.449  -1.349  -1.147  0.00  0.00    -0.288 N 
ATOM      6  C   UNL     1      -3.334  -0.605  -1.287  0.00  0.00    +0.307 C 
ATOM      7  O   UNL     1      -3.045  -0.181  -2.389  0.00  0.00    -0.252 OA
ATOM      8  H   UNL     1      -5.014  -1.545  -1.911  0.00  0.00    +0.151 HD
ENDROOT
BRANCH   4   9
ATOM      9  C   UNL     1      -4.874  -3.357   0.116  0.00  0.00    -0.022 A 
ATOM     10  C   UNL     1      -3.871  -4.073  -0.509  0.00  0.00    +0.006 A 
ATOM     11  C   UNL     1      -3.947  -5.452  -0.580  0.00  0.00    +0.004 A 
ATOM     12  C   UNL     1      -5.027  -6.114  -0.026  0.00  0.00    -0.050 A 
ATOM     13  C   UNL     1      -6.030  -5.397   0.600  0.00  0.00    +0.004 A 
ATOM     14  C   UNL     1      -5.952  -4.019   0.674  0.00  0.00    +0.006 A 
ATOM     15  C   UNL     1      -5.111  -7.616  -0.104  0.00  0.00    +0.044 C 
ENDBRANCH   4   9
BRANCH   1  17
ATOM     16  C   UNL     1      -1.678   1.969  -0.310  0.00  0.00    +0.025 C 
ATOM     17  C   UNL     1      -1.339   0.489  -0.505  0.00  0.00    +0.111 C 
ENDBRANCH   1  17
BRANCH   3  18
ATOM     18  C   UNL     1      -4.090  -1.934   2.646  0.00  0.00    +0.339 C 
ATOM     19  O   UNL     1      -3.346  -1.594   3.546  0.00  0.00    -0.245 OA
BRANCH  18  20
ATOM     20  O   UNL     1      -5.148  -2.730   2.909  0.00  0.00    -0.462 OA
BRANCH  20  21
ATOM     21  C   UNL     1      -5.333  -3.135   4.267  0.00  0.00    +0.229 C 
ATOM     22  C   UNL     1      -6.573  -4.026   4.369  0.00  0.00    +0.048 C 
ENDBRANCH  20  21
ENDBRANCH  18  20
ENDBRANCH   3  18
BRANCH   2  23
ATOM     23  C   UNL     1      -1.801  -0.366   2.119  0.00  0.00    -0.026 C 
BRANCH  23  24
ATOM     24  N   UNL     1      -0.908  -1.498   2.398  0.00  0.00    +0.384 N 
ATOM     25  C   UNL     1      -0.170  -1.211   3.626  0.00  0.00    -0.077 C 
ATOM     26  C   UNL     1       0.166  -2.512   4.322  0.00  0.00    +0.000 C 
ATOM     27  C   UNL     1       1.568  -2.978   3.888  0.00  0.00    +0.107 C 
ATOM     28  N   UNL     1       1.785  -2.738   2.447  0.00  0.00    -0.287 N 
ATOM     29  C   UNL     1       0.759  -2.991   1.456  0.00  0.00    +0.091 C 
ATOM     30  C   UNL     1      -0.104  -1.724   1.259  0.00  0.00    -0.059 C 
ATOM     31  C   UNL     1       2.980  -2.266   2.039  0.00  0.00    +0.303 C 
ATOM     32  O   UNL     1       3.884  -2.128   2.840  0.00  0.00    -0.253 OA
ATOM     33  N   UNL     1       3.172  -1.946   0.745  0.00  0.00    -0.294 N 
ATOM     34  H   UNL     1       2.431  -1.986   0.120  0.00  0.00    +0.151 HD
ATOM     35  H   UNL     1      -1.476  -2.318   2.555  0.00  0.00    -0.081 HD
BRANCH  33  36
ATOM     36  C   UNL     1       4.500  -1.537   0.280  0.00  0.00    +0.028 C 
ATOM     37  C   UNL     1       5.499  -2.668   0.534  0.00  0.00    +0.031 C 
ATOM     38  C   UNL     1       4.445  -1.232  -1.218  0.00  0.00    +0.031 C 
ATOM     39  C   UNL     1       4.943  -0.285   1.040  0.00  0.00    +0.031 C 
ENDBRANCH  33  36
ENDBRANCH  23  24
ENDBRANCH   2  23
TORSDOF 8
