REMARK  Name = ZINC12411626
REMARK  9 active torsions:
REMARK  status: ('A' for Active; 'I' for Inactive)
REMARK    1  A    between atoms: C_1  and  C_2
REMARK    2  A    between atoms: C_2  and  O_3
REMARK    3  A    between atoms: O_3  and  C_4
REMARK    4  A    between atoms: C_6  and  C_19
REMARK    5  A    between atoms: C_9  and  O_10
REMARK    6  A    between atoms: O_10  and  C_11
REMARK    7  A    between atoms: C_11  and  C_12
REMARK    8  A    between atoms: C_24  and  C_28
REMARK    9  A    between atoms: C_24  and  C_29
REMARK                            x       y       z     vdW  Elec       q    Type
REMARK                         _______ _______ _______ _____ _____    ______ ____
ROOT
ATOM      1  C   UNL     1      -5.438  -5.667   0.021  0.00  0.00    +0.136 C 
ATOM      2  C   UNL     1      -6.019  -5.710  -1.371  0.00  0.00    +0.036 C 
ATOM      3  C   UNL     1      -7.196  -5.183  -1.752  0.00  0.00    +0.017 C 
ATOM      4  C   UNL     1      -7.667  -5.305  -3.191  0.00  0.00    +0.058 C 
ATOM      5  C   UNL     1      -6.467  -5.313  -4.136  0.00  0.00    -0.023 C 
ATOM      6  C   UNL     1      -5.583  -6.508  -3.757  0.00  0.00    +0.086 C 
ATOM      7  C   UNL     1      -5.200  -6.377  -2.313  0.00  0.00    +0.163 C 
ATOM      8  O   UNL     1      -4.150  -6.862  -1.939  0.00  0.00    -0.292 OA
ATOM      9  C   UNL     1      -5.676  -4.013  -3.980  0.00  0.00    +0.011 C 
ATOM     10  C   UNL     1      -6.946  -5.460  -5.581  0.00  0.00    +0.011 C 
ATOM     11  N   UNL     1      -8.053  -4.532  -0.925  0.00  0.00    -0.316 N 
ATOM     12  C   UNL     1      -7.687  -3.548  -0.014  0.00  0.00    +0.052 A 
ATOM     13  C   UNL     1      -8.113  -2.236  -0.128  0.00  0.00    +0.025 A 
ATOM     14  C   UNL     1      -7.751  -1.318   0.843  0.00  0.00    +0.002 A 
ATOM     15  C   UNL     1      -6.973  -1.709   1.917  0.00  0.00    +0.002 A 
ATOM     16  C   UNL     1      -6.531  -3.016   2.023  0.00  0.00    +0.025 A 
ATOM     17  C   UNL     1      -6.874  -3.932   1.042  0.00  0.00    +0.049 A 
ATOM     18  N   UNL     1      -6.363  -5.226   1.043  0.00  0.00    -0.331 N 
ATOM     19  H   UNL     1      -8.992  -4.771  -0.974  0.00  0.00    +0.152 HD
ATOM     20  H   UNL     1      -6.630  -5.841   1.744  0.00  0.00    +0.147 HD
ENDROOT
BRANCH   1  23
ATOM     21  C   UNL     1      -1.899  -4.370   0.287  0.00  0.00    +0.162 A 
ATOM     22  C   UNL     1      -2.990  -5.225   0.291  0.00  0.00    +0.055 A 
ATOM     23  C   UNL     1      -4.253  -4.736   0.015  0.00  0.00    -0.019 A 
ATOM     24  C   UNL     1      -4.432  -3.394  -0.265  0.00  0.00    +0.009 A 
ATOM     25  C   UNL     1      -3.349  -2.535  -0.267  0.00  0.00    +0.050 A 
ATOM     26  C   UNL     1      -2.079  -3.020   0.003  0.00  0.00    +0.162 A 
BRANCH  21  27
ATOM     27  O   UNL     1      -0.656  -4.850   0.557  0.00  0.00    -0.489 OA
BRANCH  27  29
ATOM     28  C   UNL     1       0.916  -6.598   1.117  0.00  0.00    +0.048 C 
ATOM     29  C   UNL     1      -0.547  -6.247   0.839  0.00  0.00    +0.226 C 
ENDBRANCH  27  29
ENDBRANCH  21  27
BRANCH  26  30
ATOM     30  O   UNL     1      -1.012  -2.177  -0.003  0.00  0.00    -0.484 OA
BRANCH  30  31
ATOM     31  C   UNL     1      -1.272  -0.804  -0.302  0.00  0.00    +0.266 C 
BRANCH  31  32
ATOM     32  C   UNL     1       0.020  -0.028  -0.263  0.00  0.00    +0.008 A 
ATOM     33  C   UNL     1       1.206  -0.675   0.032  0.00  0.00    +0.008 A 
ATOM     34  C   UNL     1       2.390   0.036   0.067  0.00  0.00    +0.000 A 
ATOM     35  C   UNL     1       2.390   1.395  -0.191  0.00  0.00    +0.001 A 
ATOM     36  C   UNL     1       1.205   2.042  -0.486  0.00  0.00    +0.020 A 
ATOM     37  C   UNL     1       0.019   1.331  -0.521  0.00  0.00    +0.047 A 
ATOM     38 CL   UNL     1      -1.469   2.142  -0.898  0.00  0.00    -0.083 Cl
ENDBRANCH  31  32
ENDBRANCH  30  31
ENDBRANCH  26  30
ENDBRANCH   1  23
TORSDOF 6
