REMARK  Name = ZINC32105563
REMARK  6 active torsions:
REMARK  status: ('A' for Active; 'I' for Inactive)
REMARK    1  A    between atoms: C_1  and  C_2
REMARK    2  A    between atoms: C_2  and  C_3
REMARK    3  A    between atoms: C_2  and  C_4
REMARK    4  A    between atoms: C_12  and  O_29
REMARK    5  A    between atoms: N_18  and  C_19
REMARK    6  A    between atoms: C_22  and  C_25
REMARK                            x       y       z     vdW  Elec       q    Type
REMARK                         _______ _______ _______ _____ _____    ______ ____
ROOT
ATOM      1  C   UNL     1      -1.412  -0.526   0.013  0.00  0.00    -0.044 A 
ATOM      2  C   UNL     1      -2.245  -0.196   1.062  0.00  0.00    +0.006 A 
ATOM      3  C   UNL     1      -3.555  -0.645   1.127  0.00  0.00    +0.024 A 
ATOM      4  C   UNL     1      -4.007  -1.452   0.082  0.00  0.00    +0.038 A 
ATOM      5  C   UNL     1      -3.150  -1.779  -0.977  0.00  0.00    -0.006 A 
ATOM      6  C   UNL     1      -1.851  -1.325  -1.038  0.00  0.00    +0.010 A 
ATOM      7  C   UNL     1      -3.946  -2.641  -1.904  0.00  0.00    +0.112 C 
ATOM      8  C   UNL     1      -3.318  -4.026  -2.052  0.00  0.00    +0.121 C 
ATOM      9  C   UNL     1      -2.201  -4.019  -3.056  0.00  0.00    +0.191 C 
ATOM     10  N   UNL     1      -2.178  -3.245  -4.099  0.00  0.00    -0.197 NA
ATOM     11  C   UNL     1      -3.185  -2.346  -4.291  0.00  0.00    +0.164 A 
ATOM     12  C   UNL     1      -4.066  -2.017  -3.267  0.00  0.00    +0.036 A 
ATOM     13  C   UNL     1      -4.963  -1.089  -3.761  0.00  0.00    +0.142 A 
ATOM     14  N   UNL     1      -4.658  -0.842  -5.015  0.00  0.00    -0.173 NA
ATOM     15  N   UNL     1      -3.538  -1.611  -5.370  0.00  0.00    -0.214 N 
ATOM     16  C   UNL     1      -5.305  -2.748  -1.250  0.00  0.00    +0.233 C 
ATOM     17  O   UNL     1      -6.262  -3.361  -1.672  0.00  0.00    -0.274 OA
ATOM     18  N   UNL     1      -5.249  -2.032  -0.107  0.00  0.00    -0.284 N 
ATOM     19  H   UNL     1      -5.992  -1.935   0.509  0.00  0.00    +0.155 HD
ENDROOT
BRANCH  15  20
ATOM     20  C   UNL     1      -2.902  -1.617  -6.618  0.00  0.00    +0.068 A 
ATOM     21  C   UNL     1      -1.525  -1.782  -6.696  0.00  0.00    +0.028 A 
ATOM     22  C   UNL     1      -0.900  -1.787  -7.928  0.00  0.00    +0.014 A 
ATOM     23  C   UNL     1      -1.644  -1.628  -9.082  0.00  0.00    +0.055 A 
ATOM     24  C   UNL     1      -3.015  -1.462  -9.008  0.00  0.00    +0.014 A 
ATOM     25  C   UNL     1      -3.647  -1.462  -7.780  0.00  0.00    +0.028 A 
BRANCH  23  26
ATOM     26  C   UNL     1      -0.959  -1.633 -10.425  0.00  0.00    +0.417 C 
ATOM     27  F   UNL     1      -0.909  -2.941 -10.917  0.00  0.00    -0.166 F 
ATOM     28  F   UNL     1      -1.675  -0.827 -11.317  0.00  0.00    -0.166 F 
ATOM     29  F   UNL     1       0.341  -1.136 -10.287  0.00  0.00    -0.166 F 
ENDBRANCH  23  26
ENDBRANCH  15  20
BRANCH   1  31
ATOM     30  C   UNL     1      -0.019   1.526   0.010  0.00  0.00    +0.012 C 
ATOM     31  C   UNL     1       0.002  -0.004   0.002  0.00  0.00    +0.013 C 
ATOM     32  C   UNL     1       0.742  -0.511   1.242  0.00  0.00    +0.012 C 
ENDBRANCH   1  31
BRANCH   9  33
ATOM     33  O   UNL     1      -1.166  -4.863  -2.865  0.00  0.00    -0.495 OA
ATOM     34  H   UNL     1      -0.483  -4.808  -3.547  0.00  0.00    +0.293 HD
ENDBRANCH   9  33
TORSDOF 4
