REMARK  Name = ZINC58993321
REMARK  7 active torsions:
REMARK  status: ('A' for Active; 'I' for Inactive)
REMARK    1  A    between atoms: C_3  and  N_26
REMARK    2  A    between atoms: C_6  and  C_7
REMARK    3  A    between atoms: N_8  and  N_9
REMARK    4  A    between atoms: C_12  and  S_15
REMARK    5  A    between atoms: S_15  and  C_16
REMARK    6  A    between atoms: C_16  and  C_17
REMARK    7  A    between atoms: C_17  and  C_19
REMARK                            x       y       z     vdW  Elec       q    Type
REMARK                         _______ _______ _______ _____ _____    ______ ____
ROOT
ATOM      1  N   UNL     1      -2.443  -2.780   0.011  0.00  0.00    -0.205 N 
ATOM      2  C   UNL     1      -2.421  -4.163   0.004  0.00  0.00    +0.232 A 
ATOM      3  N   UNL     1      -1.343  -4.920  -0.005  0.00  0.00    -0.186 NA
ATOM      4  C   UNL     1      -1.699  -6.209  -0.011  0.00  0.00    +0.210 A 
ATOM      5  N   UNL     1      -3.008  -6.290  -0.005  0.00  0.00    -0.144 NA
ATOM      6  N   UNL     1      -3.500  -4.974   0.010  0.00  0.00    -0.245 N 
ATOM      7  H   UNL     1      -3.291  -2.309   0.022  0.00  0.00    +0.177 HD
ATOM      8  H   UNL     1      -4.431  -4.702   0.021  0.00  0.00    +0.192 HD
ENDROOT
BRANCH   1  10
ATOM      9  C   UNL     1      -1.263  -0.762   0.011  0.00  0.00    +0.138 C 
ATOM     10  N   UNL     1      -1.242  -2.060   0.003  0.00  0.00    -0.188 NA
BRANCH   9  16
ATOM     11  C   UNL     1      -0.017   1.393   0.010  0.00  0.00    +0.012 A 
ATOM     12  C   UNL     1       1.170   2.095   0.002  0.00  0.00    +0.033 A 
ATOM     13  C   UNL     1       2.378   1.420  -0.013  0.00  0.00    +0.126 A 
ATOM     14  C   UNL     1       2.404   0.036  -0.021  0.00  0.00    +0.033 A 
ATOM     15  C   UNL     1       1.225  -0.679  -0.014  0.00  0.00    +0.012 A 
ATOM     16  C   UNL     1       0.002  -0.004   0.002  0.00  0.00    -0.005 A 
BRANCH  13  17
ATOM     17  N   UNL     1       3.648   2.181  -0.022  0.00  0.00    +0.056 N 
ATOM     18  O   UNL     1       3.628   3.390  -0.016  0.00  0.00    -0.126 OA
ATOM     19  O   UNL     1       4.705   1.594  -0.036  0.00  0.00    -0.126 OA
ENDBRANCH  13  17
ENDBRANCH   9  16
ENDBRANCH   1  10
BRANCH   4  20
ATOM     20  S   UNL     1      -0.588  -7.577  -0.023  0.00  0.00    -0.076 S 
BRANCH  20  21
ATOM     21  C   UNL     1      -1.679  -9.027  -0.026  0.00  0.00    +0.157 C 
BRANCH  21  22
ATOM     22  C   UNL     1      -0.845 -10.282  -0.037  0.00  0.00    +0.173 C 
ATOM     23  O   UNL     1       0.365 -10.206  -0.042  0.00  0.00    -0.291 OA
BRANCH  22  24
ATOM     24  C   UNL     1      -1.499 -11.600  -0.041  0.00  0.00    +0.018 A 
ATOM     25  C   UNL     1      -2.895 -11.691  -0.041  0.00  0.00    +0.012 A 
ATOM     26  C   UNL     1      -3.501 -12.929  -0.045  0.00  0.00    +0.016 A 
ATOM     27  C   UNL     1      -2.731 -14.081  -0.050  0.00  0.00    +0.018 A 
ATOM     28  C   UNL     1      -1.348 -13.998  -0.050  0.00  0.00    +0.016 A 
ATOM     29  C   UNL     1      -0.728 -12.767  -0.051  0.00  0.00    +0.012 A 
ATOM     30 BR   UNL     1      -3.572 -15.774  -0.054  0.00  0.00    -0.050 Br
ENDBRANCH  22  24
ENDBRANCH  21  22
ENDBRANCH  20  21
ENDBRANCH   4  20
TORSDOF 7
