REMARK  Name = ZINC00853719
REMARK  10 active torsions:
REMARK  status: ('A' for Active; 'I' for Inactive)
REMARK    1  A    between atoms: C_1  and  C_2
REMARK    2  A    between atoms: C_2  and  O_3
REMARK    3  A    between atoms: O_3  and  C_4
REMARK    4  A    between atoms: C_6  and  C_11
REMARK    5  A    between atoms: C_9  and  O_10
REMARK    6  A    between atoms: C_16  and  C_21
REMARK    7  A    between atoms: C_28  and  C_38
REMARK    8  A    between atoms: C_29  and  C_30
REMARK    9  A    between atoms: C_30  and  O_32
REMARK   10  A    between atoms: O_32  and  C_33
REMARK                            x       y       z     vdW  Elec       q    Type
REMARK                         _______ _______ _______ _____ _____    ______ ____
ROOT
ATOM      1  C   UNL     1      -2.073  -1.427  -3.434  0.00  0.00    +0.092 C 
ATOM      2  C   UNL     1      -3.153  -1.977  -4.331  0.00  0.00    +0.024 C 
ATOM      3  C   UNL     1      -3.617  -3.233  -4.161  0.00  0.00    +0.016 C 
ATOM      4  C   UNL     1      -4.689  -3.795  -5.063  0.00  0.00    +0.059 C 
ATOM      5  C   UNL     1      -5.604  -2.664  -5.538  0.00  0.00    +0.032 C 
ATOM      6  C   UNL     1      -4.751  -1.622  -6.268  0.00  0.00    +0.088 C 
ATOM      7  C   UNL     1      -3.663  -1.147  -5.345  0.00  0.00    +0.162 C 
ATOM      8  O   UNL     1      -3.216  -0.025  -5.477  0.00  0.00    -0.292 OA
ATOM      9  N   UNL     1      -3.124  -4.027  -3.161  0.00  0.00    -0.321 N 
ATOM     10  C   UNL     1      -2.463  -3.479  -2.097  0.00  0.00    +0.016 C 
ATOM     11  C   UNL     1      -1.952  -2.238  -2.178  0.00  0.00    +0.065 C 
ATOM     12  C   UNL     1      -2.311  -4.269  -0.823  0.00  0.00    +0.061 C 
ATOM     13  H   UNL     1      -3.257  -5.118  -3.207  0.00  0.00    +0.152 HD
ENDROOT
BRANCH   1  16
ATOM     14  C   UNL     1       1.127  -0.302  -5.097  0.00  0.00    +0.162 A 
ATOM     15  C   UNL     1      -0.084  -0.277  -4.425  0.00  0.00    +0.054 A 
ATOM     16  C   UNL     1      -0.758  -1.456  -4.170  0.00  0.00    -0.032 A 
ATOM     17  C   UNL     1      -0.231  -2.663  -4.594  0.00  0.00    +0.008 A 
ATOM     18  C   UNL     1       0.974  -2.695  -5.270  0.00  0.00    +0.049 A 
ATOM     19  C   UNL     1       1.657  -1.516  -5.524  0.00  0.00    +0.158 A 
BRANCH  19  20
ATOM     20  O   UNL     1       2.844  -1.546  -6.189  0.00  0.00    -0.503 OA
ATOM     21  H   UNL     1       3.261  -2.506  -6.525  0.00  0.00    +0.292 HD
ENDBRANCH  19  20
BRANCH  14  22
ATOM     22  O   UNL     1       1.794   0.857  -5.344  0.00  0.00    -0.489 OA
BRANCH  22  24
ATOM     23  C   UNL     1       2.079   3.255  -5.245  0.00  0.00    +0.048 C 
ATOM     24  C   UNL     1       1.190   2.065  -4.877  0.00  0.00    +0.226 C 
ENDBRANCH  22  24
ENDBRANCH  14  22
ENDBRANCH   1  16
BRANCH   5  25
ATOM     25  C   UNL     1      -6.644  -3.216  -6.478  0.00  0.00    -0.044 A 
ATOM     26  C   UNL     1      -6.255  -3.855  -7.641  0.00  0.00    +0.004 A 
ATOM     27  C   UNL     1      -7.209  -4.366  -8.502  0.00  0.00    +0.000 A 
ATOM     28  C   UNL     1      -8.552  -4.229  -8.204  0.00  0.00    +0.000 A 
ATOM     29  C   UNL     1      -8.941  -3.586  -7.044  0.00  0.00    +0.000 A 
ATOM     30  C   UNL     1      -7.987  -3.079  -6.182  0.00  0.00    +0.004 A 
ENDBRANCH   5  25
BRANCH  11  31
ATOM     31  C   UNL     1      -1.284  -1.689  -1.059  0.00  0.00    +0.338 C 
ATOM     32  O   UNL     1      -1.266  -2.294  -0.003  0.00  0.00    -0.245 OA
BRANCH  31  33
ATOM     33  O   UNL     1      -0.665  -0.494  -1.162  0.00  0.00    -0.458 OA
BRANCH  33  34
ATOM     34  C   UNL     1      -0.010   0.001   0.007  0.00  0.00    +0.177 C 
ATOM     35  C   UNL     1      -0.026   1.539   0.010  0.00  0.00    +0.044 C 
ATOM     36  C   UNL     1       1.447   1.996   0.006  0.00  0.00    +0.004 C 
ATOM     37  C   UNL     1       2.219   0.793   0.602  0.00  0.00    +0.004 C 
ATOM     38  C   UNL     1       1.473  -0.424   0.002  0.00  0.00    +0.044 C 
ENDBRANCH  33  34
ENDBRANCH  31  33
ENDBRANCH  11  31
TORSDOF 8
