REMARK  Name = ZINC36556017
REMARK  15 active torsions:
REMARK  status: ('A' for Active; 'I' for Inactive)
REMARK    1  A    between atoms: C_1  and  C_2
REMARK    2  A    between atoms: C_5  and  S_8
REMARK    3  A    between atoms: S_8  and  C_11
REMARK    4  A    between atoms: C_11  and  N_12
REMARK    5  A    between atoms: C_13  and  C_15
REMARK    6  A    between atoms: C_15  and  C_17
REMARK    7  A    between atoms: C_15  and  N_24
REMARK    8  A    between atoms: C_21  and  O_23
REMARK    9  A    between atoms: N_24  and  C_25
REMARK   10  A    between atoms: C_25  and  C_26
REMARK   11  A    between atoms: C_29  and  C_31
REMARK   12  A    between atoms: C_32  and  C_34
REMARK   13  A    between atoms: C_34  and  C_35
REMARK   14  A    between atoms: C_35  and  C_36
REMARK   15  A    between atoms: C_35  and  C_37
REMARK                            x       y       z     vdW  Elec       q    Type
REMARK                         _______ _______ _______ _____ _____    ______ ____
ROOT
ATOM      1  C   UNL     1       3.012  -4.852   3.502  0.00  0.00    +0.193 C 
ENDROOT
BRANCH   1   2
ATOM      2  C   UNL     1       4.385  -4.275   3.268  0.00  0.00    -0.015 A 
ATOM      3  C   UNL     1       5.458  -5.117   3.042  0.00  0.00    +0.006 A 
ATOM      4  C   UNL     1       6.719  -4.591   2.827  0.00  0.00    +0.004 A 
ATOM      5  C   UNL     1       6.909  -3.223   2.839  0.00  0.00    +0.045 A 
ATOM      6  C   UNL     1       5.833  -2.376   3.065  0.00  0.00    +0.117 A 
ATOM      7  C   UNL     1       4.568  -2.906   3.275  0.00  0.00    +0.051 A 
BRANCH   6   8
ATOM      8  O   UNL     1       6.018  -1.030   3.077  0.00  0.00    -0.507 OA
ATOM      9  H   UNL     1       5.911  -0.611   2.212  0.00  0.00    +0.292 HD
ENDBRANCH   6   8
ENDBRANCH   1   2
BRANCH   1  11
ATOM     10  N   UNL     1       1.368  -4.542   1.680  0.00  0.00    -0.294 N 
ATOM     11  C   UNL     1       2.401  -5.247   2.182  0.00  0.00    +0.239 C 
ATOM     12  O   UNL     1       2.840  -6.198   1.571  0.00  0.00    -0.273 OA
ATOM     13  H   UNL     1       1.017  -3.781   2.169  0.00  0.00    +0.150 HD
BRANCH  10  14
ATOM     14  C   UNL     1       0.774  -4.926   0.397  0.00  0.00    +0.278 C 
BRANCH  14  15
ATOM     15  S   UNL     1      -0.660  -5.997   0.690  0.00  0.00    +0.013 S 
ATOM     16  O   UNL     1      -0.330  -7.011   1.629  0.00  0.00    -0.168 OA
ATOM     17  O   UNL     1      -1.285  -6.326  -0.543  0.00  0.00    -0.168 OA
BRANCH  15  22
ATOM     18  C   UNL     1      -4.654  -2.494   3.551  0.00  0.00    +0.044 C 
ATOM     19  C   UNL     1      -3.657  -3.369   2.837  0.00  0.00    -0.050 A 
ATOM     20  C   UNL     1      -3.662  -3.437   1.456  0.00  0.00    +0.005 A 
ATOM     21  C   UNL     1      -2.746  -4.239   0.800  0.00  0.00    +0.027 A 
ATOM     22  C   UNL     1      -1.826  -4.973   1.526  0.00  0.00    +0.090 A 
ATOM     23  C   UNL     1      -1.821  -4.904   2.906  0.00  0.00    +0.027 A 
ATOM     24  C   UNL     1      -2.733  -4.098   3.562  0.00  0.00    +0.005 A 
ENDBRANCH  15  22
ENDBRANCH  14  15
ENDBRANCH  10  14
ENDBRANCH   1  11
BRANCH   1  25
ATOM     25  N   UNL     1       3.118  -6.032   4.363  0.00  0.00    -0.279 N 
ATOM     26  C   UNL     1       3.751  -5.946   5.550  0.00  0.00    +0.217 C 
ATOM     27  O   UNL     1       3.942  -6.945   6.210  0.00  0.00    -0.276 OA
BRANCH  25  28
ATOM     28  C   UNL     1       2.537  -7.307   3.934  0.00  0.00    +0.183 C 
BRANCH  28  29
ATOM     29  C   UNL     1       3.619  -8.185   3.360  0.00  0.00    +0.122 A 
ATOM     30  C   UNL     1       4.366  -9.065   4.050  0.00  0.00    +0.046 A 
ATOM     31  C   UNL     1       5.249  -9.666   3.124  0.00  0.00    +0.045 A 
ATOM     32  C   UNL     1       4.989  -9.118   1.924  0.00  0.00    +0.102 A 
ATOM     33  O   UNL     1       3.996  -8.225   2.072  0.00  0.00    -0.463 OA
ATOM     34  C   UNL     1       5.688  -9.452   0.632  0.00  0.00    +0.086 C 
ENDBRANCH  28  29
ENDBRANCH  25  28
BRANCH  26  35
ATOM     35  C   UNL     1       4.222  -4.607   6.057  0.00  0.00    +0.099 C 
BRANCH  35  36
ATOM     36  C   UNL     1       5.067  -4.807   7.317  0.00  0.00    -0.008 C 
ATOM     37  C   UNL     1       6.341  -5.576   6.959  0.00  0.00    +0.008 C 
ATOM     38  C   UNL     1       5.441  -3.444   7.902  0.00  0.00    +0.008 C 
ENDBRANCH  35  36
ENDBRANCH  26  35
ENDBRANCH   1  25
TORSDOF 11
