REMARK  Name = ZINC63985161
REMARK  8 active torsions:
REMARK  status: ('A' for Active; 'I' for Inactive)
REMARK    1  A    between atoms: C_1  and  C_2
REMARK    2  A    between atoms: C_2  and  C_4
REMARK    3  A    between atoms: C_2  and  N_10
REMARK    4  A    between atoms: C_11  and  O_37
REMARK    5  A    between atoms: C_14  and  O_36
REMARK    6  A    between atoms: C_15  and  C_19
REMARK    7  A    between atoms: C_26  and  O_31
REMARK    8  A    between atoms: O_31  and  C_32
REMARK                            x       y       z     vdW  Elec       q    Type
REMARK                         _______ _______ _______ _____ _____    ______ ____
ROOT
ATOM      1  N   UNL     1      -1.310  -0.650  -0.081  0.00  0.00    -0.250 N 
ATOM      2  C   UNL     1      -2.329  -0.290   0.894  0.00  0.00    +0.335 C 
ATOM      3  N   UNL     1      -3.668  -0.618   0.434  0.00  0.00    -0.204 NA
ATOM      4  C   UNL     1      -3.923  -1.468  -0.484  0.00  0.00    +0.200 C 
ATOM      5  C   UNL     1      -2.853  -2.232  -1.207  0.00  0.00    +0.179 C 
ATOM      6  C   UNL     1      -1.526  -1.544  -1.054  0.00  0.00    +0.233 C 
ATOM      7  O   UNL     1      -0.630  -1.807  -1.827  0.00  0.00    -0.275 OA
ENDROOT
BRANCH   5   8
ATOM      8  C   UNL     1      -2.761  -3.645  -0.627  0.00  0.00    +0.101 C 
ATOM      9  C   UNL     1      -4.066  -4.399  -0.896  0.00  0.00    +0.124 C 
ATOM     10  C   UNL     1      -3.957  -5.721  -0.145  0.00  0.00    -0.036 C 
ATOM     11  C   UNL     1      -4.184  -6.678  -1.033  0.00  0.00    +0.003 A 
ATOM     12  C   UNL     1      -4.298  -8.138  -0.901  0.00  0.00    +0.055 A 
ATOM     13  C   UNL     1      -4.526  -8.840  -2.045  0.00  0.00    +0.121 A 
ATOM     14  C   UNL     1      -4.656  -8.253  -3.312  0.00  0.00    +0.047 A 
ATOM     15  C   UNL     1      -4.574  -6.919  -3.547  0.00  0.00    +0.029 A 
ATOM     16  C   UNL     1      -4.334  -6.053  -2.385  0.00  0.00    +0.043 A 
ATOM     17  N   UNL     1      -4.236  -4.741  -2.308  0.00  0.00    -0.376 N 
ATOM     18  C   UNL     1      -3.557  -5.774   1.310  0.00  0.00    +0.048 C 
ATOM     19  C   UNL     1      -2.313  -4.877   1.446  0.00  0.00    +0.085 C 
ATOM     20  N   UNL     1      -2.561  -3.571   0.829  0.00  0.00    -0.310 NA
ATOM     21  H   UNL     1      -1.829  -2.916   1.061  0.00  0.00    +0.122 HD
ATOM     22  H   UNL     1      -4.266  -4.112  -3.045  0.00  0.00    +0.160 HD
BRANCH  13  23
ATOM     23  O   UNL     1      -4.636 -10.192  -1.953  0.00  0.00    -0.495 OA
ATOM     24  C   UNL     1      -4.876 -10.907  -3.167  0.00  0.00    +0.277 C 
ENDBRANCH  13  23
ENDBRANCH   5   8
BRANCH   1  26
ATOM     25  C   UNL     1       1.073  -1.060   0.285  0.00  0.00    +0.033 C 
ATOM     26  C   UNL     1       0.002  -0.004   0.002  0.00  0.00    +0.107 C 
BRANCH  26  27
ATOM     27  C   UNL     1       0.307   0.683  -1.304  0.00  0.00    -0.027 A 
ATOM     28  C   UNL     1      -0.703   1.316  -2.005  0.00  0.00    +0.005 A 
ATOM     29  C   UNL     1      -0.423   1.946  -3.202  0.00  0.00    +0.000 A 
ATOM     30  C   UNL     1       0.867   1.945  -3.699  0.00  0.00    +0.000 A 
ATOM     31  C   UNL     1       1.877   1.314  -2.998  0.00  0.00    +0.000 A 
ATOM     32  C   UNL     1       1.598   0.687  -1.798  0.00  0.00    +0.005 A 
ENDBRANCH  26  27
ENDBRANCH   1  26
BRANCH   4  33
ATOM     33  O   UNL     1      -5.211  -1.687  -0.820  0.00  0.00    -0.495 OA
ATOM     34  H   UNL     1      -5.845  -1.161  -0.314  0.00  0.00    +0.293 HD
ENDBRANCH   4  33
BRANCH   2  35
ATOM     35  O   UNL     1      -2.074  -0.991   2.113  0.00  0.00    -0.356 OA
ATOM     36  H   UNL     1      -2.712  -0.804   2.815  0.00  0.00    +0.214 HD
ENDBRANCH   2  35
TORSDOF 6
