REMARK  Name = ZINC63515623
REMARK  6 active torsions:
REMARK  status: ('A' for Active; 'I' for Inactive)
REMARK    1  A    between atoms: C_1  and  C_2
REMARK    2  A    between atoms: C_2  and  C_4
REMARK    3  A    between atoms: C_7  and  C_11
REMARK    4  A    between atoms: C_7  and  C_12
REMARK    5  A    between atoms: N_13  and  C_14
REMARK    6  A    between atoms: C_14  and  C_15
REMARK                            x       y       z     vdW  Elec       q    Type
REMARK                         _______ _______ _______ _____ _____    ______ ____
ROOT
ATOM      1  C   UNL     1       0.035  -0.754  -1.345  0.00  0.00    +0.165 C 
ATOM      2  C   UNL     1       0.687  -2.109  -1.162  0.00  0.00    +0.031 C 
ATOM      3  C   UNL     1       0.692  -3.063  -2.336  0.00  0.00    +0.058 C 
ATOM      4  C   UNL     1      -0.746  -3.260  -2.824  0.00  0.00    -0.023 C 
ATOM      5  C   UNL     1      -1.346  -1.907  -3.217  0.00  0.00    +0.082 C 
ATOM      6  C   UNL     1      -1.301  -0.982  -2.022  0.00  0.00    +0.149 C 
ATOM      7  O   UNL     1      -2.302  -0.440  -1.619  0.00  0.00    -0.296 OA
ATOM      8  C   UNL     1      -1.583  -3.882  -1.704  0.00  0.00    +0.011 C 
ATOM      9  C   UNL     1      -0.748  -4.191  -4.038  0.00  0.00    +0.011 C 
ATOM     10  N   UNL     1       1.220  -2.438  -0.045  0.00  0.00    -0.287 NA
ENDROOT
BRANCH   1  12
ATOM     11  C   UNL     1      -0.311   1.397   0.093  0.00  0.00    +0.087 C 
ATOM     12  C   UNL     1      -0.175  -0.101  -0.003  0.00  0.00    +0.146 C 
ATOM     13  O   UNL     1      -0.236  -0.778   0.995  0.00  0.00    -0.297 OA
ENDBRANCH   1  12
BRANCH  10  14
ATOM     14  C   UNL     1       1.674  -3.813   0.173  0.00  0.00    +0.188 C 
BRANCH  14  15
ATOM     15  C   UNL     1       3.198  -3.833   0.304  0.00  0.00    +0.196 C 
ATOM     16  N   UNL     1       3.622  -2.944   1.393  0.00  0.00    -0.362 N 
ATOM     17  C   UNL     1       4.384  -2.026   0.873  0.00  0.00    +0.060 A 
ATOM     18  C   UNL     1       5.097  -0.876   1.448  0.00  0.00    +0.027 A 
ATOM     19  C   UNL     1       5.829  -0.078   0.645  0.00  0.00    +0.002 A 
ATOM     20  C   UNL     1       5.944  -0.297  -0.740  0.00  0.00    +0.002 A 
ATOM     21  C   UNL     1       5.332  -1.321  -1.367  0.00  0.00    +0.027 A 
ATOM     22  C   UNL     1       4.507  -2.257  -0.592  0.00  0.00    +0.060 A 
ATOM     23  N   UNL     1       3.816  -3.310  -0.921  0.00  0.00    -0.362 N 
ATOM     24  H   UNL     1       3.378  -3.026   2.328  0.00  0.00    +0.162 HD
ATOM     25  H   UNL     1       3.725  -3.681  -1.813  0.00  0.00    +0.162 HD
ENDBRANCH  14  15
ENDBRANCH  10  14
TORSDOF 3
