REMARK  Name = ZINC39696067
REMARK  11 active torsions:
REMARK  status: ('A' for Active; 'I' for Inactive)
REMARK    1  A    between atoms: C_1  and  C_2
REMARK    2  A    between atoms: C_2  and  C_3
REMARK    3  A    between atoms: C_6  and  C_9
REMARK    4  A    between atoms: C_9  and  C_11
REMARK    5  A    between atoms: C_9  and  N_12
REMARK    6  A    between atoms: C_13  and  C_15
REMARK    7  A    between atoms: C_26  and  C_28
REMARK    8  A    between atoms: C_28  and  C_29
REMARK    9  A    between atoms: C_28  and  C_31
REMARK   10  A    between atoms: C_29  and  C_30
REMARK   11  A    between atoms: C_31  and  C_32
REMARK                            x       y       z     vdW  Elec       q    Type
REMARK                         _______ _______ _______ _____ _____    ______ ____
ROOT
ATOM      1  C   UNL     1      -7.779   0.085  -1.087  0.00  0.00    +0.100 C 
ATOM      2  C   UNL     1      -7.710   1.574  -1.494  0.00  0.00    +0.121 C 
ATOM      3  N   UNL     1      -9.086   1.905  -1.935  0.00  0.00    -0.300 N 
ATOM      4  C   UNL     1      -9.963   1.188  -0.979  0.00  0.00    +0.115 C 
ATOM      5  C   UNL     1      -9.259  -0.164  -0.749  0.00  0.00    -0.004 C 
ATOM      6  C   UNL     1      -9.403  -0.592   0.708  0.00  0.00    -0.010 C 
ATOM      7  C   UNL     1     -10.876  -0.891   1.004  0.00  0.00    -0.082 C 
ATOM      8  N   UNL     1     -11.351  -1.955   0.111  0.00  0.00    +0.379 N 
ATOM      9  C   UNL     1     -11.296  -1.500  -1.283  0.00  0.00    -0.082 C 
ATOM     10  C   UNL     1      -9.841  -1.227  -1.676  0.00  0.00    -0.010 C 
ATOM     11  C   UNL     1      -9.455   2.683  -2.972  0.00  0.00    +0.219 C 
ATOM     12  O   UNL     1     -10.629   2.924  -3.161  0.00  0.00    -0.275 OA
ATOM     13  H   UNL     1     -10.767  -2.770   0.221  0.00  0.00    -0.086 HD
ATOM     14  H   UNL     1     -12.302  -2.192   0.349  0.00  0.00    -0.086 HD
ENDROOT
BRANCH   1  16
ATOM     15  N   UNL     1      -6.346  -1.378   0.301  0.00  0.00    -0.308 N 
ATOM     16  C   UNL     1      -6.915  -0.170   0.121  0.00  0.00    +0.219 C 
ATOM     17  O   UNL     1      -6.732   0.713   0.933  0.00  0.00    -0.275 OA
ATOM     18  H   UNL     1      -6.493  -2.084  -0.348  0.00  0.00    +0.149 HD
BRANCH  15  19
ATOM     19  C   UNL     1      -5.506  -1.625   1.475  0.00  0.00    +0.100 C 
ATOM     20  C   UNL     1      -6.389  -2.029   2.658  0.00  0.00    +0.033 C 
BRANCH  19  24
ATOM     21  C   UNL     1      -2.750  -4.775   0.619  0.00  0.00    -0.048 A 
ATOM     22  C   UNL     1      -2.337  -3.673   1.346  0.00  0.00    +0.004 A 
ATOM     23  C   UNL     1      -3.229  -2.654   1.623  0.00  0.00    +0.006 A 
ATOM     24  C   UNL     1      -4.534  -2.736   1.173  0.00  0.00    -0.027 A 
ATOM     25  C   UNL     1      -4.946  -3.837   0.445  0.00  0.00    +0.006 A 
ATOM     26  C   UNL     1      -4.053  -4.854   0.165  0.00  0.00    +0.004 A 
BRANCH  21  28
ATOM     27  C   UNL     1      -1.064  -5.594  -1.004  0.00  0.00    +0.009 C 
ATOM     28  C   UNL     1      -1.778  -5.886   0.317  0.00  0.00    +0.032 C 
ENDBRANCH  21  28
ENDBRANCH  19  24
ENDBRANCH  15  19
ENDBRANCH   1  16
BRANCH  11  29
ATOM     29  C   UNL     1      -8.411   3.252  -3.897  0.00  0.00    +0.075 C 
BRANCH  29  30
ATOM     30  C   UNL     1      -7.978   2.180  -4.899  0.00  0.00    +0.009 C 
ATOM     31  C   UNL     1      -9.193   1.716  -5.705  0.00  0.00    +0.004 C 
ENDBRANCH  29  30
BRANCH  29  32
ATOM     32  C   UNL     1      -8.995   4.449  -4.650  0.00  0.00    +0.009 C 
ATOM     33  C   UNL     1      -7.916   5.065  -5.544  0.00  0.00    +0.004 C 
ENDBRANCH  29  32
ENDBRANCH  11  29
TORSDOF 7
