REMARK  Name = ZINC39878489
REMARK  14 active torsions:
REMARK  status: ('A' for Active; 'I' for Inactive)
REMARK    1  A    between atoms: C_1  and  C_2
REMARK    2  A    between atoms: C_2  and  C_3
REMARK    3  A    between atoms: C_3  and  C_4
REMARK    4  A    between atoms: C_4  and  O_5
REMARK    5  A    between atoms: O_5  and  C_6
REMARK    6  A    between atoms: C_9  and  C_15
REMARK    7  A    between atoms: C_11  and  O_12
REMARK    8  A    between atoms: O_12  and  C_13
REMARK    9  A    between atoms: C_13  and  C_14
REMARK   10  A    between atoms: C_22  and  C_40
REMARK   11  A    between atoms: C_23  and  C_39
REMARK   12  A    between atoms: N_30  and  C_31
REMARK   13  A    between atoms: C_34  and  C_37
REMARK   14  A    between atoms: C_37  and  C_38
REMARK                            x       y       z     vdW  Elec       q    Type
REMARK                         _______ _______ _______ _____ _____    ______ ____
ROOT
ATOM      1  C   UNL     1       1.844  -8.068  -3.111  0.00  0.00    +0.150 C 
ATOM      2  C   UNL     1       0.547  -8.632  -3.590  0.00  0.00    +0.072 A 
ATOM      3  C   UNL     1      -0.232  -8.369  -4.804  0.00  0.00    +0.199 A 
ATOM      4  O   UNL     1       0.194  -7.716  -5.741  0.00  0.00    -0.287 OA
ATOM      5  C   UNL     1      -1.588  -8.974  -4.784  0.00  0.00    +0.065 A 
ATOM      6  C   UNL     1      -2.519  -8.652  -5.771  0.00  0.00    +0.019 A 
ATOM      7  C   UNL     1      -3.765  -9.214  -5.735  0.00  0.00    -0.047 A 
ATOM      8  C   UNL     1      -4.104 -10.100  -4.722  0.00  0.00    -0.044 A 
ATOM      9  C   UNL     1      -3.196 -10.429  -3.741  0.00  0.00    +0.050 A 
ATOM     10  C   UNL     1      -1.917  -9.873  -3.757  0.00  0.00    +0.140 A 
ATOM     11  O   UNL     1      -1.038 -10.218  -2.789  0.00  0.00    -0.450 OA
ATOM     12  C   UNL     1       0.110  -9.525  -2.653  0.00  0.00    +0.199 A 
ATOM     13  C   UNL     1       1.092  -9.561  -1.556  0.00  0.00    +0.287 C 
ATOM     14  O   UNL     1       0.999 -10.254  -0.562  0.00  0.00    -0.266 OA
ATOM     15  N   UNL     1       2.110  -8.714  -1.815  0.00  0.00    -0.253 N 
ATOM     16  C   UNL     1      -5.482 -10.708  -4.695  0.00  0.00    +0.044 C 
ATOM     17  C   UNL     1      -4.775  -8.869  -6.800  0.00  0.00    +0.044 C 
ENDROOT
BRANCH   1  21
ATOM     18  C   UNL     1       1.514  -3.834  -2.603  0.00  0.00    +0.162 A 
ATOM     19  C   UNL     1       0.980  -4.692  -1.655  0.00  0.00    +0.050 A 
ATOM     20  C   UNL     1       1.089  -6.060  -1.822  0.00  0.00    +0.009 A 
ATOM     21  C   UNL     1       1.728  -6.576  -2.934  0.00  0.00    -0.018 A 
ATOM     22  C   UNL     1       2.263  -5.725  -3.884  0.00  0.00    +0.055 A 
ATOM     23  C   UNL     1       2.153  -4.353  -3.725  0.00  0.00    +0.162 A 
BRANCH  18  24
ATOM     24  O   UNL     1       1.408  -2.488  -2.441  0.00  0.00    -0.488 OA
BRANCH  24  25
ATOM     25  C   UNL     1       0.739  -2.027  -1.265  0.00  0.00    +0.229 C 
BRANCH  25  26
ATOM     26  C   UNL     1       0.718  -0.497  -1.257  0.00  0.00    +0.041 C 
BRANCH  26  28
ATOM     27  C   UNL     1      -0.019   1.526   0.010  0.00  0.00    +0.004 C 
ATOM     28  C   UNL     1       0.002  -0.004   0.002  0.00  0.00    -0.000 C 
ENDBRANCH  26  28
ENDBRANCH  25  26
ENDBRANCH  24  25
ENDBRANCH  18  24
BRANCH  23  29
ATOM     29  O   UNL     1       2.673  -3.515  -4.662  0.00  0.00    -0.489 OA
BRANCH  29  30
ATOM     30  C   UNL     1       3.315  -4.118  -5.787  0.00  0.00    +0.226 C 
ATOM     31  C   UNL     1       3.833  -3.026  -6.725  0.00  0.00    +0.048 C 
ENDBRANCH  29  30
ENDBRANCH  23  29
ENDBRANCH   1  21
BRANCH  15  32
ATOM     32  C   UNL     1       3.221  -8.488  -0.998  0.00  0.00    +0.038 A 
ATOM     33  C   UNL     1       4.198  -7.579  -1.386  0.00  0.00    +0.024 A 
ATOM     34  C   UNL     1       5.295  -7.359  -0.576  0.00  0.00    +0.005 A 
ATOM     35  C   UNL     1       5.422  -8.042   0.619  0.00  0.00    -0.048 A 
ATOM     36  C   UNL     1       4.452  -8.948   1.008  0.00  0.00    +0.005 A 
ATOM     37  C   UNL     1       3.350  -9.169   0.206  0.00  0.00    +0.024 A 
BRANCH  35  38
ATOM     38  C   UNL     1       6.621  -7.800   1.500  0.00  0.00    +0.032 C 
ATOM     39  C   UNL     1       6.314  -6.662   2.477  0.00  0.00    +0.009 C 
ENDBRANCH  35  38
ENDBRANCH  15  32
TORSDOF 9
