REMARK  Name = ZINC05839696
REMARK  4 active torsions:
REMARK  status: ('A' for Active; 'I' for Inactive)
REMARK    1  A    between atoms: C_1  and  C_2
REMARK    2  A    between atoms: C_2  and  C_32
REMARK    3  A    between atoms: C_6  and  C_22
REMARK    4  A    between atoms: N_12  and  C_15
REMARK                            x       y       z     vdW  Elec       q    Type
REMARK                         _______ _______ _______ _____ _____    ______ ____
ROOT
ATOM      1  C   UNL     1      -0.019   1.526   0.010  0.00  0.00    +0.011 C 
ATOM      2  C   UNL     1       0.002  -0.004   0.002  0.00  0.00    -0.023 C 
ATOM      3  C   UNL     1       0.743  -0.503  -1.240  0.00  0.00    +0.058 C 
ATOM      4  C   UNL     1       2.168   0.000  -1.218  0.00  0.00    +0.017 C 
ATOM      5  C   UNL     1       2.814   0.188  -0.049  0.00  0.00    +0.024 C 
ATOM      6  C   UNL     1       4.246   0.674   0.014  0.00  0.00    +0.092 C 
ATOM      7  C   UNL     1       4.651   1.218  -1.327  0.00  0.00    +0.070 A 
ATOM      8  C   UNL     1       3.917   0.993  -2.465  0.00  0.00    +0.125 A 
ATOM      9  N   UNL     1       4.543   1.609  -3.504  0.00  0.00    -0.277 N 
ATOM     10  H   UNL     1       4.247   1.613  -4.427  0.00  0.00    +0.189 HD
ATOM     11  N   UNL     1       5.695   2.236  -3.002  0.00  0.00    -0.218 N 
ATOM     12  C   UNL     1       5.757   1.996  -1.673  0.00  0.00    +0.278 A 
ATOM     13  O   UNL     1       6.625   2.388  -0.912  0.00  0.00    -0.265 OA
ATOM     14  N   UNL     1       2.757   0.257  -2.435  0.00  0.00    -0.303 N 
ATOM     15  C   UNL     1       2.173  -0.060   1.180  0.00  0.00    +0.162 C 
ATOM     16  O   UNL     1       2.790   0.100   2.214  0.00  0.00    -0.292 OA
ATOM     17  C   UNL     1       0.742  -0.517   1.242  0.00  0.00    +0.086 C 
ATOM     18  C   UNL     1      -1.431  -0.539  -0.001  0.00  0.00    +0.011 C 
ATOM     19  H   UNL     1       2.361  -0.076  -3.256  0.00  0.00    +0.153 HD
ENDROOT
BRANCH   6  20
ATOM     20  C   UNL     1       5.151  -0.473   0.385  0.00  0.00    -0.035 A 
ATOM     21  C   UNL     1       5.218  -1.589  -0.427  0.00  0.00    +0.007 A 
ATOM     22  C   UNL     1       6.047  -2.642  -0.089  0.00  0.00    +0.038 A 
ATOM     23  C   UNL     1       6.811  -2.577   1.064  0.00  0.00    +0.123 A 
ATOM     24  C   UNL     1       6.743  -1.458   1.877  0.00  0.00    +0.038 A 
ATOM     25  C   UNL     1       5.917  -0.405   1.533  0.00  0.00    +0.007 A 
ATOM     26  F   UNL     1       7.622  -3.606   1.396  0.00  0.00    -0.205 F 
ENDBRANCH   6  20
BRANCH  11  27
ATOM     27  C   UNL     1       6.617   2.979  -3.746  0.00  0.00    +0.067 A 
ATOM     28  C   UNL     1       7.722   3.544  -3.122  0.00  0.00    +0.028 A 
ATOM     29  C   UNL     1       8.630   4.277  -3.859  0.00  0.00    +0.002 A 
ATOM     30  C   UNL     1       8.440   4.450  -5.218  0.00  0.00    +0.000 A 
ATOM     31  C   UNL     1       7.341   3.890  -5.843  0.00  0.00    +0.002 A 
ATOM     32  C   UNL     1       6.432   3.150  -5.112  0.00  0.00    +0.028 A 
ENDBRANCH  11  27
TORSDOF 2
