REMARK  Name = ZINC22983983
REMARK  4 active torsions:
REMARK  status: ('A' for Active; 'I' for Inactive)
REMARK    1  A    between atoms: C_5  and  N_7
REMARK    2  A    between atoms: C_11  and  C_13
REMARK    3  A    between atoms: C_13  and  N_14
REMARK    4  A    between atoms: C_21  and  C_24
REMARK                            x       y       z     vdW  Elec       q    Type
REMARK                         _______ _______ _______ _____ _____    ______ ____
ROOT
ATOM      1  N   UNL     1       2.406   1.040   0.029  0.00  0.00    -0.290 N 
ATOM      2  C   UNL     1       2.923   0.608   1.208  0.00  0.00    +0.203 A 
ATOM      3  N   UNL     1       3.923  -0.231   1.240  0.00  0.00    -0.230 NA
ATOM      4  C   UNL     1       4.475  -0.683   0.117  0.00  0.00    +0.116 A 
ATOM      5  C   UNL     1       4.011  -0.288  -1.149  0.00  0.00    +0.080 A 
ATOM      6  C   UNL     1       2.911   0.627  -1.149  0.00  0.00    +0.263 A 
ATOM      7  O   UNL     1       2.439   1.028  -2.199  0.00  0.00    -0.267 OA
ATOM      8  C   UNL     1       4.724  -0.874  -2.278  0.00  0.00    +0.004 A 
ATOM      9  C   UNL     1       5.747  -1.728  -2.031  0.00  0.00    +0.056 A 
ATOM     10  S   UNL     1       5.810  -1.792  -0.251  0.00  0.00    -0.076 S 
ENDROOT
BRANCH   8  11
ATOM     11  C   UNL     1       4.337  -0.542  -3.670  0.00  0.00    -0.016 A 
ATOM     12  C   UNL     1       3.003  -0.635  -4.067  0.00  0.00    +0.010 A 
ATOM     13  C   UNL     1       2.647  -0.319  -5.362  0.00  0.00    +0.020 A 
ATOM     14  C   UNL     1       3.614   0.079  -6.270  0.00  0.00    +0.041 A 
ATOM     15  C   UNL     1       4.940   0.168  -5.883  0.00  0.00    +0.020 A 
ATOM     16  C   UNL     1       5.306  -0.140  -4.589  0.00  0.00    +0.010 A 
ATOM     17 CL   UNL     1       3.160   0.469  -7.900  0.00  0.00    -0.084 Cl
ENDBRANCH   8  11
BRANCH   1  18
ATOM     18  C   UNL     1       1.280   1.977   0.038  0.00  0.00    +0.222 C 
BRANCH  18  23
ATOM     19  N   UNL     1      -3.525   1.834   0.029  0.00  0.00    -0.267 N 
ATOM     20  C   UNL     1      -2.349   1.176   0.027  0.00  0.00    +0.310 C 
ATOM     21  O   UNL     1      -2.333  -0.039   0.017  0.00  0.00    -0.252 OA
ATOM     22  N   UNL     1      -1.191   1.865   0.036  0.00  0.00    -0.238 N 
ATOM     23  C   UNL     1      -0.015   1.206   0.034  0.00  0.00    +0.240 C 
ATOM     24  O   UNL     1       0.001  -0.006   0.024  0.00  0.00    -0.273 OA
ATOM     25  H   UNL     1      -3.541   2.931   0.112  0.00  0.00    +0.156 HD
ATOM     26  H   UNL     1      -1.205   2.965   0.045  0.00  0.00    +0.159 HD
BRANCH  19  31
ATOM     27  C   UNL     1      -6.033  -0.829   0.410  0.00  0.00    +0.002 A 
ATOM     28  C   UNL     1      -7.101  -0.286  -0.281  0.00  0.00    +0.003 A 
ATOM     29  C   UNL     1      -6.986   0.960  -0.870  0.00  0.00    +0.040 A 
ATOM     30  C   UNL     1      -5.801   1.667  -0.769  0.00  0.00    +0.145 A 
ATOM     31  C   UNL     1      -4.726   1.122  -0.075  0.00  0.00    +0.070 A 
ATOM     32  C   UNL     1      -4.845  -0.131   0.510  0.00  0.00    +0.026 A 
ATOM     33  F   UNL     1      -5.689   2.884  -1.345  0.00  0.00    -0.204 F 
ENDBRANCH  19  31
ENDBRANCH  18  23
ENDBRANCH   1  18
TORSDOF 4
