REMARK  Name = ZINC25384520
REMARK  11 active torsions:
REMARK  status: ('A' for Active; 'I' for Inactive)
REMARK    1  A    between atoms: C_1  and  C_2
REMARK    2  A    between atoms: C_5  and  C_9
REMARK    3  A    between atoms: C_6  and  C_8
REMARK    4  A    between atoms: N_11  and  N_12
REMARK    5  A    between atoms: C_13  and  C_15
REMARK    6  A    between atoms: C_15  and  C_17
REMARK    7  A    between atoms: C_15  and  N_20
REMARK    8  A    between atoms: C_17  and  C_18
REMARK    9  A    between atoms: C_17  and  C_19
REMARK   10  A    between atoms: N_20  and  S_21
REMARK   11  A    between atoms: S_21  and  C_24
REMARK                            x       y       z     vdW  Elec       q    Type
REMARK                         _______ _______ _______ _____ _____    ______ ____
ROOT
ATOM      1  C   UNL     1      -5.539   2.520   1.177  0.00  0.00    +0.166 C 
ENDROOT
BRANCH   1   3
ATOM      2  N   UNL     1      -3.071   2.383   1.249  0.00  0.00    -0.233 N 
ATOM      3  C   UNL     1      -4.247   1.754   1.057  0.00  0.00    +0.248 C 
ATOM      4  O   UNL     1      -4.266   0.572   0.789  0.00  0.00    -0.273 OA
ATOM      5  H   UNL     1      -3.055   3.436   1.569  0.00  0.00    +0.173 HD
BRANCH   2   8
ATOM      6  C   UNL     1      -0.691   2.326   1.233  0.00  0.00    +0.260 C 
ATOM      7  O   UNL     1      -0.674   3.489   1.587  0.00  0.00    -0.269 OA
ATOM      8  N   UNL     1      -1.867   1.697   1.042  0.00  0.00    -0.230 N 
ATOM      9  H   UNL     1      -1.882   0.644   0.722  0.00  0.00    +0.173 HD
BRANCH   6  14
ATOM     10  C   UNL     1       4.252  -0.490   0.362  0.00  0.00    +0.044 C 
ATOM     11  C   UNL     1       2.958   0.247   0.592  0.00  0.00    -0.050 A 
ATOM     12  C   UNL     1       1.754  -0.432   0.513  0.00  0.00    +0.004 A 
ATOM     13  C   UNL     1       0.566   0.236   0.722  0.00  0.00    +0.013 A 
ATOM     14  C   UNL     1       0.579   1.601   1.014  0.00  0.00    +0.041 A 
ATOM     15  C   UNL     1       1.796   2.280   1.093  0.00  0.00    -0.038 A 
ATOM     16  C   UNL     1       2.977   1.600   0.881  0.00  0.00    +0.007 A 
ATOM     17  C   UNL     1       1.819   3.754   1.407  0.00  0.00    +0.044 C 
ENDBRANCH   6  14
ENDBRANCH   2   8
ENDBRANCH   1   3
BRANCH   1  18
ATOM     18  C   UNL     1      -5.784   3.312  -0.110  0.00  0.00    +0.010 C 
ATOM     19  C   UNL     1      -5.865   2.347  -1.294  0.00  0.00    +0.009 C 
ATOM     20  C   UNL     1      -7.099   4.085   0.009  0.00  0.00    +0.009 C 
ENDBRANCH   1  18
BRANCH   1  21
ATOM     21  N   UNL     1      -6.645   1.583   1.391  0.00  0.00    -0.178 NA
ATOM     22  H   UNL     1      -7.263   1.258   0.541  0.00  0.00    +0.149 HD
BRANCH  21  23
ATOM     23  S   UNL     1      -7.122   1.204   2.931  0.00  0.00    +0.059 S 
ATOM     24  O   UNL     1      -8.268   0.372   2.808  0.00  0.00    -0.153 OA
ATOM     25  O   UNL     1      -5.955   0.794   3.629  0.00  0.00    -0.153 OA
BRANCH  23  26
ATOM     26  C   UNL     1      -7.664   2.699   3.691  0.00  0.00    +0.106 A 
ATOM     27  C   UNL     1      -6.738   3.514   4.340  0.00  0.00    +0.029 A 
ATOM     28  C   UNL     1      -7.123   4.677   4.932  0.00  0.00    +0.010 A 
ATOM     29  C   UNL     1      -8.475   5.060   4.901  0.00  0.00    -0.018 A 
ATOM     30  C   UNL     1      -8.911   6.250   5.507  0.00  0.00    +0.008 A 
ATOM     31  C   UNL     1     -10.228   6.589   5.456  0.00  0.00    +0.001 A 
ATOM     32  C   UNL     1     -11.154   5.771   4.812  0.00  0.00    +0.001 A 
ATOM     33  C   UNL     1     -10.769   4.611   4.214  0.00  0.00    +0.008 A 
ATOM     34  C   UNL     1      -9.417   4.228   4.245  0.00  0.00    -0.016 A 
ATOM     35  C   UNL     1      -8.981   3.037   3.640  0.00  0.00    +0.037 A 
ENDBRANCH  23  26
ENDBRANCH  21  23
ENDBRANCH   1  21
TORSDOF 7
