REMARK  Name = ZINC18222035
REMARK  2 active torsions:
REMARK  status: ('A' for Active; 'I' for Inactive)
REMARK    1  A    between atoms: C_4  and  C_7
REMARK    2  A    between atoms: C_12  and  C_20
REMARK                            x       y       z     vdW  Elec       q    Type
REMARK                         _______ _______ _______ _____ _____    ______ ____
ROOT
ATOM      1  C   UNL     1       3.711  -0.707  -0.038  0.00  0.00    +0.032 C 
ATOM      2  C   UNL     1       3.791  -1.591  -1.284  0.00  0.00    +0.060 C 
ATOM      3  C   UNL     1       5.090  -2.362  -1.278  0.00  0.00    +0.020 C 
ATOM      4  C   UNL     1       5.675  -2.727  -0.118  0.00  0.00    +0.041 C 
ATOM      5  C   UNL     1       6.977  -3.497  -0.080  0.00  0.00    +0.176 C 
ATOM      6  N   UNL     1       7.277  -4.033  -1.402  0.00  0.00    -0.221 N 
ATOM      7  C   UNL     1       6.643  -3.633  -2.531  0.00  0.00    +0.218 A 
ATOM      8  N   UNL     1       7.147  -4.297  -3.534  0.00  0.00    -0.201 NA
ATOM      9  C   UNL     1       8.095  -5.128  -3.088  0.00  0.00    +0.247 A 
ATOM     10  N   UNL     1       8.205  -4.999  -1.789  0.00  0.00    -0.156 NA
ATOM     11  N   UNL     1       5.640  -2.677  -2.498  0.00  0.00    -0.287 N 
ATOM     12  C   UNL     1       5.092  -2.397   1.119  0.00  0.00    +0.164 C 
ATOM     13  O   UNL     1       5.632  -2.760   2.146  0.00  0.00    -0.292 OA
ATOM     14  C   UNL     1       3.817  -1.605   1.200  0.00  0.00    +0.088 C 
ATOM     15  H   UNL     1       5.336  -2.244  -3.310  0.00  0.00    +0.155 HD
ENDROOT
BRANCH   5  16
ATOM     16  C   UNL     1       8.091  -2.576   0.347  0.00  0.00    -0.013 A 
ATOM     17  C   UNL     1       8.383  -1.451  -0.400  0.00  0.00    +0.044 A 
ATOM     18  C   UNL     1       9.406  -0.605  -0.008  0.00  0.00    +0.126 A 
ATOM     19  C   UNL     1      10.137  -0.886   1.133  0.00  0.00    +0.076 A 
ATOM     20  C   UNL     1       9.844  -2.013   1.882  0.00  0.00    +0.126 A 
ATOM     21  C   UNL     1       8.816  -2.855   1.490  0.00  0.00    +0.044 A 
ATOM     22  F   UNL     1      10.556  -2.288   2.996  0.00  0.00    -0.205 F 
ATOM     23  F   UNL     1       9.691   0.495  -0.740  0.00  0.00    -0.205 F 
ENDBRANCH   5  16
BRANCH   1  27
ATOM     24  C   UNL     1      -0.017   1.378   0.010  0.00  0.00    +0.000 A 
ATOM     25  C   UNL     1       1.171   2.086   0.002  0.00  0.00    +0.000 A 
ATOM     26  C   UNL     1       2.377   1.411  -0.013  0.00  0.00    +0.004 A 
ATOM     27  C   UNL     1       2.396   0.029  -0.020  0.00  0.00    -0.044 A 
ATOM     28  C   UNL     1       1.208  -0.679  -0.012  0.00  0.00    +0.004 A 
ATOM     29  C   UNL     1       0.002  -0.004   0.002  0.00  0.00    +0.000 A 
ENDBRANCH   1  27
TORSDOF 2
