REMARK  Name = ZINC04935072
REMARK  5 active torsions:
REMARK  status: ('A' for Active; 'I' for Inactive)
REMARK    1  A    between atoms: C_4  and  C_7
REMARK    2  A    between atoms: N_11  and  N_12
REMARK    3  A    between atoms: C_13  and  C_15
REMARK    4  A    between atoms: C_15  and  N_16
REMARK    5  A    between atoms: N_16  and  C_17
REMARK                            x       y       z     vdW  Elec       q    Type
REMARK                         _______ _______ _______ _____ _____    ______ ____
ROOT
ATOM      1  C   UNL     1       4.631   3.835  -0.964  0.00  0.00    +0.209 C 
ATOM      2  C   UNL     1       3.507   3.397  -0.013  0.00  0.00    +0.107 C 
ATOM      3  C   UNL     1       3.481   1.879  -0.021  0.00  0.00    +0.074 C 
ATOM      4  N   UNL     1       2.366   1.215  -0.014  0.00  0.00    -0.184 NA
ATOM      5  C   UNL     1       4.794   1.197  -0.031  0.00  0.00    +0.040 A 
ATOM      6  C   UNL     1       4.887  -0.173   0.197  0.00  0.00    +0.013 A 
ATOM      7  C   UNL     1       6.123  -0.787   0.173  0.00  0.00    +0.001 A 
ATOM      8  C   UNL     1       7.263  -0.045  -0.084  0.00  0.00    +0.004 A 
ATOM      9  C   UNL     1       7.180   1.315  -0.316  0.00  0.00    +0.046 A 
ATOM     10  C   UNL     1       5.948   1.950  -0.294  0.00  0.00    +0.130 A 
ATOM     11  O   UNL     1       5.870   3.285  -0.518  0.00  0.00    -0.483 OA
ENDROOT
BRANCH   1  15
ATOM     12  C   UNL     1       4.893   8.099  -0.993  0.00  0.00    +0.000 A 
ATOM     13  C   UNL     1       4.149   7.445  -1.959  0.00  0.00    +0.000 A 
ATOM     14  C   UNL     1       4.065   6.066  -1.949  0.00  0.00    +0.007 A 
ATOM     15  C   UNL     1       4.723   5.339  -0.975  0.00  0.00    -0.007 A 
ATOM     16  C   UNL     1       5.462   5.993  -0.006  0.00  0.00    +0.007 A 
ATOM     17  C   UNL     1       5.551   7.373  -0.018  0.00  0.00    +0.000 A 
ENDBRANCH   1  15
BRANCH   4  18
ATOM     18  N   UNL     1       1.143   1.899   0.001  0.00  0.00    -0.205 N 
ATOM     19  C   UNL     1      -0.014   1.209   0.009  0.00  0.00    +0.249 C 
ATOM     20  O   UNL     1       0.002  -0.004   0.002  0.00  0.00    -0.272 OA
ATOM     21  H   UNL     1       1.130   2.869   0.007  0.00  0.00    +0.177 HD
BRANCH  19  22
ATOM     22  C   UNL     1      -1.330   1.945   0.019  0.00  0.00    +0.199 C 
BRANCH  22  23
ATOM     23  N   UNL     1      -2.430   0.978   0.019  0.00  0.00    -0.335 N 
ATOM     24  H   UNL     1      -2.240   0.026   0.013  0.00  0.00    +0.147 HD
BRANCH  23  25
ATOM     25  C   UNL     1      -3.755   1.426   0.028  0.00  0.00    +0.028 A 
ATOM     26  C   UNL     1      -4.028   2.787   0.042  0.00  0.00    +0.026 A 
ATOM     27  C   UNL     1      -5.337   3.228   0.046  0.00  0.00    +0.040 A 
ATOM     28  C   UNL     1      -6.376   2.313   0.046  0.00  0.00    +0.124 A 
ATOM     29  C   UNL     1      -6.106   0.955   0.037  0.00  0.00    +0.040 A 
ATOM     30  C   UNL     1      -4.798   0.510   0.028  0.00  0.00    +0.026 A 
ATOM     31  F   UNL     1      -7.656   2.746   0.054  0.00  0.00    -0.205 F 
ENDBRANCH  23  25
ENDBRANCH  22  23
ENDBRANCH  19  22
ENDBRANCH   4  18
TORSDOF 5
