REMARK  Name = ZINC35574411
REMARK  6 active torsions:
REMARK  status: ('A' for Active; 'I' for Inactive)
REMARK    1  A    between atoms: C_1  and  C_2
REMARK    2  A    between atoms: C_2  and  C_3
REMARK    3  A    between atoms: C_2  and  C_4
REMARK    4  A    between atoms: C_2  and  N_5
REMARK    5  A    between atoms: N_5  and  N_6
REMARK    6  A    between atoms: N_6  and  C_7
REMARK                            x       y       z     vdW  Elec       q    Type
REMARK                         _______ _______ _______ _____ _____    ______ ____
ROOT
ATOM      1  C   UNL     1       2.783  -0.357  -2.289  0.00  0.00    +0.098 C 
ATOM      2  C   UNL     1       4.045   0.187  -2.385  0.00  0.00    +0.060 C 
ATOM      3  C   UNL     1       4.893  -0.063  -3.570  0.00  0.00    +0.000 A 
ATOM      4  C   UNL     1       4.458  -0.851  -4.628  0.00  0.00    +0.009 A 
ATOM      5  C   UNL     1       5.287  -1.054  -5.712  0.00  0.00    +0.001 A 
ATOM      6  C   UNL     1       6.550  -0.479  -5.752  0.00  0.00    +0.001 A 
ATOM      7  C   UNL     1       6.999   0.305  -4.711  0.00  0.00    +0.014 A 
ATOM      8  C   UNL     1       6.176   0.524  -3.606  0.00  0.00    +0.046 A 
ATOM      9  C   UNL     1       6.615   1.353  -2.477  0.00  0.00    +0.259 C 
ATOM     10  O   UNL     1       7.720   1.861  -2.502  0.00  0.00    -0.269 OA
ATOM     11  N   UNL     1       5.818   1.559  -1.416  0.00  0.00    -0.186 N 
ATOM     12  C   UNL     1       4.585   1.037  -1.318  0.00  0.00    +0.260 C 
ATOM     13  O   UNL     1       3.909   1.267  -0.332  0.00  0.00    -0.269 OA
ATOM     14  C   UNL     1       6.290   2.357  -0.371  0.00  0.00    +0.135 A 
ATOM     15  C   UNL     1       7.071   1.790   0.629  0.00  0.00    +0.044 A 
ATOM     16  C   UNL     1       7.532   2.592   1.658  0.00  0.00    +0.005 A 
ATOM     17  C   UNL     1       7.194   3.939   1.651  0.00  0.00    +0.020 A 
ATOM     18  C   UNL     1       6.414   4.434   0.625  0.00  0.00    +0.113 A 
ATOM     19  N   UNL     1       5.994   3.647  -0.346  0.00  0.00    -0.239 NA
ENDROOT
BRANCH   1  20
ATOM     20  N   UNL     1       1.967  -0.003  -1.262  0.00  0.00    -0.286 N 
ATOM     21  H   UNL     1       2.298   0.575  -0.557  0.00  0.00    +0.166 HD
BRANCH  20  22
ATOM     22  N   UNL     1       0.681  -0.461  -1.223  0.00  0.00    -0.238 NA
ATOM     23  H   UNL     1       0.184  -0.215  -2.067  0.00  0.00    +0.145 HD
BRANCH  22  25
ATOM     24  C   UNL     1      -0.045   1.570  -0.063  0.00  0.00    +0.029 C 
ATOM     25  C   UNL     1      -0.021   0.041  -0.034  0.00  0.00    +0.028 C 
ATOM     26  C   UNL     1       0.707  -0.434   1.225  0.00  0.00    +0.029 C 
ATOM     27  C   UNL     1      -1.455  -0.492  -0.025  0.00  0.00    +0.029 C 
ENDBRANCH  22  25
ENDBRANCH  20  22
ENDBRANCH   1  20
TORSDOF 3
