REMARK  Name = ZINC23505993
REMARK  5 active torsions:
REMARK  status: ('A' for Active; 'I' for Inactive)
REMARK    1  A    between atoms: C_4  and  C_7
REMARK    2  A    between atoms: C_10  and  C_13
REMARK    3  A    between atoms: C_13  and  N_14
REMARK    4  A    between atoms: C_20  and  C_22
REMARK    5  A    between atoms: C_22  and  C_23
REMARK                            x       y       z     vdW  Elec       q    Type
REMARK                         _______ _______ _______ _____ _____    ______ ____
ROOT
ATOM      1  N   UNL     1      -1.766  -1.010  -1.308  0.00  0.00    +0.391 N 
ATOM      2  C   UNL     1      -2.244   0.234  -1.933  0.00  0.00    -0.058 C 
ATOM      3  C   UNL     1      -2.316   0.027  -3.447  0.00  0.00    +0.085 C 
ATOM      4  N   UNL     1      -3.049  -1.198  -3.750  0.00  0.00    -0.318 N 
ATOM      5  C   UNL     1      -3.258  -2.163  -2.848  0.00  0.00    +0.200 C 
ATOM      6  O   UNL     1      -3.851  -3.163  -3.193  0.00  0.00    -0.278 OA
ATOM      7  C   UNL     1      -2.788  -2.059  -1.425  0.00  0.00    +0.028 C 
ATOM      8  H   UNL     1      -3.459  -1.359  -4.758  0.00  0.00    +0.149 HD
ATOM      9  H   UNL     1      -0.862  -1.344  -1.838  0.00  0.00    -0.080 HD
ENDROOT
BRANCH   1  10
ATOM     10  C   UNL     1      -1.399  -0.786   0.097  0.00  0.00    -0.042 C 
BRANCH  10  14
ATOM     11  C   UNL     1       2.270   1.402   0.279  0.00  0.00    -0.018 A 
ATOM     12  C   UNL     1       1.052   2.079   0.246  0.00  0.00    +0.009 A 
ATOM     13  C   UNL     1      -0.129   1.368   0.187  0.00  0.00    +0.002 A 
ATOM     14  C   UNL     1      -0.106  -0.015   0.161  0.00  0.00    -0.064 A 
ATOM     15  C   UNL     1       1.100  -0.692   0.194  0.00  0.00    +0.002 A 
ATOM     16  C   UNL     1       2.287   0.009   0.253  0.00  0.00    +0.009 A 
BRANCH  11  20
ATOM     17  C   UNL     1       5.918   3.578   0.459  0.00  0.00    +0.000 A 
ATOM     18  C   UNL     1       4.713   4.256   0.426  0.00  0.00    +0.001 A 
ATOM     19  C   UNL     1       3.526   3.554   0.368  0.00  0.00    +0.008 A 
ATOM     20  C   UNL     1       3.543   2.161   0.342  0.00  0.00    -0.018 A 
ATOM     21  C   UNL     1       4.760   1.484   0.381  0.00  0.00    +0.008 A 
ATOM     22  C   UNL     1       5.941   2.196   0.434  0.00  0.00    +0.001 A 
ENDBRANCH  11  20
ENDBRANCH  10  14
ENDBRANCH   1  10
BRANCH   7  23
ATOM     23  C   UNL     1      -2.191  -3.399  -0.989  0.00  0.00    +0.090 C 
BRANCH  23  24
ATOM     24  C   UNL     1      -0.985  -3.712  -1.838  0.00  0.00    +0.215 C 
ATOM     25  O   UNL     1      -0.582  -2.898  -2.641  0.00  0.00    -0.276 OA
ATOM     26  N   UNL     1      -0.356  -4.896  -1.704  0.00  0.00    -0.297 N 
ATOM     27  C   UNL     1       0.818  -5.223  -2.527  0.00  0.00    +0.114 C 
ATOM     28  C   UNL     1       2.044  -5.374  -1.613  0.00  0.00    +0.076 C 
ATOM     29  C   UNL     1       1.660  -6.209  -0.417  0.00  0.00    +0.069 A 
ATOM     30  C   UNL     1       0.383  -6.443  -0.020  0.00  0.00    +0.010 A 
ATOM     31  C   UNL     1       0.422  -7.244   1.117  0.00  0.00    +0.110 A 
ATOM     32  N   UNL     1       1.679  -7.485   1.401  0.00  0.00    -0.284 N 
ATOM     33  N   UNL     1       2.477  -6.846   0.439  0.00  0.00    -0.179 NA
ATOM     34  H   UNL     1       1.938  -8.101   2.275  0.00  0.00    +0.188 HD
ATOM     35  C   UNL     1      -0.832  -5.899  -0.733  0.00  0.00    +0.146 C 
ENDBRANCH  23  24
ENDBRANCH   7  23
TORSDOF 5
