REMARK  Name = ZINC13637108
REMARK  7 active torsions:
REMARK  status: ('A' for Active; 'I' for Inactive)
REMARK    1  A    between atoms: C_1  and  C_2
REMARK    2  A    between atoms: C_5  and  N_9
REMARK    3  A    between atoms: C_6  and  C_8
REMARK    4  A    between atoms: N_9  and  S_10
REMARK    5  A    between atoms: S_10  and  C_13
REMARK    6  A    between atoms: C_26  and  C_29
REMARK    7  A    between atoms: C_32  and  O_35
REMARK                            x       y       z     vdW  Elec       q    Type
REMARK                         _______ _______ _______ _____ _____    ______ ____
ROOT
ATOM      1  C   UNL     1       0.450  -2.877  -0.408  0.00  0.00    +0.109 A 
ATOM      2  C   UNL     1      -0.909  -2.621  -0.382  0.00  0.00    +0.030 A 
ATOM      3  C   UNL     1      -1.370  -1.321  -0.374  0.00  0.00    +0.025 A 
ATOM      4  C   UNL     1      -0.474  -0.259  -0.389  0.00  0.00    +0.031 A 
ATOM      5  C   UNL     1       0.900  -0.525  -0.402  0.00  0.00    -0.018 A 
ATOM      6  C   UNL     1       1.350  -1.827  -0.417  0.00  0.00    +0.034 A 
ATOM      7  C   UNL     1       1.820   0.633  -0.387  0.00  0.00    +0.049 C 
ATOM      8  C   UNL     1       3.191   0.556  -0.951  0.00  0.00    -0.023 C 
ATOM      9  C   UNL     1       3.525   1.754  -1.417  0.00  0.00    -0.030 C 
ATOM     10  C   UNL     1       2.364   2.732  -1.226  0.00  0.00    +0.033 C 
ATOM     11  C   UNL     1       1.159   1.781  -1.206  0.00  0.00    +0.029 C 
ATOM     12  C   UNL     1      -0.049   2.214  -0.395  0.00  0.00    +0.105 C 
ATOM     13  N   UNL     1      -0.965   1.052  -0.394  0.00  0.00    -0.336 N 
ATOM     14  H   UNL     1      -1.923   1.202  -0.402  0.00  0.00    +0.147 HD
ENDROOT
BRANCH  12  15
ATOM     15  C   UNL     1       0.364   2.552   1.014  0.00  0.00    -0.027 A 
ATOM     16  C   UNL     1       0.364   1.570   1.988  0.00  0.00    +0.009 A 
ATOM     17  C   UNL     1       0.747   1.876   3.279  0.00  0.00    +0.046 A 
ATOM     18  C   UNL     1       1.122   3.172   3.601  0.00  0.00    +0.117 A 
ATOM     19  C   UNL     1       1.116   4.157   2.624  0.00  0.00    +0.046 A 
ATOM     20  C   UNL     1       0.737   3.844   1.333  0.00  0.00    +0.009 A 
BRANCH  18  21
ATOM     21  O   UNL     1       1.495   3.477   4.872  0.00  0.00    -0.507 OA
ATOM     22  H   UNL     1       0.765   3.758   5.440  0.00  0.00    +0.292 HD
ENDBRANCH  18  21
ENDBRANCH  12  15
BRANCH   1  23
ATOM     23  S   UNL     1       1.034  -4.539  -0.428  0.00  0.00    +0.072 S 
ATOM     24  O   UNL     1      -0.016  -5.332  -0.965  0.00  0.00    -0.150 OA
ATOM     25  O   UNL     1       2.333  -4.506  -1.002  0.00  0.00    -0.150 OA
BRANCH  23  26
ATOM     26  N   UNL     1       1.224  -5.011   1.148  0.00  0.00    -0.216 N 
ATOM     27  H   UNL     1       2.100  -5.273   1.473  0.00  0.00    +0.174 HD
BRANCH  26  32
ATOM     28  C   UNL     1      -3.239  -5.091   4.645  0.00  0.00    +0.044 C 
ATOM     29  C   UNL     1      -2.053  -5.069   3.715  0.00  0.00    -0.050 A 
ATOM     30  C   UNL     1      -2.214  -5.406   2.383  0.00  0.00    +0.005 A 
ATOM     31  C   UNL     1      -1.129  -5.387   1.529  0.00  0.00    +0.025 A 
ATOM     32  C   UNL     1       0.125  -5.030   2.009  0.00  0.00    +0.051 A 
ATOM     33  C   UNL     1       0.284  -4.697   3.348  0.00  0.00    -0.028 A 
ATOM     34  C   UNL     1      -0.807  -4.712   4.196  0.00  0.00    +0.008 A 
ATOM     35  C   UNL     1       1.643  -4.314   3.874  0.00  0.00    +0.046 C 
ENDBRANCH  26  32
ENDBRANCH  23  26
ENDBRANCH   1  23
TORSDOF 5
