REMARK  Name = ZINC21236525
REMARK  11 active torsions:
REMARK  status: ('A' for Active; 'I' for Inactive)
REMARK    1  A    between atoms: C_1  and  C_2
REMARK    2  A    between atoms: C_2  and  C_3
REMARK    3  A    between atoms: C_3  and  O_4
REMARK    4  A    between atoms: O_4  and  C_5
REMARK    5  A    between atoms: C_10  and  C_11
REMARK    6  A    between atoms: C_16  and  C_21
REMARK    7  A    between atoms: C_24  and  O_29
REMARK    8  A    between atoms: C_25  and  O_27
REMARK    9  A    between atoms: O_27  and  C_28
REMARK   10  A    between atoms: O_29  and  C_30
REMARK   11  A    between atoms: C_30  and  C_31
REMARK                            x       y       z     vdW  Elec       q    Type
REMARK                         _______ _______ _______ _____ _____    ______ ____
ROOT
ATOM      1  C   UNL     1       2.281   0.451   3.587  0.00  0.00    +0.139 C 
ATOM      2  C   UNL     1       1.349   0.892   2.485  0.00  0.00    +0.037 C 
ATOM      3  C   UNL     1       0.019   1.057   2.594  0.00  0.00    +0.017 C 
ATOM      4  C   UNL     1      -0.802   1.521   1.403  0.00  0.00    +0.059 C 
ATOM      5  C   UNL     1      -0.180   1.006   0.107  0.00  0.00    +0.032 C 
ATOM      6  C   UNL     1       1.248   1.559   0.022  0.00  0.00    +0.088 C 
ATOM      7  C   UNL     1       1.997   1.135   1.250  0.00  0.00    +0.163 C 
ATOM      8  O   UNL     1       3.202   0.996   1.183  0.00  0.00    -0.292 OA
ATOM      9  N   UNL     1      -0.693   0.852   3.733  0.00  0.00    -0.316 N 
ATOM     10  C   UNL     1      -0.565  -0.256   4.563  0.00  0.00    +0.052 A 
ATOM     11  C   UNL     1      -1.611  -1.132   4.793  0.00  0.00    +0.025 A 
ATOM     12  C   UNL     1      -1.455  -2.147   5.722  0.00  0.00    +0.002 A 
ATOM     13  C   UNL     1      -0.264  -2.283   6.412  0.00  0.00    +0.002 A 
ATOM     14  C   UNL     1       0.791  -1.421   6.167  0.00  0.00    +0.025 A 
ATOM     15  C   UNL     1       0.643  -0.415   5.225  0.00  0.00    +0.049 A 
ATOM     16  N   UNL     1       1.691   0.448   4.909  0.00  0.00    -0.331 N 
ATOM     17  H   UNL     1      -1.437   1.594   4.057  0.00  0.00    +0.152 HD
ATOM     18  H   UNL     1       2.070   1.133   5.681  0.00  0.00    +0.147 HD
ENDROOT
BRANCH   1  24
ATOM     19  C   UNL     1       3.885  -1.449   3.912  0.00  0.00    +0.126 A 
ATOM     20  C   UNL     1       4.322  -2.734   3.626  0.00  0.00    +0.046 A 
ATOM     21  C   UNL     1       3.643  -3.504   2.702  0.00  0.00    +0.004 A 
ATOM     22  C   UNL     1       2.526  -2.996   2.065  0.00  0.00    +0.001 A 
ATOM     23  C   UNL     1       2.085  -1.718   2.352  0.00  0.00    +0.009 A 
ATOM     24  C   UNL     1       2.761  -0.944   3.276  0.00  0.00    +0.019 A 
BRANCH  19  25
ATOM     25  O   UNL     1       4.555  -0.687   4.817  0.00  0.00    -0.492 OA
BRANCH  25  26
ATOM     26  C   UNL     1       5.704  -1.272   5.433  0.00  0.00    +0.229 C 
BRANCH  26  28
ATOM     27  C   UNL     1       7.551  -0.899   7.074  0.00  0.00    +0.007 C 
ATOM     28  C   UNL     1       6.321  -0.273   6.414  0.00  0.00    +0.038 C 
ENDBRANCH  26  28
ENDBRANCH  25  26
ENDBRANCH  19  25
ENDBRANCH   1  24
BRANCH   5  29
ATOM     29  C   UNL     1      -0.984   1.487  -1.073  0.00  0.00    -0.040 A 
ATOM     30  C   UNL     1      -1.152   2.842  -1.287  0.00  0.00    +0.008 A 
ATOM     31  C   UNL     1      -1.889   3.288  -2.369  0.00  0.00    +0.050 A 
ATOM     32  C   UNL     1      -2.461   2.376  -3.241  0.00  0.00    +0.162 A 
ATOM     33  C   UNL     1      -2.292   1.011  -3.026  0.00  0.00    +0.162 A 
ATOM     34  C   UNL     1      -1.548   0.571  -1.942  0.00  0.00    +0.053 A 
BRANCH  33  35
ATOM     35  O   UNL     1      -2.851   0.112  -3.879  0.00  0.00    -0.491 OA
ATOM     36  C   UNL     1      -2.635  -1.272  -3.595  0.00  0.00    +0.277 C 
ENDBRANCH  33  35
BRANCH  32  37
ATOM     37  O   UNL     1      -3.186   2.812  -4.305  0.00  0.00    -0.489 OA
BRANCH  37  38
ATOM     38  C   UNL     1      -3.318   4.226  -4.464  0.00  0.00    +0.226 C 
ATOM     39  C   UNL     1      -4.161   4.524  -5.706  0.00  0.00    +0.048 C 
ENDBRANCH  37  38
ENDBRANCH  32  37
ENDBRANCH   5  29
TORSDOF 8
