REMARK  Name = ZINC12884042
REMARK  7 active torsions:
REMARK  status: ('A' for Active; 'I' for Inactive)
REMARK    1  A    between atoms: C_1  and  C_2
REMARK    2  A    between atoms: C_2  and  C_3
REMARK    3  A    between atoms: C_17  and  C_19
REMARK    4  A    between atoms: C_19  and  C_20
REMARK    5  A    between atoms: N_25  and  C_28
REMARK    6  A    between atoms: C_28  and  C_29
REMARK    7  A    between atoms: C_29  and  C_30
REMARK                            x       y       z     vdW  Elec       q    Type
REMARK                         _______ _______ _______ _____ _____    ______ ____
ROOT
ATOM      1  C   UNL     1      -7.018   4.022  -3.904  0.00  0.00    -0.026 A 
ATOM      2  C   UNL     1      -6.416   4.397  -5.087  0.00  0.00    +0.005 A 
ATOM      3  C   UNL     1      -5.079   4.751  -5.109  0.00  0.00    +0.001 A 
ATOM      4  C   UNL     1      -4.342   4.728  -3.938  0.00  0.00    +0.004 A 
ATOM      5  C   UNL     1      -4.939   4.355  -2.755  0.00  0.00    -0.027 A 
ATOM      6  C   UNL     1      -6.284   3.997  -2.721  0.00  0.00    +0.039 A 
ATOM      7  N   UNL     1      -6.662   3.659  -1.420  0.00  0.00    -0.286 N 
ATOM      8  C   UNL     1      -5.639   3.770  -0.549  0.00  0.00    +0.211 C 
ATOM      9  O   UNL     1      -5.675   3.545   0.642  0.00  0.00    -0.277 OA
ATOM     10  C   UNL     1      -4.445   4.227  -1.342  0.00  0.00    +0.050 C 
ATOM     11  C   UNL     1      -3.900   5.561  -0.816  0.00  0.00    +0.088 C 
ATOM     12  C   UNL     1      -2.702   5.162   0.091  0.00  0.00    +0.073 C 
ATOM     13  C   UNL     1      -2.657   3.621   0.034  0.00  0.00    -0.049 C 
ATOM     14  C   UNL     1      -1.506   5.725  -0.643  0.00  0.00    +0.224 C 
ATOM     15  O   UNL     1      -0.353   5.628  -0.281  0.00  0.00    -0.275 OA
ATOM     16  N   UNL     1      -1.918   6.346  -1.754  0.00  0.00    -0.241 N 
ATOM     17  C   UNL     1      -3.242   6.319  -1.947  0.00  0.00    +0.225 C 
ATOM     18  O   UNL     1      -3.823   6.823  -2.884  0.00  0.00    -0.275 OA
ATOM     19  H   UNL     1      -7.556   3.378  -1.171  0.00  0.00    +0.155 HD
ATOM     20  N   UNL     1      -3.341   3.293  -1.219  0.00  0.00    +0.394 N 
ATOM     21  H   UNL     1      -2.697   3.397  -2.012  0.00  0.00    -0.083 HD
ATOM     22  H   UNL     1      -3.693   2.329  -1.189  0.00  0.00    -0.083 HD
ENDROOT
BRANCH   1  24
ATOM     23  C   UNL     1      -9.321   4.856  -3.513  0.00  0.00    +0.009 C 
ATOM     24  C   UNL     1      -8.476   3.638  -3.893  0.00  0.00    +0.033 C 
ENDBRANCH   1  24
BRANCH  13  25
ATOM     25  C   UNL     1      -1.208   3.131   0.025  0.00  0.00    +0.080 C 
BRANCH  25  26
ATOM     26  C   UNL     1      -1.187   1.624   0.017  0.00  0.00    +0.209 C 
ATOM     27  O   UNL     1      -2.229   1.003   0.018  0.00  0.00    -0.276 OA
ATOM     28  N   UNL     1      -0.011   0.966   0.007  0.00  0.00    -0.329 N 
ATOM     29  H   UNL     1       0.002  -0.004   0.002  0.00  0.00    +0.145 HD
ATOM     30  H   UNL     1       0.822   1.462   0.002  0.00  0.00    +0.145 HD
ENDBRANCH  25  26
ENDBRANCH  13  25
BRANCH  16  31
ATOM     31  C   UNL     1      -0.995   7.001  -2.684  0.00  0.00    +0.121 C 
BRANCH  31  32
ATOM     32  C   UNL     1      -0.541   5.997  -3.746  0.00  0.00    +0.054 C 
BRANCH  32  33
ATOM     33  C   UNL     1       0.408   6.672  -4.702  0.00  0.00    -0.046 A 
ATOM     34  C   UNL     1      -0.079   7.293  -5.837  0.00  0.00    +0.004 A 
ATOM     35  C   UNL     1       0.791   7.915  -6.712  0.00  0.00    +0.000 A 
ATOM     36  C   UNL     1       2.150   7.909  -6.457  0.00  0.00    +0.000 A 
ATOM     37  C   UNL     1       2.638   7.283  -5.324  0.00  0.00    +0.000 A 
ATOM     38  C   UNL     1       1.767   6.665  -4.447  0.00  0.00    +0.004 A 
ENDBRANCH  32  33
ENDBRANCH  31  32
ENDBRANCH  16  31
TORSDOF 6
