REMARK  Name = ZINC21108506
REMARK  8 active torsions:
REMARK  status: ('A' for Active; 'I' for Inactive)
REMARK    1  A    between atoms: C_1  and  C_2
REMARK    2  A    between atoms: C_7  and  C_8
REMARK    3  A    between atoms: C_8  and  N_9
REMARK    4  A    between atoms: C_12  and  C_15
REMARK    5  A    between atoms: C_15  and  N_16
REMARK    6  A    between atoms: N_16  and  S_17
REMARK    7  A    between atoms: S_17  and  C_20
REMARK    8  A    between atoms: C_25  and  C_26
REMARK                            x       y       z     vdW  Elec       q    Type
REMARK                         _______ _______ _______ _____ _____    ______ ____
ROOT
ATOM      1  N   UNL     1       2.804  -1.909  -5.946  0.00  0.00    -0.190 NA
ATOM      2  H   UNL     1       2.243  -2.687  -5.408  0.00  0.00    +0.148 HD
ENDROOT
BRANCH   1   3
ATOM      3  S   UNL     1       2.778  -1.890  -7.601  0.00  0.00    +0.059 S 
ATOM      4  O   UNL     1       1.814  -2.854  -8.003  0.00  0.00    -0.153 OA
ATOM      5  O   UNL     1       2.699  -0.526  -7.991  0.00  0.00    -0.153 OA
BRANCH   3   6
ATOM      6  C   UNL     1       4.343  -2.482  -8.154  0.00  0.00    +0.112 A 
ATOM      7  C   UNL     1       5.194  -1.638  -8.846  0.00  0.00    +0.076 A 
ATOM      8  C   UNL     1       6.424  -2.102  -9.276  0.00  0.00    +0.144 A 
ATOM      9  C   UNL     1       6.798  -3.421  -9.019  0.00  0.00    +0.076 A 
ATOM     10  C   UNL     1       5.940  -4.261  -8.331  0.00  0.00    +0.032 A 
ATOM     11  C   UNL     1       4.714  -3.789  -7.899  0.00  0.00    -0.022 A 
ATOM     12  C   UNL     1       3.779  -4.702  -7.149  0.00  0.00    +0.046 C 
ATOM     13  N   UNL     1       8.045  -3.879  -9.466  0.00  0.00    -0.280 N 
ATOM     14  C   UNL     1       8.976  -2.977  -9.846  0.00  0.00    +0.255 C 
ATOM     15  O   UNL     1      10.052  -3.351 -10.265  0.00  0.00    -0.272 OA
ATOM     16  C   UNL     1       8.674  -1.503  -9.747  0.00  0.00    +0.325 C 
ATOM     17  O   UNL     1       7.276  -1.285  -9.951  0.00  0.00    -0.481 OA
ATOM     18  H   UNL     1       8.254  -4.958  -9.504  0.00  0.00    +0.155 HD
ENDBRANCH   3   6
ENDBRANCH   1   3
BRANCH   1  19
ATOM     19  C   UNL     1       3.734  -1.041  -5.218  0.00  0.00    +0.109 C 
BRANCH  19  23
ATOM     20  N   UNL     1       2.621   0.581  -1.423  0.00  0.00    +0.382 N 
ATOM     21  C   UNL     1       1.596  -0.198  -2.130  0.00  0.00    -0.078 C 
ATOM     22  C   UNL     1       1.965  -0.305  -3.611  0.00  0.00    -0.014 C 
ATOM     23  C   UNL     1       3.331  -0.985  -3.743  0.00  0.00    +0.001 C 
ATOM     24  C   UNL     1       4.371  -0.181  -2.958  0.00  0.00    -0.014 C 
ATOM     25  C   UNL     1       3.932  -0.077  -1.496  0.00  0.00    -0.078 C 
ATOM     26  H   UNL     1       2.707   1.556  -1.925  0.00  0.00    -0.081 HD
BRANCH  20  27
ATOM     27  C   UNL     1       2.230   0.822  -0.028  0.00  0.00    -0.043 C 
BRANCH  27  34
ATOM     28  C   UNL     1       2.778   3.622  -0.483  0.00  0.00    +0.044 C 
ATOM     29  C   UNL     1       1.369   3.166  -0.205  0.00  0.00    -0.049 A 
ATOM     30  C   UNL     1       0.339   4.087  -0.162  0.00  0.00    +0.003 A 
ATOM     31  C   UNL     1      -0.954   3.668   0.088  0.00  0.00    +0.000 A 
ATOM     32  C   UNL     1      -1.216   2.328   0.306  0.00  0.00    +0.000 A 
ATOM     33  C   UNL     1      -0.186   1.407   0.268  0.00  0.00    +0.002 A 
ATOM     34  C   UNL     1       1.107   1.826   0.013  0.00  0.00    -0.061 A 
ENDBRANCH  27  34
ENDBRANCH  20  27
ENDBRANCH  19  23
ENDBRANCH   1  19
TORSDOF 6
