REMARK  Name = ZINC09250963
REMARK  5 active torsions:
REMARK  status: ('A' for Active; 'I' for Inactive)
REMARK    1  A    between atoms: C_16  and  S_25
REMARK    2  A    between atoms: N_17  and  C_20
REMARK    3  A    between atoms: S_25  and  C_26
REMARK    4  A    between atoms: C_26  and  C_27
REMARK    5  A    between atoms: C_27  and  O_28
REMARK                            x       y       z     vdW  Elec       q    Type
REMARK                         _______ _______ _______ _____ _____    ______ ____
ROOT
ATOM      1  C   UNL     1       5.423  -2.607   2.194  0.00  0.00    +0.000 A 
ATOM      2  C   UNL     1       4.981  -1.606   1.348  0.00  0.00    +0.001 A 
ATOM      3  C   UNL     1       3.880  -0.846   1.690  0.00  0.00    +0.010 A 
ATOM      4  C   UNL     1       3.218  -1.093   2.889  0.00  0.00    +0.004 A 
ATOM      5  C   UNL     1       3.670  -2.101   3.741  0.00  0.00    -0.037 A 
ATOM      6  C   UNL     1       4.769  -2.855   3.387  0.00  0.00    +0.004 A 
ATOM      7  C   UNL     1       2.954  -2.357   5.042  0.00  0.00    +0.047 C 
ATOM      8  C   UNL     1       2.465  -1.037   5.636  0.00  0.00    +0.007 C 
ATOM      9  C   UNL     1       1.599  -1.316   6.878  0.00  0.00    +0.012 C 
ATOM     10  C   UNL     1       2.585  -1.181   8.066  0.00  0.00    +0.001 C 
ATOM     11  C   UNL     1       3.488  -0.001   7.628  0.00  0.00    +0.001 C 
ATOM     12  C   UNL     1       3.666  -0.203   6.109  0.00  0.00    +0.012 C 
ATOM     13  C   UNL     1       1.671  -0.263   4.624  0.00  0.00    +0.050 A 
ATOM     14  C   UNL     1       2.033  -0.298   3.284  0.00  0.00    +0.083 A 
ATOM     15  N   UNL     1       1.318   0.381   2.382  0.00  0.00    -0.223 NA
ATOM     16  C   UNL     1       0.271   1.094   2.746  0.00  0.00    +0.172 A 
ATOM     17  N   UNL     1      -0.120   1.171   4.049  0.00  0.00    -0.284 N 
ATOM     18  C   UNL     1       0.558   0.498   5.003  0.00  0.00    +0.259 A 
ATOM     19  O   UNL     1       0.212   0.555   6.172  0.00  0.00    -0.267 OA
ENDROOT
BRANCH  17  20
ATOM     20  C   UNL     1      -1.283   1.983   4.415  0.00  0.00    +0.093 C 
ATOM     21  C   UNL     1      -0.864   3.091   5.403  0.00  0.00    +0.025 C 
ATOM     22  C   UNL     1      -2.061   3.199   6.381  0.00  0.00    +0.002 C 
ATOM     23  C   UNL     1      -2.501   1.724   6.549  0.00  0.00    +0.002 C 
ATOM     24  C   UNL     1      -2.324   1.114   5.143  0.00  0.00    +0.025 C 
ENDBRANCH  17  20
BRANCH  16  25
ATOM     25  S   UNL     1      -0.640   1.975   1.521  0.00  0.00    -0.085 S 
BRANCH  25  26
ATOM     26  C   UNL     1       0.305   1.525   0.044  0.00  0.00    +0.105 C 
BRANCH  26  27
ATOM     27  C   UNL     1      -0.319   2.193  -1.183  0.00  0.00    +0.167 C 
BRANCH  27  28
ATOM     28  O   UNL     1       0.427   1.838  -2.350  0.00  0.00    -0.394 OA
ATOM     29  H   UNL     1       0.087   2.227  -3.167  0.00  0.00    +0.209 HD
ENDBRANCH  27  28
ENDBRANCH  26  27
ENDBRANCH  25  26
ENDBRANCH  16  25
TORSDOF 5
