REMARK  Name = ZINC04127150
REMARK  11 active torsions:
REMARK  status: ('A' for Active; 'I' for Inactive)
REMARK    1  A    between atoms: C_1  and  C_2
REMARK    2  A    between atoms: C_2  and  C_3
REMARK    3  A    between atoms: C_3  and  C_4
REMARK    4  A    between atoms: C_4  and  N_5
REMARK    5  A    between atoms: C_10  and  C_23
REMARK    6  A    between atoms: C_12  and  C_17
REMARK    7  A    between atoms: C_12  and  C_21
REMARK    8  A    between atoms: C_17  and  C_18
REMARK    9  A    between atoms: C_18  and  C_19
REMARK   10  A    between atoms: C_18  and  C_20
REMARK   11  A    between atoms: C_28  and  O_29
REMARK                            x       y       z     vdW  Elec       q    Type
REMARK                         _______ _______ _______ _____ _____    ______ ____
ROOT
ATOM      1  N   UNL     1      -1.298  -4.285   1.427  0.00  0.00    -0.242 N 
ATOM      2  C   UNL     1      -2.301  -3.683   2.133  0.00  0.00    +0.224 C 
ATOM      3  O   UNL     1      -2.762  -4.038   3.196  0.00  0.00    -0.275 OA
ATOM      4  C   UNL     1      -2.714  -2.490   1.316  0.00  0.00    +0.077 C 
ATOM      5  C   UNL     1      -2.963  -1.138   1.997  0.00  0.00    -0.023 C 
ATOM      6  C   UNL     1      -1.450  -0.837   0.146  0.00  0.00    +0.048 C 
ATOM      7  C   UNL     1      -1.263  -2.148   0.788  0.00  0.00    +0.086 C 
ATOM      8  C   UNL     1      -0.761  -3.465   0.465  0.00  0.00    +0.225 C 
ATOM      9  O   UNL     1      -0.030  -3.776  -0.451  0.00  0.00    -0.275 OA
ATOM     10  N   UNL     1      -2.480  -0.167   0.995  0.00  0.00    +0.396 N 
ATOM     11  H   UNL     1      -2.065   0.643   1.469  0.00  0.00    -0.083 HD
ATOM     12  H   UNL     1      -3.264   0.143   0.408  0.00  0.00    -0.083 HD
ENDROOT
BRANCH   5  13
ATOM     13  C   UNL     1      -4.429  -0.948   2.289  0.00  0.00    -0.018 A 
ATOM     14  C   UNL     1      -5.227  -0.257   1.398  0.00  0.00    +0.020 A 
ATOM     15  C   UNL     1      -6.573  -0.082   1.665  0.00  0.00    +0.018 A 
ATOM     16  C   UNL     1      -7.123  -0.598   2.825  0.00  0.00    +0.019 A 
ATOM     17  C   UNL     1      -6.329  -1.291   3.718  0.00  0.00    +0.047 A 
ATOM     18  C   UNL     1      -4.979  -1.472   3.449  0.00  0.00    +0.119 A 
ATOM     19 BR   UNL     1      -7.662   0.866   0.444  0.00  0.00    -0.050 Br
BRANCH  18  20
ATOM     20  O   UNL     1      -4.197  -2.158   4.324  0.00  0.00    -0.507 OA
ATOM     21  H   UNL     1      -3.789  -1.604   5.003  0.00  0.00    +0.292 HD
ENDBRANCH  18  20
ENDBRANCH   5  13
BRANCH   6  22
ATOM     22  C   UNL     1      -0.162  -0.055   0.157  0.00  0.00    +0.346 C 
ATOM     23  O   UNL     1       0.897  -0.637   0.188  0.00  0.00    -0.248 OA
ATOM     24  O   UNL     1      -0.190   1.286   0.132  0.00  0.00    -0.248 OA
ENDBRANCH   6  22
BRANCH   1  25
ATOM     25  C   UNL     1      -0.844  -5.656   1.670  0.00  0.00    +0.116 C 
BRANCH  25  26
ATOM     26  C   UNL     1      -1.650  -6.623   0.800  0.00  0.00    +0.019 C 
BRANCH  26  28
ATOM     27  C   UNL     1      -1.982  -9.021   0.185  0.00  0.00    +0.004 C 
ATOM     28  C   UNL     1      -1.175  -8.055   1.055  0.00  0.00    -0.002 C 
ENDBRANCH  26  28
ENDBRANCH  25  26
ENDBRANCH   1  25
BRANCH   6  29
ATOM     29  C   UNL     1      -1.958  -1.010  -1.286  0.00  0.00    +0.002 C 
BRANCH  29  30
ATOM     30  C   UNL     1      -2.090   0.362  -1.950  0.00  0.00    -0.018 C 
ATOM     31  C   UNL     1      -2.442   0.182  -3.428  0.00  0.00    +0.007 C 
ATOM     32  C   UNL     1      -3.196   1.160  -1.256  0.00  0.00    +0.007 C 
ENDBRANCH  29  30
ENDBRANCH   6  29
TORSDOF 8
