REMARK  Name = ZINC27550639
REMARK  12 active torsions:
REMARK  status: ('A' for Active; 'I' for Inactive)
REMARK    1  A    between atoms: C_1  and  C_2
REMARK    2  A    between atoms: C_2  and  C_3
REMARK    3  A    between atoms: C_5  and  C_11
REMARK    4  A    between atoms: C_6  and  S_8
REMARK    5  A    between atoms: S_8  and  C_9
REMARK    6  A    between atoms: C_9  and  C_10
REMARK    7  A    between atoms: C_13  and  C_35
REMARK    8  A    between atoms: C_14  and  N_34
REMARK    9  A    between atoms: N_15  and  C_25
REMARK   10  A    between atoms: C_21  and  C_23
REMARK   11  A    between atoms: C_21  and  C_24
REMARK   12  A    between atoms: C_30  and  N_31
REMARK                            x       y       z     vdW  Elec       q    Type
REMARK                         _______ _______ _______ _____ _____    ______ ____
ROOT
ATOM      1  C   UNL     1       2.643   1.649   5.081  0.00  0.00    +0.099 C 
ATOM      2  C   UNL     1       3.850   1.671   4.189  0.00  0.00    +0.077 C 
ATOM      3  C   UNL     1       4.264   2.821   3.598  0.00  0.00    +0.107 C 
ATOM      4  N   UNL     1       3.580   3.995   3.816  0.00  0.00    -0.258 N 
ATOM      5  C   UNL     1       2.752   4.127   4.900  0.00  0.00    +0.025 C 
ATOM      6  C   UNL     1       2.283   3.038   5.544  0.00  0.00    +0.025 C 
ATOM      7  C   UNL     1       1.445   3.164   6.666  0.00  0.00    +0.162 C 
ATOM      8  O   UNL     1       1.034   2.163   7.219  0.00  0.00    -0.292 OA
ATOM      9  C   UNL     1       1.048   4.515   7.196  0.00  0.00    +0.086 C 
ATOM     10  C   UNL     1       2.151   5.525   6.863  0.00  0.00    -0.023 C 
ATOM     11  C   UNL     1       2.376   5.518   5.350  0.00  0.00    +0.058 C 
ATOM     12  C   UNL     1       3.445   5.127   7.577  0.00  0.00    +0.011 C 
ATOM     13  C   UNL     1       1.726   6.924   7.313  0.00  0.00    +0.011 C 
ENDROOT
BRANCH   4  14
ATOM     14  C   UNL     1       3.732   5.064   2.925  0.00  0.00    +0.070 A 
ATOM     15  C   UNL     1       2.856   5.210   1.857  0.00  0.00    +0.026 A 
ATOM     16  C   UNL     1       3.008   6.265   0.980  0.00  0.00    +0.002 A 
ATOM     17  C   UNL     1       4.033   7.176   1.163  0.00  0.00    +0.002 A 
ATOM     18  C   UNL     1       4.907   7.034   2.225  0.00  0.00    +0.034 A 
ATOM     19  C   UNL     1       4.757   5.983   3.109  0.00  0.00    +0.148 A 
BRANCH  19  20
ATOM     20  N   UNL     1       5.689   5.835   4.248  0.00  0.00    +0.058 N 
ATOM     21  O   UNL     1       6.533   6.688   4.460  0.00  0.00    -0.126 OA
ATOM     22  O   UNL     1       5.614   4.859   4.974  0.00  0.00    -0.126 OA
ENDBRANCH  19  20
ENDBRANCH   4  14
BRANCH   1  25
ATOM     23  C   UNL     1      -0.111   1.177   2.583  0.00  0.00    -0.009 A 
ATOM     24  C   UNL     1       0.934   1.732   3.242  0.00  0.00    +0.017 A 
ATOM     25  C   UNL     1       1.480   1.063   4.323  0.00  0.00    -0.014 A 
ATOM     26  C   UNL     1       0.945  -0.136   4.690  0.00  0.00    +0.049 A 
ATOM     27  S   UNL     1      -0.365  -0.337   3.495  0.00  0.00    -0.087 S 
BRANCH  23  29
ATOM     28  C   UNL     1      -0.206   1.203   0.106  0.00  0.00    +0.009 C 
ATOM     29  C   UNL     1      -0.867   1.704   1.392  0.00  0.00    +0.039 C 
ENDBRANCH  23  29
BRANCH  26  30
ATOM     30  S   UNL     1       1.421  -1.207   6.007  0.00  0.00    -0.118 S 
BRANCH  30  31
ATOM     31  C   UNL     1       0.266  -2.600   5.878  0.00  0.00    +0.071 C 
ATOM     32  C   UNL     1       0.571  -3.619   6.978  0.00  0.00    +0.015 C 
ENDBRANCH  30  31
ENDBRANCH  26  30
ENDBRANCH   1  25
BRANCH   3  33
ATOM     33  N   UNL     1       5.368   2.812   2.780  0.00  0.00    -0.345 N 
ATOM     34  H   UNL     1       5.705   3.743   2.300  0.00  0.00    +0.144 HD
ATOM     35  H   UNL     1       5.916   1.874   2.604  0.00  0.00    +0.144 HD
ENDBRANCH   3  33
BRANCH   2  36
ATOM     36  C   UNL     1       4.577   0.459   3.959  0.00  0.00    +0.099 C 
ATOM     37  N   UNL     1       5.153  -0.503   3.776  0.00  0.00    -0.191 NA
ENDBRANCH   2  36
TORSDOF 8
