REMARK  Name = ZINC35056787
REMARK  9 active torsions:
REMARK  status: ('A' for Active; 'I' for Inactive)
REMARK    1  A    between atoms: C_1  and  C_2
REMARK    2  A    between atoms: N_4  and  C_5
REMARK    3  A    between atoms: C_7  and  O_43
REMARK    4  A    between atoms: C_15  and  C_18
REMARK    5  A    between atoms: C_24  and  O_26
REMARK    6  A    between atoms: O_26  and  C_27
REMARK    7  A    between atoms: C_32  and  C_33
REMARK    8  A    between atoms: C_33  and  C_35
REMARK    9  A    between atoms: C_36  and  C_37
REMARK                            x       y       z     vdW  Elec       q    Type
REMARK                         _______ _______ _______ _____ _____    ______ ____
ROOT
ATOM      1  C   UNL     1       0.020  -2.136  -1.177  0.00  0.00    +0.173 C 
ATOM      2  C   UNL     1       0.620  -2.634  -2.495  0.00  0.00    +0.172 C 
ATOM      3  C   UNL     1       0.565  -4.162  -2.531  0.00  0.00    +0.183 C 
ATOM      4  C   UNL     1      -0.881  -4.629  -2.330  0.00  0.00    +0.179 C 
ATOM      5  C   UNL     1      -0.892  -6.161  -2.249  0.00  0.00    +0.197 C 
ATOM      6  O   UNL     1       0.012  -6.575  -1.220  0.00  0.00    -0.342 OA
ATOM      7  C   UNL     1       1.355  -6.127  -1.415  0.00  0.00    +0.319 C 
ATOM      8  O   UNL     1       1.378  -4.699  -1.485  0.00  0.00    -0.336 OA
ATOM      9  O   UNL     1      -1.396  -4.080  -1.115  0.00  0.00    -0.332 OA
ATOM     10  C   UNL     1      -1.410  -2.669  -1.045  0.00  0.00    +0.331 C 
ENDROOT
BRANCH   1  14
ATOM     11  C   UNL     1      -0.018   1.503   0.010  0.00  0.00    +0.109 C 
ATOM     12  C   UNL     1       0.002  -0.004   0.002  0.00  0.00    +0.210 C 
ATOM     13  O   UNL     1       0.020  -0.616   1.049  0.00  0.00    -0.276 OA
ATOM     14  N   UNL     1       0.000  -0.672  -1.169  0.00  0.00    -0.304 N 
ATOM     15  H   UNL     1      -0.015  -0.182  -2.006  0.00  0.00    +0.149 HD
ENDBRANCH   1  14
BRANCH   7  16
ATOM     16  C   UNL     1       2.210  -6.587  -0.263  0.00  0.00    +0.161 A 
ATOM     17  C   UNL     1       2.425  -7.865   0.097  0.00  0.00    +0.050 A 
ATOM     18  C   UNL     1       3.281  -7.836   1.222  0.00  0.00    +0.041 A 
ATOM     19  C   UNL     1       3.538  -6.542   1.482  0.00  0.00    +0.195 A 
ATOM     20  O   UNL     1       2.892  -5.790   0.576  0.00  0.00    -0.463 OA
ENDBRANCH   7  16
BRANCH   2  21
ATOM     21  O   UNL     1      -0.129  -2.103  -3.591  0.00  0.00    -0.387 OA
ATOM     22  H   UNL     1      -0.140  -1.137  -3.628  0.00  0.00    +0.210 HD
ENDBRANCH   2  21
BRANCH  10  23
ATOM     23  O   UNL     1      -2.209  -2.160  -2.115  0.00  0.00    -0.461 OA
BRANCH  23  24
ATOM     24  C   UNL     1      -3.548  -2.364  -2.034  0.00  0.00    +0.135 A 
ATOM     25  C   UNL     1      -4.086  -3.034  -0.947  0.00  0.00    +0.046 A 
ATOM     26  C   UNL     1      -5.449  -3.241  -0.866  0.00  0.00    +0.004 A 
ATOM     27  C   UNL     1      -6.288  -2.782  -1.869  0.00  0.00    +0.001 A 
ATOM     28  C   UNL     1      -5.771  -2.114  -2.957  0.00  0.00    +0.015 A 
ATOM     29  C   UNL     1      -4.394  -1.892  -3.048  0.00  0.00    +0.063 A 
BRANCH  29  30
ATOM     30  C   UNL     1      -3.833  -1.171  -4.208  0.00  0.00    +0.190 C 
ATOM     31  O   UNL     1      -2.632  -0.985  -4.286  0.00  0.00    -0.287 OA
BRANCH  30  32
ATOM     32  C   UNL     1      -4.720  -0.681  -5.263  0.00  0.00    +0.052 C 
ATOM     33  C   UNL     1      -4.207  -0.022  -6.324  0.00  0.00    +0.012 C 
BRANCH  33  34
ATOM     34  C   UNL     1      -5.099   0.471  -7.385  0.00  0.00    -0.025 A 
ATOM     35  C   UNL     1      -6.480   0.265  -7.295  0.00  0.00    +0.008 A 
ATOM     36  C   UNL     1      -7.309   0.730  -8.293  0.00  0.00    +0.001 A 
ATOM     37  C   UNL     1      -6.779   1.401  -9.382  0.00  0.00    +0.000 A 
ATOM     38  C   UNL     1      -5.414   1.609  -9.478  0.00  0.00    +0.001 A 
ATOM     39  C   UNL     1      -4.572   1.155  -8.485  0.00  0.00    +0.008 A 
ENDBRANCH  33  34
ENDBRANCH  30  32
ENDBRANCH  29  30
ENDBRANCH  23  24
ENDBRANCH  10  23
TORSDOF 8
