REMARK  Name = ZINC14544718
REMARK  2 active torsions:
REMARK  status: ('A' for Active; 'I' for Inactive)
REMARK    1  A    between atoms: C_1  and  C_2
REMARK    2  A    between atoms: C_9  and  C_18
REMARK                            x       y       z     vdW  Elec       q    Type
REMARK                         _______ _______ _______ _____ _____    ______ ____
ROOT
ATOM      1  C   UNL     1      -6.675   0.881   2.051  0.00  0.00    +0.047 C 
ATOM      2  C   UNL     1      -6.510   1.149   0.577  0.00  0.00    -0.011 A 
ATOM      3  C   UNL     1      -7.455   1.897  -0.094  0.00  0.00    +0.046 A 
ATOM      4  C   UNL     1      -7.302   2.143  -1.448  0.00  0.00    +0.020 A 
ATOM      5  C   UNL     1      -6.207   1.641  -2.120  0.00  0.00    +0.007 A 
ATOM      6  C   UNL     1      -5.250   0.888  -1.454  0.00  0.00    -0.019 A 
ATOM      7  C   UNL     1      -5.403   0.640  -0.100  0.00  0.00    +0.036 A 
ATOM      8  N   UNL     1      -4.482  -0.114   0.626  0.00  0.00    -0.336 N 
ATOM      9  C   UNL     1      -3.145  -0.077   0.031  0.00  0.00    +0.107 C 
ATOM     10  C   UNL     1      -3.215  -0.592  -1.408  0.00  0.00    +0.029 C 
ATOM     11  C   UNL     1      -4.083   0.374  -2.243  0.00  0.00    +0.049 C 
ATOM     12  C   UNL     1      -3.142   1.502  -2.598  0.00  0.00    -0.023 C 
ATOM     13  C   UNL     1      -1.897   1.109  -2.499  0.00  0.00    -0.030 C 
ATOM     14  C   UNL     1      -1.830  -0.343  -2.070  0.00  0.00    +0.033 C 
ATOM     15 CL   UNL     1      -8.832   2.528   0.755  0.00  0.00    -0.083 Cl
ATOM     16  H   UNL     1      -4.801  -1.064   0.739  0.00  0.00    +0.147 HD
ENDROOT
BRANCH   9  17
ATOM     17  C   UNL     1      -2.633   1.341   0.034  0.00  0.00    -0.002 A 
ATOM     18  C   UNL     1      -3.376   2.458   0.000  0.00  0.00    +0.089 A 
ATOM     19  N   UNL     1      -2.563   3.559   0.015  0.00  0.00    -0.360 N 
ATOM     20  H   UNL     1      -2.871   4.479  -0.003  0.00  0.00    +0.165 HD
ATOM     21  C   UNL     1      -1.244   3.167   0.060  0.00  0.00    +0.047 A 
ATOM     22  C   UNL     1      -1.230   1.760   0.069  0.00  0.00    +0.005 A 
ATOM     23  C   UNL     1      -0.014   1.076   0.119  0.00  0.00    +0.010 A 
ATOM     24  C   UNL     1       1.158   1.778   0.149  0.00  0.00    +0.001 A 
ATOM     25  C   UNL     1       1.150   3.166   0.135  0.00  0.00    +0.002 A 
ATOM     26  C   UNL     1      -0.039   3.861   0.091  0.00  0.00    +0.026 A 
ENDBRANCH   9  17
TORSDOF 1
