REMARK  Name = ZINC15675578
REMARK  7 active torsions:
REMARK  status: ('A' for Active; 'I' for Inactive)
REMARK    1  A    between atoms: C_1  and  C_2
REMARK    2  A    between atoms: C_2  and  C_3
REMARK    3  A    between atoms: C_3  and  C_5
REMARK    4  A    between atoms: C_3  and  N_6
REMARK    5  A    between atoms: C_15  and  C_16
REMARK    6  A    between atoms: C_15  and  C_17
REMARK    7  A    between atoms: N_19  and  C_20
REMARK                            x       y       z     vdW  Elec       q    Type
REMARK                         _______ _______ _______ _____ _____    ______ ____
ROOT
ATOM      1  N   UNL     1       2.068   5.347   5.258  0.00  0.00    -0.278 N 
ATOM      2  C   UNL     1       2.873   4.493   5.933  0.00  0.00    +0.264 C 
ATOM      3  O   UNL     1       2.646   4.173   7.085  0.00  0.00    -0.268 OA
ATOM      4  C   UNL     1       4.035   3.973   5.201  0.00  0.00    +0.109 A 
ATOM      5  C   UNL     1       4.920   2.987   5.522  0.00  0.00    +0.079 A 
ATOM      6  C   UNL     1       5.838   2.885   4.466  0.00  0.00    +0.153 A 
ATOM      7  C   UNL     1       5.494   3.843   3.513  0.00  0.00    +0.088 A 
ATOM      8  N   UNL     1       4.402   4.516   3.972  0.00  0.00    -0.331 N 
ATOM      9  C   UNL     1       3.665   5.632   3.377  0.00  0.00    +0.157 C 
ATOM     10  C   UNL     1       2.204   5.564   3.822  0.00  0.00    +0.129 C 
ATOM     11  C   UNL     1       1.513   6.878   3.453  0.00  0.00    +0.043 C 
ATOM     12  C   UNL     1       6.436   3.710   2.465  0.00  0.00    +0.067 A 
ATOM     13  C   UNL     1       7.280   2.723   2.809  0.00  0.00    +0.198 A 
ATOM     14  O   UNL     1       6.926   2.229   4.008  0.00  0.00    -0.461 OA
ENDROOT
BRANCH  10  15
ATOM     15  C   UNL     1       1.524   4.435   3.092  0.00  0.00    +0.238 C 
ATOM     16  O   UNL     1       0.929   4.652   2.058  0.00  0.00    -0.273 OA
ATOM     17  N   UNL     1       1.577   3.183   3.589  0.00  0.00    -0.311 N 
ATOM     18  H   UNL     1       2.052   3.009   4.416  0.00  0.00    +0.149 HD
BRANCH  17  19
ATOM     19  C   UNL     1       0.916   2.085   2.879  0.00  0.00    +0.073 C 
ATOM     20  C   UNL     1       1.852   1.539   1.800  0.00  0.00    +0.022 C 
ATOM     21  C   UNL     1       1.126   1.525   0.453  0.00  0.00    +0.002 C 
ATOM     22  C   UNL     1      -0.292   0.982   0.643  0.00  0.00    +0.000 C 
ATOM     23  C   UNL     1      -0.237  -0.538   0.811  0.00  0.00    +0.000 C 
ATOM     24  C   UNL     1       0.256  -0.878   2.219  0.00  0.00    +0.000 C 
ATOM     25  C   UNL     1      -0.447   0.022   3.237  0.00  0.00    +0.002 C 
ATOM     26  C   UNL     1       0.574   0.970   3.870  0.00  0.00    +0.022 C 
ENDBRANCH  17  19
ENDBRANCH  10  15
BRANCH   1  27
ATOM     27  C   UNL     1       1.031   6.075   5.992  0.00  0.00    +0.074 C 
ATOM     28  C   UNL     1       1.680   6.923   7.087  0.00  0.00    +0.028 C 
BRANCH  27  30
ATOM     29  C   UNL     1      -0.681   4.316   5.526  0.00  0.00    +0.005 C 
ATOM     30  C   UNL     1       0.060   5.078   6.627  0.00  0.00    +0.019 C 
ENDBRANCH  27  30
ENDBRANCH   1  27
TORSDOF 4
