REMARK  Name = ZINC19934699
REMARK  3 active torsions:
REMARK  status: ('A' for Active; 'I' for Inactive)
REMARK    1  A    between atoms: C_6  and  C_7
REMARK    2  A    between atoms: C_7  and  C_9
REMARK    3  A    between atoms: C_7  and  N_11
REMARK                            x       y       z     vdW  Elec       q    Type
REMARK                         _______ _______ _______ _____ _____    ______ ____
ROOT
ATOM      1  C   UNL     1      -0.090   2.313   2.364  0.00  0.00    +0.010 A 
ATOM      2  C   UNL     1      -0.761   2.874   3.435  0.00  0.00    +0.050 A 
ATOM      3  C   UNL     1      -2.101   3.204   3.317  0.00  0.00    +0.166 A 
ATOM      4  C   UNL     1      -2.770   2.970   2.118  0.00  0.00    +0.167 A 
ATOM      5  C   UNL     1      -2.090   2.413   1.048  0.00  0.00    +0.055 A 
ATOM      6  C   UNL     1      -0.754   2.080   1.174  0.00  0.00    -0.013 A 
ATOM      7  O   UNL     1      -4.065   3.378   2.254  0.00  0.00    -0.453 OA
ATOM      8  C   UNL     1      -4.078   4.238   3.409  0.00  0.00    +0.466 C 
ATOM      9  O   UNL     1      -2.978   3.759   4.204  0.00  0.00    -0.453 OA
ENDROOT
BRANCH   6  10
ATOM     10  C   UNL     1      -0.018   1.468   0.010  0.00  0.00    +0.191 C 
BRANCH  10  11
ATOM     11  N   UNL     1       1.277   2.140  -0.159  0.00  0.00    -0.284 NA
ATOM     12  C   UNL     1       2.059   1.521  -1.260  0.00  0.00    +0.086 C 
ATOM     13  C   UNL     1       3.079   2.626  -1.635  0.00  0.00    +0.017 C 
ATOM     14  C   UNL     1       2.253   3.924  -1.487  0.00  0.00    +0.017 C 
ATOM     15  C   UNL     1       1.093   3.557  -0.543  0.00  0.00    +0.086 C 
ENDBRANCH  10  11
BRANCH  10  16
ATOM     16  C   UNL     1       0.203   0.035   0.268  0.00  0.00    +0.086 C 
ATOM     17  N   UNL     1       0.373  -1.070   0.467  0.00  0.00    -0.195 NA
ENDBRANCH  10  16
ENDBRANCH   6  10
TORSDOF 3
