REMARK  Name = ZINC08895804
REMARK  10 active torsions:
REMARK  status: ('A' for Active; 'I' for Inactive)
REMARK    1  A    between atoms: C_1  and  C_2
REMARK    2  A    between atoms: N_7  and  C_10
REMARK    3  A    between atoms: C_10  and  C_11
REMARK    4  A    between atoms: N_13  and  C_14
REMARK    5  A    between atoms: C_15  and  C_22
REMARK    6  A    between atoms: C_25  and  C_26
REMARK    7  A    between atoms: C_26  and  O_28
REMARK    8  A    between atoms: O_28  and  C_29
REMARK    9  A    between atoms: C_29  and  C_30
REMARK   10  A    between atoms: C_30  and  C_31
REMARK                            x       y       z     vdW  Elec       q    Type
REMARK                         _______ _______ _______ _____ _____    ______ ____
ROOT
ATOM      1  C   UNL     1       0.239   4.373   0.011  0.00  0.00    +0.046 C 
ATOM      2  C   UNL     1       1.428   3.446   0.001  0.00  0.00    -0.015 A 
ATOM      3  C   UNL     1       2.723   3.970  -0.003  0.00  0.00    +0.076 A 
ATOM      4  C   UNL     1       3.770   3.020  -0.019  0.00  0.00    +0.116 A 
ATOM      5  N   UNL     1       5.046   3.386  -0.030  0.00  0.00    -0.230 NA
ATOM      6  C   UNL     1       5.397   4.643  -0.026  0.00  0.00    +0.203 A 
ATOM      7  N   UNL     1       4.483   5.643  -0.011  0.00  0.00    -0.290 N 
ATOM      8  C   UNL     1       3.160   5.384   0.000  0.00  0.00    +0.263 A 
ATOM      9  O   UNL     1       2.346   6.290   0.013  0.00  0.00    -0.267 OA
ATOM     10  S   UNL     1       2.913   1.466  -0.018  0.00  0.00    -0.062 S 
ATOM     11  C   UNL     1       1.242   2.094   0.001  0.00  0.00    +0.102 A 
ENDROOT
BRANCH  11  12
ATOM     12  C   UNL     1      -0.016   1.345   0.009  0.00  0.00    +0.346 C 
ATOM     13  O   UNL     1      -1.078   1.939   0.018  0.00  0.00    -0.244 OA
BRANCH  12  14
ATOM     14  O   UNL     1       0.002  -0.004   0.002  0.00  0.00    -0.460 OA
BRANCH  14  15
ATOM     15  C   UNL     1      -1.282  -0.681   0.011  0.00  0.00    +0.237 C 
BRANCH  15  16
ATOM     16  C   UNL     1      -1.062  -2.195   0.000  0.00  0.00    +0.076 C 
BRANCH  16  17
ATOM     17  C   UNL     1      -2.395  -2.897   0.009  0.00  0.00    -0.044 A 
ATOM     18  C   UNL     1      -2.992  -3.231   1.210  0.00  0.00    +0.004 A 
ATOM     19  C   UNL     1      -4.218  -3.871   1.219  0.00  0.00    +0.000 A 
ATOM     20  C   UNL     1      -4.841  -4.186   0.026  0.00  0.00    +0.000 A 
ATOM     21  C   UNL     1      -4.241  -3.857  -1.175  0.00  0.00    +0.000 A 
ATOM     22  C   UNL     1      -3.018  -3.213  -1.184  0.00  0.00    +0.004 A 
ENDBRANCH  16  17
ENDBRANCH  15  16
ENDBRANCH  14  15
ENDBRANCH  12  14
ENDBRANCH  11  12
BRANCH   7  23
ATOM     23  C   UNL     1       4.941   7.035  -0.008  0.00  0.00    +0.222 C 
BRANCH  23  24
ATOM     24  C   UNL     1       5.112   7.503   1.414  0.00  0.00    +0.238 C 
ATOM     25  O   UNL     1       4.875   6.750   2.334  0.00  0.00    -0.273 OA
ATOM     26  N   UNL     1       5.530   8.761   1.663  0.00  0.00    -0.277 N 
ATOM     27  H   UNL     1       5.720   9.363   0.927  0.00  0.00    +0.155 HD
BRANCH  26  28
ATOM     28  C   UNL     1       5.688   9.192   2.973  0.00  0.00    +0.090 A 
ATOM     29  C   UNL     1       6.107  10.431   3.425  0.00  0.00    +0.084 A 
ATOM     30  C   UNL     1       6.185  10.634   4.871  0.00  0.00    -0.018 A 
ATOM     31  C   UNL     1       5.842   9.567   5.616  0.00  0.00    -0.004 A 
ATOM     32  S   UNL     1       5.415   8.310   4.436  0.00  0.00    -0.077 S 
ATOM     33  C   UNL     1       5.950   9.851   7.090  0.00  0.00    +0.043 C 
ATOM     34  C   UNL     1       5.998  11.392   7.187  0.00  0.00    +0.010 C 
ATOM     35  C   UNL     1       6.574  11.776   5.810  0.00  0.00    +0.037 C 
BRANCH  29  36
ATOM     36  C   UNL     1       6.448  11.478   2.510  0.00  0.00    +0.102 C 
ATOM     37  N   UNL     1       6.718  12.309   1.784  0.00  0.00    -0.191 NA
ENDBRANCH  29  36
ENDBRANCH  26  28
ENDBRANCH  23  24
ENDBRANCH   7  23
TORSDOF 9
