REMARK  Name = ZINC19530391
REMARK  10 active torsions:
REMARK  status: ('A' for Active; 'I' for Inactive)
REMARK    1  A    between atoms: C_1  and  C_2
REMARK    2  A    between atoms: C_2  and  O_3
REMARK    3  A    between atoms: O_3  and  C_4
REMARK    4  A    between atoms: C_4  and  C_6
REMARK    5  A    between atoms: N_9  and  C_12
REMARK    6  A    between atoms: C_12  and  C_14
REMARK    7  A    between atoms: C_12  and  C_28
REMARK    8  A    between atoms: C_17  and  C_27
REMARK    9  A    between atoms: C_20  and  C_26
REMARK   10  A    between atoms: N_32  and  C_33
REMARK                            x       y       z     vdW  Elec       q    Type
REMARK                         _______ _______ _______ _____ _____    ______ ____
ROOT
ATOM      1  C   UNL     1       4.369  -4.570  -4.747  0.00  0.00    +0.039 C 
ENDROOT
BRANCH   1   2
ATOM      2  C   UNL     1       5.796  -4.089  -4.699  0.00  0.00    +0.011 A 
ATOM      3  C   UNL     1       6.345  -3.493  -5.786  0.00  0.00    +0.018 A 
ATOM      4  C   UNL     1       7.734  -3.036  -5.707  0.00  0.00    +0.002 A 
ATOM      5  C   UNL     1       8.354  -2.415  -6.795  0.00  0.00    -0.041 A 
ATOM      6  C   UNL     1       9.651  -1.999  -6.689  0.00  0.00    +0.004 A 
ATOM      7  C   UNL     1      10.360  -2.189  -5.510  0.00  0.00    +0.005 A 
ATOM      8  C   UNL     1       9.768  -2.800  -4.425  0.00  0.00    -0.026 A 
ATOM      9  C   UNL     1       8.448  -3.230  -4.510  0.00  0.00    +0.052 A 
ATOM     10  N   UNL     1       7.832  -3.843  -3.440  0.00  0.00    -0.322 N 
ATOM     11  H   UNL     1       8.326  -3.976  -2.615  0.00  0.00    +0.169 HD
ATOM     12  C   UNL     1       6.554  -4.255  -3.520  0.00  0.00    +0.251 A 
ATOM     13  O   UNL     1       6.040  -4.788  -2.553  0.00  0.00    -0.268 OA
ATOM     14  C   UNL     1      10.549  -3.001  -3.152  0.00  0.00    +0.046 C 
ATOM     15  C   UNL     1       7.596  -2.204  -8.080  0.00  0.00    +0.044 C 
ENDBRANCH   1   2
BRANCH   1  19
ATOM     16  C   UNL     1       1.468  -2.353  -2.550  0.00  0.00    +0.094 C 
ATOM     17  C   UNL     1       2.921  -1.871  -2.579  0.00  0.00    -0.004 C 
ATOM     18  C   UNL     1       3.640  -2.506  -3.772  0.00  0.00    -0.077 C 
ATOM     19  N   UNL     1       3.611  -3.968  -3.642  0.00  0.00    +0.389 N 
ATOM     20  C   UNL     1       2.223  -4.444  -3.685  0.00  0.00    -0.077 C 
ATOM     21  C   UNL     1       1.450  -3.884  -2.490  0.00  0.00    -0.004 C 
ATOM     22  H   UNL     1       4.030  -4.235  -2.764  0.00  0.00    -0.080 HD
BRANCH  16  23
ATOM     23  C   UNL     1       0.775  -1.794  -1.334  0.00  0.00    +0.310 C 
ATOM     24  O   UNL     1       0.314  -2.540  -0.504  0.00  0.00    -0.251 OA
BRANCH  23  25
ATOM     25  O   UNL     1       0.671  -0.465  -1.174  0.00  0.00    -0.465 OA
BRANCH  25  27
ATOM     26  C   UNL     1      -0.019   1.526   0.010  0.00  0.00    +0.048 C 
ATOM     27  C   UNL     1       0.002  -0.004   0.002  0.00  0.00    +0.229 C 
ENDBRANCH  25  27
ENDBRANCH  23  25
ENDBRANCH  16  23
ENDBRANCH   1  19
BRANCH   1  28
ATOM     28  C   UNL     1       4.340  -6.071  -4.616  0.00  0.00    +0.143 A 
ATOM     29  N   UNL     1       4.527  -6.765  -3.519  0.00  0.00    -0.115 NA
ATOM     30  N   UNL     1       4.424  -8.014  -3.816  0.00  0.00    -0.023 NA
ATOM     31  N   UNL     1       4.177  -8.136  -5.074  0.00  0.00    -0.044 NA
ATOM     32  N   UNL     1       4.112  -6.960  -5.601  0.00  0.00    -0.227 N 
BRANCH  32  33
ATOM     33  C   UNL     1       3.845  -6.651  -7.007  0.00  0.00    +0.111 C 
ATOM     34  C   UNL     1       2.472  -7.202  -7.399  0.00  0.00    +0.027 C 
ATOM     35  C   UNL     1       2.193  -6.879  -8.868  0.00  0.00    +0.002 C 
ATOM     36  C   UNL     1       3.269  -7.521  -9.745  0.00  0.00    +0.000 C 
ATOM     37  C   UNL     1       4.642  -6.969  -9.354  0.00  0.00    +0.002 C 
ATOM     38  C   UNL     1       4.921  -7.292  -7.885  0.00  0.00    +0.027 C 
ENDBRANCH  32  33
ENDBRANCH   1  28
TORSDOF 7
