REMARK  Name = ZINC15951862
REMARK  17 active torsions:
REMARK  status: ('A' for Active; 'I' for Inactive)
REMARK    1  A    between atoms: C_1  and  C_2
REMARK    2  A    between atoms: C_2  and  N_3
REMARK    3  A    between atoms: C_5  and  C_23
REMARK    4  A    between atoms: C_12  and  S_14
REMARK    5  A    between atoms: S_14  and  N_17
REMARK    6  A    between atoms: N_25  and  C_26
REMARK    7  A    between atoms: C_26  and  C_27
REMARK    8  A    between atoms: C_27  and  C_28
REMARK    9  A    between atoms: C_28  and  N_29
REMARK   10  A    between atoms: N_29  and  C_30
REMARK   11  A    between atoms: N_29  and  C_34
REMARK   12  A    between atoms: C_30  and  C_31
REMARK   13  A    between atoms: C_31  and  C_32
REMARK   14  A    between atoms: C_31  and  C_33
REMARK   15  A    between atoms: C_34  and  C_35
REMARK   16  A    between atoms: C_35  and  C_36
REMARK   17  A    between atoms: C_35  and  C_37
REMARK                            x       y       z     vdW  Elec       q    Type
REMARK                         _______ _______ _______ _____ _____    ______ ____
ROOT
ATOM      1  N   UNL     1       2.178   0.817  -1.873  0.00  0.00    -0.346 N 
ATOM      2  C   UNL     1       1.302   0.481  -2.829  0.00  0.00    +0.103 A 
ATOM      3  C   UNL     1       1.687  -0.168  -3.984  0.00  0.00    +0.100 A 
ATOM      4  C   UNL     1       3.108  -0.502  -4.172  0.00  0.00    +0.202 A 
ATOM      5  O   UNL     1       3.499  -1.074  -5.175  0.00  0.00    -0.286 OA
ATOM      6  C   UNL     1       4.039  -0.114  -3.096  0.00  0.00    +0.048 A 
ATOM      7  C   UNL     1       3.526   0.548  -1.968  0.00  0.00    +0.053 A 
ATOM      8  C   UNL     1       4.395   0.923  -0.947  0.00  0.00    +0.028 A 
ATOM      9  C   UNL     1       5.741   0.648  -1.053  0.00  0.00    +0.030 A 
ATOM     10  C   UNL     1       6.246  -0.001  -2.170  0.00  0.00    +0.106 A 
ATOM     11  C   UNL     1       5.403  -0.390  -3.188  0.00  0.00    +0.042 A 
ENDROOT
BRANCH   3  12
ATOM     12  C   UNL     1       0.694  -0.520  -5.011  0.00  0.00    +0.249 C 
ATOM     13  O   UNL     1      -0.490  -0.334  -4.801  0.00  0.00    -0.270 OA
ATOM     14  N   UNL     1       1.095  -1.050  -6.183  0.00  0.00    -0.311 N 
ATOM     15  H   UNL     1       2.031  -1.267  -6.322  0.00  0.00    +0.149 HD
BRANCH  14  16
ATOM     16  C   UNL     1       0.120  -1.299  -7.247  0.00  0.00    +0.102 C 
BRANCH  16  17
ATOM     17  C   UNL     1       0.831  -1.899  -8.462  0.00  0.00    +0.000 C 
BRANCH  17  18
ATOM     18  C   UNL     1      -0.188  -2.158  -9.573  0.00  0.00    -0.077 C 
BRANCH  18  19
ATOM     19  N   UNL     1       0.480  -2.808 -10.708  0.00  0.00    +0.380 N 
ATOM     20  H   UNL     1       1.276  -2.256 -10.991  0.00  0.00    -0.082 HD
BRANCH  19  21
ATOM     21  C   UNL     1       0.930  -4.148 -10.310  0.00  0.00    -0.076 C 
BRANCH  21  22
ATOM     22  C   UNL     1       1.734  -4.777 -11.450  0.00  0.00    -0.034 C 
ATOM     23  C   UNL     1       3.015  -3.970 -11.675  0.00  0.00    +0.005 C 
ATOM     24  C   UNL     1       2.097  -6.218 -11.085  0.00  0.00    +0.005 C 
ENDBRANCH  21  22
ENDBRANCH  19  21
BRANCH  19  25
ATOM     25  C   UNL     1      -0.460  -2.921 -11.831  0.00  0.00    -0.076 C 
BRANCH  25  26
ATOM     26  C   UNL     1      -0.823  -1.523 -12.335  0.00  0.00    -0.034 C 
ATOM     27  C   UNL     1       0.430  -0.836 -12.882  0.00  0.00    +0.005 C 
ATOM     28  C   UNL     1      -1.868  -1.636 -13.447  0.00  0.00    +0.005 C 
ENDBRANCH  25  26
ENDBRANCH  19  25
ENDBRANCH  18  19
ENDBRANCH  17  18
ENDBRANCH  16  17
ENDBRANCH  14  16
ENDBRANCH   3  12
BRANCH  10  29
ATOM     29  S   UNL     1       7.971  -0.340  -2.282  0.00  0.00    +0.061 S 
ATOM     30  O   UNL     1       8.271  -0.466  -3.666  0.00  0.00    -0.153 OA
ATOM     31  O   UNL     1       8.626   0.602  -1.444  0.00  0.00    -0.153 OA
BRANCH  29  32
ATOM     32  N   UNL     1       8.222  -1.831  -1.606  0.00  0.00    -0.172 NA
ATOM     33  C   UNL     1       8.510  -1.972  -0.170  0.00  0.00    +0.137 C 
ATOM     34  C   UNL     1       7.560  -3.025   0.412  0.00  0.00    +0.177 C 
ATOM     35  O   UNL     1       7.640  -4.217  -0.372  0.00  0.00    -0.377 OA
ATOM     36  C   UNL     1       7.229  -4.053  -1.731  0.00  0.00    +0.177 C 
ATOM     37  C   UNL     1       8.157  -3.054  -2.422  0.00  0.00    +0.137 C 
ENDBRANCH  29  32
ENDBRANCH  10  29
BRANCH   1  39
ATOM     38  C   UNL     1       1.718   3.017  -0.908  0.00  0.00    +0.027 C 
ATOM     39  C   UNL     1       1.682   1.504  -0.678  0.00  0.00    +0.118 C 
ENDBRANCH   1  39
TORSDOF 12
