REMARK  Name = ZINC41546904
REMARK  3 active torsions:
REMARK  status: ('A' for Active; 'I' for Inactive)
REMARK    1  A    between atoms: C_1  and  C_2
REMARK    2  A    between atoms: C_11  and  C_13
REMARK    3  A    between atoms: C_11  and  C_14
REMARK                            x       y       z     vdW  Elec       q    Type
REMARK                         _______ _______ _______ _____ _____    ______ ____
ROOT
ATOM      1  C   UNL     1       0.745   1.602   2.368  0.00  0.00    +0.044 C 
ATOM      2  C   UNL     1       0.540   0.201   1.851  0.00  0.00    -0.048 A 
ATOM      3  C   UNL     1       0.227  -0.004   0.520  0.00  0.00    +0.007 A 
ATOM      4  C   UNL     1       0.031  -1.286   0.040  0.00  0.00    +0.048 A 
ATOM      5  C   UNL     1       0.153  -2.369   0.894  0.00  0.00    +0.144 A 
ATOM      6  C   UNL     1       0.479  -2.163   2.233  0.00  0.00    +0.076 A 
ATOM      7  C   UNL     1       0.671  -0.876   2.708  0.00  0.00    +0.030 A 
ATOM      8  N   UNL     1       0.634  -3.267   3.083  0.00  0.00    -0.279 N 
ATOM      9  C   UNL     1       0.680  -4.506   2.551  0.00  0.00    +0.270 C 
ATOM     10  O   UNL     1       0.704  -5.479   3.275  0.00  0.00    -0.271 OA
ATOM     11  C   UNL     1       0.703  -4.677   1.053  0.00  0.00    +0.258 C 
ATOM     12  O   UNL     1      -0.055  -3.633   0.438  0.00  0.00    -0.465 OA
ATOM     13  C   UNL     1       0.094  -6.032   0.686  0.00  0.00    +0.076 C 
ATOM     14  H   UNL     1       0.707  -3.142   4.042  0.00  0.00    +0.155 HD
ENDROOT
BRANCH  11  15
ATOM     15  C   UNL     1       2.127  -4.619   0.563  0.00  0.00    +0.273 C 
ATOM     16  O   UNL     1       3.044  -4.716   1.351  0.00  0.00    -0.270 OA
ATOM     17  N   UNL     1       2.381  -4.458  -0.751  0.00  0.00    -0.266 N 
ATOM     18  C   UNL     1       1.253  -4.335  -1.669  0.00  0.00    +0.125 C 
ATOM     19  C   UNL     1       1.401  -5.387  -2.778  0.00  0.00    +0.094 C 
ATOM     20  S   UNL     1       2.888  -4.969  -3.738  0.00  0.00    -0.122 S 
ATOM     21  C   UNL     1       4.093  -4.636  -2.493  0.00  0.00    +0.029 A 
ATOM     22  C   UNL     1       3.713  -4.413  -1.171  0.00  0.00    +0.050 A 
ATOM     23  C   UNL     1       4.692  -4.140  -0.218  0.00  0.00    +0.024 A 
ATOM     24  C   UNL     1       6.023  -4.090  -0.578  0.00  0.00    +0.002 A 
ATOM     25  C   UNL     1       6.398  -4.312  -1.890  0.00  0.00    +0.001 A 
ATOM     26  C   UNL     1       5.435  -4.591  -2.847  0.00  0.00    +0.016 A 
ENDBRANCH  11  15
TORSDOF 1
