REMARK  Name = ZINC63122514
REMARK  8 active torsions:
REMARK  status: ('A' for Active; 'I' for Inactive)
REMARK    1  A    between atoms: C_1  and  C_2
REMARK    2  A    between atoms: C_2  and  C_3
REMARK    3  A    between atoms: C_6  and  C_9
REMARK    4  A    between atoms: C_11  and  N_15
REMARK    5  A    between atoms: C_16  and  C_18
REMARK    6  A    between atoms: C_18  and  S_19
REMARK    7  A    between atoms: S_19  and  C_20
REMARK    8  A    between atoms: C_23  and  C_25
REMARK                            x       y       z     vdW  Elec       q    Type
REMARK                         _______ _______ _______ _____ _____    ______ ____
ROOT
ATOM      1  N   UNL     1       2.370  -1.764  -8.191  0.00  0.00    -0.285 N 
ATOM      2  C   UNL     1       2.657  -2.220  -9.426  0.00  0.00    +0.225 C 
ATOM      3  O   UNL     1       3.231  -3.280  -9.563  0.00  0.00    -0.275 OA
ATOM      4  H   UNL     1       1.912  -0.916  -8.082  0.00  0.00    +0.152 HD
ENDROOT
BRANCH   1   7
ATOM      5  C   UNL     1       2.695  -1.860  -4.731  0.00  0.00    +0.056 C 
ATOM      6  N   UNL     1       2.050  -2.070  -5.805  0.00  0.00    -0.254 NA
ATOM      7  C   UNL     1       2.752  -2.547  -7.013  0.00  0.00    +0.251 C 
ATOM      8  S   UNL     1       4.508  -2.231  -6.541  0.00  0.00    -0.109 S 
ATOM      9  C   UNL     1       4.197  -2.105  -4.726  0.00  0.00    +0.128 C 
BRANCH   5  13
ATOM     10  C   UNL     1       0.707  -0.490  -1.238  0.00  0.00    -0.048 A 
ATOM     11  C   UNL     1      -0.014  -0.718  -2.396  0.00  0.00    +0.004 A 
ATOM     12  C   UNL     1       0.625  -1.163  -3.535  0.00  0.00    +0.010 A 
ATOM     13  C   UNL     1       2.004  -1.383  -3.516  0.00  0.00    -0.003 A 
ATOM     14  C   UNL     1       2.726  -1.151  -2.344  0.00  0.00    +0.010 A 
ATOM     15  C   UNL     1       2.075  -0.701  -1.214  0.00  0.00    +0.004 A 
BRANCH  10  17
ATOM     16  C   UNL     1      -0.019   1.526   0.010  0.00  0.00    +0.009 C 
ATOM     17  C   UNL     1       0.002  -0.004   0.002  0.00  0.00    +0.032 C 
ENDBRANCH  10  17
ENDBRANCH   5  13
ENDBRANCH   1   7
BRANCH   2  18
ATOM     18  C   UNL     1       2.265  -1.414 -10.637  0.00  0.00    +0.174 C 
BRANCH  18  19
ATOM     19  S   UNL     1       2.785  -2.288 -12.139  0.00  0.00    -0.056 S 
BRANCH  19  20
ATOM     20  C   UNL     1       2.262  -1.232 -13.450  0.00  0.00    +0.278 A 
ATOM     21  N   UNL     1       1.640  -0.071 -13.317  0.00  0.00    -0.101 NA
ATOM     22  N   UNL     1       1.410   0.426 -14.482  0.00  0.00    -0.107 NA
ATOM     23  C   UNL     1       1.876  -0.399 -15.407  0.00  0.00    +0.248 A 
ATOM     24  O   UNL     1       2.427  -1.457 -14.765  0.00  0.00    -0.411 OA
BRANCH  23  25
ATOM     25  C   UNL     1       1.816  -0.208 -16.795  0.00  0.00    +0.044 C 
ATOM     26  C   UNL     1       1.265   0.878 -17.474  0.00  0.00    +0.008 A 
ATOM     27  C   UNL     1       0.632   2.059 -17.030  0.00  0.00    +0.010 A 
ATOM     28  C   UNL     1       0.183   2.964 -17.937  0.00  0.00    +0.001 A 
ATOM     29  C   UNL     1       0.330   2.759 -19.311  0.00  0.00    +0.002 A 
ATOM     30  C   UNL     1       0.928   1.648 -19.808  0.00  0.00    +0.026 A 
ATOM     31  C   UNL     1       1.423   0.657 -18.921  0.00  0.00    +0.043 A 
ATOM     32  N   UNL     1       2.032  -0.490 -19.148  0.00  0.00    -0.380 N 
ATOM     33  C   UNL     1       2.341  -1.136 -17.869  0.00  0.00    +0.154 C 
ATOM     34  H   UNL     1       2.246  -0.849 -20.024  0.00  0.00    +0.160 HD
ENDBRANCH  23  25
ENDBRANCH  19  20
ENDBRANCH  18  19
ENDBRANCH   2  18
TORSDOF 7
