REMARK  Name = ZINC63139660
REMARK  12 active torsions:
REMARK  status: ('A' for Active; 'I' for Inactive)
REMARK    1  A    between atoms: C_1  and  C_2
REMARK    2  A    between atoms: C_2  and  N_3
REMARK    3  A    between atoms: N_3  and  C_4
REMARK    4  A    between atoms: N_3  and  C_6
REMARK    5  A    between atoms: C_4  and  C_5
REMARK    6  A    between atoms: C_6  and  C_7
REMARK    7  A    between atoms: C_7  and  C_8
REMARK    8  A    between atoms: C_8  and  N_9
REMARK    9  A    between atoms: C_29  and  C_31
REMARK   10  A    between atoms: C_34  and  C_37
REMARK   11  A    between atoms: C_37  and  O_39
REMARK   12  A    between atoms: O_39  and  C_40
REMARK                            x       y       z     vdW  Elec       q    Type
REMARK                         _______ _______ _______ _____ _____    ______ ____
ROOT
ATOM      1  N   UNL     1       3.009  -3.113  -1.813  0.00  0.00    -0.291 N 
ATOM      2  C   UNL     1       2.376  -3.451  -3.077  0.00  0.00    +0.203 C 
ATOM      3  C   UNL     1       3.367  -3.876  -4.109  0.00  0.00    +0.234 C 
ATOM      4  O   UNL     1       2.945  -4.183  -5.204  0.00  0.00    -0.274 OA
ATOM      5  N   UNL     1       4.689  -3.942  -3.913  0.00  0.00    -0.279 N 
ATOM      6  C   UNL     1       5.317  -3.580  -2.646  0.00  0.00    +0.167 C 
ATOM      7  C   UNL     1       4.324  -3.162  -1.612  0.00  0.00    +0.237 C 
ATOM      8  O   UNL     1       4.742  -2.851  -0.517  0.00  0.00    -0.274 OA
ATOM      9  C   UNL     1       6.335  -2.447  -2.869  0.00  0.00    +0.065 C 
ATOM     10  C   UNL     1       7.150  -2.833  -4.078  0.00  0.00    -0.034 C 
ATOM     11  C   UNL     1       8.461  -2.900  -4.272  0.00  0.00    -0.001 A 
ATOM     12  C   UNL     1       9.598  -2.519  -3.419  0.00  0.00    +0.010 A 
ATOM     13  C   UNL     1      10.836  -2.749  -3.932  0.00  0.00    +0.001 A 
ATOM     14  C   UNL     1      11.053  -3.314  -5.192  0.00  0.00    +0.002 A 
ATOM     15  C   UNL     1      10.067  -3.685  -6.047  0.00  0.00    +0.026 A 
ATOM     16  C   UNL     1       8.721  -3.485  -5.622  0.00  0.00    +0.043 A 
ATOM     17  N   UNL     1       7.601  -3.724  -6.238  0.00  0.00    -0.375 N 
ATOM     18  C   UNL     1       6.501  -3.269  -5.387  0.00  0.00    +0.131 C 
ATOM     19  C   UNL     1       5.533  -4.403  -5.038  0.00  0.00    +0.133 C 
ATOM     20  H   UNL     1       7.510  -4.135  -7.112  0.00  0.00    +0.160 HD
ENDROOT
BRANCH  19  21
ATOM     21  C   UNL     1       4.667  -4.720  -6.230  0.00  0.00    -0.025 A 
ATOM     22  C   UNL     1       4.305  -3.712  -7.106  0.00  0.00    +0.006 A 
ATOM     23  C   UNL     1       3.512  -3.995  -8.199  0.00  0.00    +0.015 A 
ATOM     24  C   UNL     1       3.075  -5.303  -8.420  0.00  0.00    +0.059 A 
ATOM     25  C   UNL     1       3.444  -6.315  -7.532  0.00  0.00    +0.015 A 
ATOM     26  C   UNL     1       4.242  -6.019  -6.446  0.00  0.00    +0.006 A 
BRANCH  24  27
ATOM     27  C   UNL     1       2.225  -5.614  -9.587  0.00  0.00    +0.339 C 
ATOM     28  O   UNL     1       1.905  -4.731 -10.358  0.00  0.00    -0.245 OA
BRANCH  27  29
ATOM     29  O   UNL     1       1.805  -6.877  -9.798  0.00  0.00    -0.464 OA
ATOM     30  C   UNL     1       0.986  -7.105 -10.946  0.00  0.00    +0.280 C 
ENDBRANCH  27  29
ENDBRANCH  24  27
ENDBRANCH  19  21
BRANCH   1  31
ATOM     31  C   UNL     1       2.153  -2.690  -0.702  0.00  0.00    +0.106 C 
BRANCH  31  32
ATOM     32  C   UNL     1       1.972  -1.172  -0.747  0.00  0.00    +0.000 C 
BRANCH  32  33
ATOM     33  C   UNL     1       1.079  -0.730   0.414  0.00  0.00    -0.077 C 
BRANCH  33  34
ATOM     34  N   UNL     1       0.905   0.728   0.370  0.00  0.00    +0.379 N 
ATOM     35  H   UNL     1       1.810   1.175   0.367  0.00  0.00    -0.082 HD
BRANCH  34  37
ATOM     36  C   UNL     1       0.099   2.622  -0.956  0.00  0.00    -0.017 C 
ATOM     37  C   UNL     1       0.171   1.098  -0.847  0.00  0.00    -0.082 C 
ENDBRANCH  34  37
BRANCH  34  38
ATOM     38  C   UNL     1       0.147   1.166   1.550  0.00  0.00    -0.082 C 
ATOM     39  C   UNL     1       0.970   0.900   2.812  0.00  0.00    -0.017 C 
ENDBRANCH  34  38
ENDBRANCH  33  34
ENDBRANCH  32  33
ENDBRANCH  31  32
ENDBRANCH   1  31
TORSDOF 9
