REMARK  Name = ZINC03978817
REMARK  16 active torsions:
REMARK  status: ('A' for Active; 'I' for Inactive)
REMARK    1  A    between atoms: C_1  and  C_2
REMARK    2  A    between atoms: C_2  and  C_3
REMARK    3  A    between atoms: C_3  and  C_5
REMARK    4  A    between atoms: C_3  and  C_6
REMARK    5  A    between atoms: C_6  and  C_8
REMARK    6  A    between atoms: C_9  and  O_33
REMARK    7  A    between atoms: C_10  and  C_32
REMARK    8  A    between atoms: C_13  and  O_14
REMARK    9  A    between atoms: C_16  and  O_31
REMARK   10  A    between atoms: C_17  and  C_24
REMARK   11  A    between atoms: C_18  and  O_23
REMARK   12  A    between atoms: C_19  and  C_22
REMARK   13  A    between atoms: C_24  and  C_26
REMARK   14  A    between atoms: C_26  and  C_28
REMARK   15  A    between atoms: C_26  and  C_29
REMARK   16  A    between atoms: C_29  and  C_30
REMARK                            x       y       z     vdW  Elec       q    Type
REMARK                         _______ _______ _______ _____ _____    ______ ____
ROOT
ATOM      1  C   UNL     1       0.909  -2.778  -2.812  0.00  0.00    +0.101 A 
ATOM      2  C   UNL     1       1.120  -2.171  -4.066  0.00  0.00    +0.137 A 
ATOM      3  C   UNL     1       1.147  -2.937  -5.213  0.00  0.00    +0.035 A 
ATOM      4  C   UNL     1       0.967  -4.316  -5.146  0.00  0.00    +0.146 A 
ATOM      5  C   UNL     1       0.758  -4.928  -3.902  0.00  0.00    +0.074 A 
ATOM      6  C   UNL     1       0.733  -4.170  -2.736  0.00  0.00    +0.142 A 
ATOM      7  C   UNL     1       0.607  -6.370  -4.186  0.00  0.00    +0.074 A 
ATOM      8  C   UNL     1       0.381  -7.489  -3.391  0.00  0.00    +0.142 A 
ATOM      9  C   UNL     1       0.285  -8.756  -3.991  0.00  0.00    +0.101 A 
ATOM     10  C   UNL     1       0.419  -8.875  -5.389  0.00  0.00    +0.137 A 
ATOM     11  C   UNL     1       0.643  -7.756  -6.165  0.00  0.00    +0.035 A 
ATOM     12  C   UNL     1       0.739  -6.497  -5.577  0.00  0.00    +0.146 A 
ATOM     13  O   UNL     1       0.950  -5.271  -6.101  0.00  0.00    -0.454 OA
ATOM     14  C   UNL     1       0.785  -7.898  -7.658  0.00  0.00    +0.051 C 
ATOM     15  C   UNL     1       1.373  -2.276  -6.549  0.00  0.00    +0.051 C 
ENDROOT
BRANCH   1  16
ATOM     16  C   UNL     1       0.880  -1.965  -1.597  0.00  0.00    +0.173 C 
ATOM     17  O   UNL     1       1.917  -1.667  -1.040  0.00  0.00    -0.292 OA
BRANCH  16  18
ATOM     18  C   UNL     1      -0.438  -1.495  -1.036  0.00  0.00    +0.057 C 
ATOM     19  C   UNL     1      -0.828  -0.169  -1.691  0.00  0.00    +0.016 C 
BRANCH  18  21
ATOM     20  C   UNL     1      -1.675  -0.943   1.064  0.00  0.00    +0.004 C 
ATOM     21  C   UNL     1      -0.307  -1.299   0.476  0.00  0.00    +0.008 C 
ENDBRANCH  18  21
ENDBRANCH  16  18
ENDBRANCH   1  16
BRANCH   6  22
ATOM     22  O   UNL     1       0.535  -4.768  -1.535  0.00  0.00    -0.505 OA
ATOM     23  H   UNL     1      -0.394  -4.837  -1.278  0.00  0.00    +0.292 HD
ENDBRANCH   6  22
BRANCH  10  24
ATOM     24  O   UNL     1       0.329 -10.095  -5.975  0.00  0.00    -0.506 OA
ATOM     25  H   UNL     1      -0.569 -10.339  -6.238  0.00  0.00    +0.292 HD
ENDBRANCH  10  24
BRANCH   9  26
ATOM     26  C   UNL     1       0.048  -9.943  -3.171  0.00  0.00    +0.173 C 
ATOM     27  O   UNL     1      -1.080 -10.365  -3.025  0.00  0.00    -0.292 OA
BRANCH  26  28
ATOM     28  C   UNL     1       1.206 -10.643  -2.507  0.00  0.00    +0.057 C 
ATOM     29  C   UNL     1       1.798 -11.674  -3.469  0.00  0.00    +0.016 C 
BRANCH  28  30
ATOM     30  C   UNL     1       0.716 -11.349  -1.241  0.00  0.00    +0.008 C 
ATOM     31  C   UNL     1       1.911 -11.955  -0.500  0.00  0.00    +0.004 C 
ENDBRANCH  28  30
ENDBRANCH  26  28
ENDBRANCH   9  26
BRANCH   8  32
ATOM     32  O   UNL     1       0.254  -7.359  -2.048  0.00  0.00    -0.505 OA
ATOM     33  H   UNL     1      -0.654  -7.211  -1.751  0.00  0.00    +0.292 HD
ENDBRANCH   8  32
BRANCH   2  34
ATOM     34  O   UNL     1       1.296  -0.829  -4.146  0.00  0.00    -0.506 OA
ATOM     35  H   UNL     1       2.218  -0.548  -4.076  0.00  0.00    +0.292 HD
ENDBRANCH   2  34
TORSDOF 10
