REMARK  Name = ZINC59086842
REMARK  5 active torsions:
REMARK  status: ('A' for Active; 'I' for Inactive)
REMARK    1  A    between atoms: C_1  and  C_2
REMARK    2  A    between atoms: C_2  and  O_3
REMARK    3  A    between atoms: O_3  and  C_4
REMARK    4  A    between atoms: C_4  and  C_6
REMARK    5  A    between atoms: C_8  and  C_24
REMARK                            x       y       z     vdW  Elec       q    Type
REMARK                         _______ _______ _______ _____ _____    ______ ____
ROOT
ATOM      1  C   UNL     1      -2.726  -2.418  -0.168  0.00  0.00    +0.195 C 
ATOM      2  C   UNL     1      -2.795  -3.948  -0.141  0.00  0.00    +0.082 C 
ATOM      3  C   UNL     1      -2.615  -4.494  -1.534  0.00  0.00    +0.088 A 
ATOM      4  C   UNL     1      -2.829  -3.731  -2.641  0.00  0.00    +0.151 A 
ATOM      5  C   UNL     1      -2.644  -4.353  -3.964  0.00  0.00    +0.060 A 
ATOM      6  C   UNL     1      -2.856  -3.624  -5.136  0.00  0.00    +0.015 A 
ATOM      7  C   UNL     1      -2.676  -4.233  -6.357  0.00  0.00    +0.001 A 
ATOM      8  C   UNL     1      -2.287  -5.563  -6.426  0.00  0.00    +0.004 A 
ATOM      9  C   UNL     1      -2.073  -6.294  -5.276  0.00  0.00    +0.047 A 
ATOM     10  C   UNL     1      -2.249  -5.697  -4.034  0.00  0.00    +0.143 A 
ATOM     11  O   UNL     1      -2.043  -6.394  -2.896  0.00  0.00    -0.422 OA
ATOM     12  C   UNL     1      -2.215  -5.836  -1.688  0.00  0.00    +0.345 A 
ATOM     13  O   UNL     1      -2.017  -6.511  -0.693  0.00  0.00    -0.245 OA
ATOM     14  O   UNL     1      -3.191  -2.431  -2.569  0.00  0.00    -0.440 OA
ATOM     15  C   UNL     1      -3.546  -1.944  -1.352  0.00  0.00    +0.204 C 
ATOM     16  N   UNL     1      -4.530  -1.121  -1.210  0.00  0.00    -0.270 NA
ATOM     17  H   UNL     1      -5.037  -0.834  -1.985  0.00  0.00    +0.190 HD
ENDROOT
BRANCH   2  18
ATOM     18  C   UNL     1      -1.702  -4.482   0.749  0.00  0.00    -0.037 A 
ATOM     19  C   UNL     1      -2.011  -4.966   2.006  0.00  0.00    +0.006 A 
ATOM     20  C   UNL     1      -1.010  -5.456   2.824  0.00  0.00    +0.022 A 
ATOM     21  C   UNL     1       0.302  -5.463   2.383  0.00  0.00    +0.059 A 
ATOM     22  C   UNL     1       0.611  -4.979   1.123  0.00  0.00    +0.060 A 
ATOM     23  C   UNL     1      -0.394  -4.494   0.304  0.00  0.00    +0.025 A 
ATOM     24 CL   UNL     1       2.256  -4.987   0.569  0.00  0.00    -0.082 Cl
ATOM     25 CL   UNL     1       1.560  -6.078   3.410  0.00  0.00    -0.082 Cl
ENDBRANCH   2  18
BRANCH   1  26
ATOM     26  C   UNL     1      -1.295  -1.972  -0.325  0.00  0.00    +0.320 C 
ATOM     27  O   UNL     1      -0.789  -1.941  -1.421  0.00  0.00    -0.250 OA
BRANCH  26  28
ATOM     28  O   UNL     1      -0.583  -1.610   0.754  0.00  0.00    -0.464 OA
BRANCH  28  30
ATOM     29  C   UNL     1       1.414  -0.827   1.867  0.00  0.00    +0.048 C 
ATOM     30  C   UNL     1       0.767  -1.199   0.532  0.00  0.00    +0.229 C 
ENDBRANCH  28  30
ENDBRANCH  26  28
ENDBRANCH   1  26
TORSDOF 4
