REMARK  Name = ZINC39541328
REMARK  7 active torsions:
REMARK  status: ('A' for Active; 'I' for Inactive)
REMARK    1  A    between atoms: C_1  and  C_2
REMARK    2  A    between atoms: C_2  and  C_3
REMARK    3  A    between atoms: C_3  and  N_4
REMARK    4  A    between atoms: C_17  and  S_27
REMARK    5  A    between atoms: C_18  and  O_26
REMARK    6  A    between atoms: S_27  and  O_30
REMARK    7  A    between atoms: O_30  and  C_31
REMARK                            x       y       z     vdW  Elec       q    Type
REMARK                         _______ _______ _______ _____ _____    ______ ____
ROOT
ATOM      1  N   UNL     1       0.154  -2.423  -1.152  0.00  0.00    -0.337 N 
ATOM      2  C   UNL     1       1.030  -3.300  -0.573  0.00  0.00    +0.050 A 
ATOM      3  C   UNL     1       2.232  -3.094   0.101  0.00  0.00    +0.026 A 
ATOM      4  C   UNL     1       2.888  -4.216   0.574  0.00  0.00    +0.002 A 
ATOM      5  C   UNL     1       2.385  -5.495   0.395  0.00  0.00    +0.001 A 
ATOM      6  C   UNL     1       1.205  -5.731  -0.263  0.00  0.00    +0.010 A 
ATOM      7  C   UNL     1       0.514  -4.613  -0.757  0.00  0.00    +0.004 A 
ATOM      8  C   UNL     1      -0.682  -4.480  -1.455  0.00  0.00    -0.010 A 
ATOM      9  C   UNL     1      -0.887  -3.137  -1.683  0.00  0.00    +0.089 A 
ATOM     10  C   UNL     1      -2.090  -2.686  -2.409  0.00  0.00    +0.161 A 
ATOM     11  N   UNL     1      -2.134  -1.489  -2.934  0.00  0.00    -0.227 NA
ATOM     12  C   UNL     1      -3.201  -1.055  -3.632  0.00  0.00    +0.081 A 
ATOM     13  C   UNL     1      -3.244   0.232  -4.177  0.00  0.00    +0.062 A 
ATOM     14  C   UNL     1      -4.339   0.634  -4.886  0.00  0.00    +0.171 A 
ATOM     15  C   UNL     1      -5.422  -0.221  -5.077  0.00  0.00    +0.146 A 
ATOM     16  C   UNL     1      -5.409  -1.498  -4.547  0.00  0.00    +0.063 A 
ATOM     17  C   UNL     1      -4.301  -1.924  -3.818  0.00  0.00    +0.068 A 
ATOM     18  C   UNL     1      -4.237  -3.265  -3.218  0.00  0.00    +0.262 A 
ATOM     19  O   UNL     1      -5.144  -4.063  -3.364  0.00  0.00    -0.267 OA
ATOM     20  N   UNL     1      -3.137  -3.582  -2.499  0.00  0.00    -0.291 N 
ATOM     21  C   UNL     1      -3.083  -4.866  -1.792  0.00  0.00    +0.131 C 
ATOM     22  C   UNL     1      -1.684  -5.500  -1.940  0.00  0.00    +0.059 C 
ENDROOT
BRANCH  14  23
ATOM     23  S   UNL     1      -4.384   2.258  -5.569  0.00  0.00    +0.155 S 
ATOM     24  O   UNL     1      -5.130   3.059  -4.663  0.00  0.00    -0.131 OA
ATOM     25  O   UNL     1      -3.052   2.576  -5.948  0.00  0.00    -0.131 OA
BRANCH  23  26
ATOM     26  O   UNL     1      -5.196   2.184  -6.854  0.00  0.00    -0.342 OA
BRANCH  26  27
ATOM     27  C   UNL     1      -4.507   1.686  -7.915  0.00  0.00    +0.157 A 
ATOM     28  C   UNL     1      -3.898   2.549  -8.814  0.00  0.00    +0.048 A 
ATOM     29  C   UNL     1      -3.198   2.040  -9.892  0.00  0.00    +0.004 A 
ATOM     30  C   UNL     1      -3.106   0.672 -10.074  0.00  0.00    +0.000 A 
ATOM     31  C   UNL     1      -3.713  -0.189  -9.179  0.00  0.00    +0.004 A 
ATOM     32  C   UNL     1      -4.408   0.314  -8.097  0.00  0.00    +0.048 A 
ENDBRANCH  26  27
ENDBRANCH  23  26
ENDBRANCH  14  23
BRANCH  15  33
ATOM     33  O   UNL     1      -6.500   0.203  -5.789  0.00  0.00    -0.505 OA
ATOM     34  H   UNL     1      -6.482  -0.056  -6.721  0.00  0.00    +0.292 HD
ENDBRANCH  15  33
BRANCH   1  35
ATOM     35  C   UNL     1       0.301  -0.966  -1.191  0.00  0.00    +0.122 C 
BRANCH  35  37
ATOM     36  C   UNL     1      -0.205   1.168   0.005  0.00  0.00    +0.005 C 
ATOM     37  C   UNL     1      -0.358  -0.353   0.046  0.00  0.00    +0.018 C 
ENDBRANCH  35  37
ENDBRANCH   1  35
TORSDOF 6
