REMARK  Name = ZINC16690246
REMARK  9 active torsions:
REMARK  status: ('A' for Active; 'I' for Inactive)
REMARK    1  A    between atoms: C_1  and  C_2
REMARK    2  A    between atoms: C_2  and  C_3
REMARK    3  A    between atoms: C_8  and  O_32
REMARK    4  A    between atoms: C_9  and  C_11
REMARK    5  A    between atoms: C_11  and  C_13
REMARK    6  A    between atoms: C_11  and  N_21
REMARK    7  A    between atoms: C_27  and  O_29
REMARK    8  A    between atoms: O_29  and  C_30
REMARK    9  A    between atoms: C_30  and  C_31
REMARK                            x       y       z     vdW  Elec       q    Type
REMARK                         _______ _______ _______ _____ _____    ______ ____
ROOT
ATOM      1  C   UNL     1      -1.332   2.114   0.020  0.00  0.00    +0.129 C 
ENDROOT
BRANCH   1   8
ATOM      2  C   UNL     1      -2.826   3.408   5.646  0.00  0.00    +0.152 A 
ATOM      3  N   UNL     1      -1.920   4.183   5.053  0.00  0.00    -0.205 NA
ATOM      4  C   UNL     1      -1.716   3.757   3.837  0.00  0.00    +0.199 A 
ATOM      5  N   UNL     1      -2.500   2.670   3.597  0.00  0.00    -0.173 N 
ATOM      6  N   UNL     1      -3.209   2.479   4.811  0.00  0.00    -0.147 NA
ATOM      7  C   UNL     1      -2.410   2.091   2.353  0.00  0.00    +0.228 A 
ATOM      8  C   UNL     1      -1.581   2.589   1.428  0.00  0.00    +0.076 A 
ATOM      9  S   UNL     1      -0.843   3.960   2.303  0.00  0.00    -0.047 S 
BRANCH   2  11
ATOM     10  C   UNL     1      -2.449   2.769   8.012  0.00  0.00    +0.012 C 
ATOM     11  C   UNL     1      -3.330   3.576   7.056  0.00  0.00    +0.075 C 
ENDBRANCH   2  11
BRANCH   7  12
ATOM     12  O   UNL     1      -3.171   1.002   2.061  0.00  0.00    -0.492 OA
ATOM     13  H   UNL     1      -3.103   0.535   1.067  0.00  0.00    +0.294 HD
ENDBRANCH   7  12
ENDBRANCH   1   8
BRANCH   1  14
ATOM     14  C   UNL     1       0.015   1.441  -0.052  0.00  0.00    -0.024 A 
ATOM     15  C   UNL     1       0.095   0.064  -0.153  0.00  0.00    +0.007 A 
ATOM     16  C   UNL     1       1.329  -0.553  -0.225  0.00  0.00    +0.022 A 
ATOM     17  C   UNL     1       2.485   0.206  -0.196  0.00  0.00    +0.059 A 
ATOM     18  C   UNL     1       2.405   1.584  -0.096  0.00  0.00    +0.060 A 
ATOM     19  C   UNL     1       1.169   2.201  -0.023  0.00  0.00    +0.027 A 
ATOM     20 CL   UNL     1       3.855   2.538  -0.059  0.00  0.00    -0.082 Cl
ATOM     21 CL   UNL     1       4.036  -0.569  -0.286  0.00  0.00    -0.082 Cl
ENDBRANCH   1  14
BRANCH   1  22
ATOM     22  N   UNL     1      -1.356   3.262  -0.896  0.00  0.00    -0.288 NA
ATOM     23  C   UNL     1      -2.625   3.994  -0.790  0.00  0.00    +0.104 C 
ATOM     24  C   UNL     1      -2.540   5.279  -1.620  0.00  0.00    +0.126 C 
ATOM     25  N   UNL     1      -2.139   4.925  -2.990  0.00  0.00    -0.265 N 
ATOM     26  C   UNL     1      -0.952   4.076  -3.170  0.00  0.00    +0.126 C 
ATOM     27  C   UNL     1      -1.099   2.838  -2.279  0.00  0.00    +0.104 C 
ATOM     28  C   UNL     1      -2.842   5.366  -4.052  0.00  0.00    +0.403 C 
ATOM     29  O   UNL     1      -2.496   5.063  -5.177  0.00  0.00    -0.226 OA
BRANCH  28  30
ATOM     30  O   UNL     1      -3.926   6.142  -3.867  0.00  0.00    -0.451 OA
BRANCH  30  31
ATOM     31  C   UNL     1      -4.634   6.581  -5.057  0.00  0.00    +0.230 C 
ATOM     32  C   UNL     1      -5.828   7.447  -4.650  0.00  0.00    +0.048 C 
ENDBRANCH  30  31
ENDBRANCH  28  30
ENDBRANCH   1  22
TORSDOF 7
