REMARK  Name = ZINC38517467
REMARK  10 active torsions:
REMARK  status: ('A' for Active; 'I' for Inactive)
REMARK    1  A    between atoms: C_1  and  N_2
REMARK    2  A    between atoms: C_10  and  C_12
REMARK    3  A    between atoms: C_12  and  C_14
REMARK    4  A    between atoms: C_12  and  N_32
REMARK    5  A    between atoms: C_14  and  N_15
REMARK    6  A    between atoms: N_18  and  C_19
REMARK    7  A    between atoms: C_19  and  C_20
REMARK    8  A    between atoms: C_19  and  C_26
REMARK    9  A    between atoms: N_32  and  C_33
REMARK   10  A    between atoms: N_32  and  C_34
REMARK                            x       y       z     vdW  Elec       q    Type
REMARK                         _______ _______ _______ _____ _____    ______ ____
ROOT
ATOM      1  N   UNL     1       3.988  -3.875  -2.408  0.00  0.00    -0.301 N 
ATOM      2  C   UNL     1       3.888  -4.147  -3.724  0.00  0.00    +0.300 C 
ATOM      3  O   UNL     1       4.701  -3.688  -4.503  0.00  0.00    -0.253 OA
ATOM      4  N   UNL     1       2.887  -4.927  -4.177  0.00  0.00    -0.289 N 
ATOM      5  H   UNL     1       3.339  -4.241  -1.787  0.00  0.00    +0.150 HD
ATOM      6  H   UNL     1       2.239  -5.294  -3.556  0.00  0.00    +0.151 HD
ENDROOT
BRANCH   1   7
ATOM      7  C   UNL     1       5.076  -3.026  -1.916  0.00  0.00    +0.095 C 
BRANCH   7   8
ATOM      8  C   UNL     1       4.885  -2.769  -0.420  0.00  0.00    -0.021 C 
BRANCH   8  18
ATOM      9  C   UNL     1       0.190   1.673   0.475  0.00  0.00    +0.129 C 
ATOM     10  N   UNL     1       0.129   0.211   0.400  0.00  0.00    -0.333 N 
ATOM     11  C   UNL     1      -1.155  -0.490   0.527  0.00  0.00    +0.105 C 
ATOM     12  C   UNL     1      -0.947  -1.683   1.469  0.00  0.00    +0.024 C 
ATOM     13  C   UNL     1       0.053  -2.647   0.830  0.00  0.00    +0.038 C 
ATOM     14  C   UNL     1       1.296  -1.911   0.404  0.00  0.00    -0.026 A 
ATOM     15  C   UNL     1       1.293  -0.539   0.199  0.00  0.00    +0.033 A 
ATOM     16  C   UNL     1       2.455   0.109  -0.204  0.00  0.00    +0.023 A 
ATOM     17  C   UNL     1       3.615  -0.613  -0.404  0.00  0.00    +0.004 A 
ATOM     18  C   UNL     1       3.619  -1.981  -0.203  0.00  0.00    -0.059 A 
ATOM     19  C   UNL     1       2.465  -2.628   0.208  0.00  0.00    +0.007 A 
ENDBRANCH   8  18
BRANCH   8  20
ATOM     20  N   UNL     1       6.030  -2.007   0.096  0.00  0.00    +0.382 N 
ATOM     21  C   UNL     1       5.869  -1.800   1.541  0.00  0.00    -0.096 C 
ATOM     22  C   UNL     1       7.269  -2.755  -0.156  0.00  0.00    -0.096 C 
ATOM     23  H   UNL     1       6.076  -1.113  -0.369  0.00  0.00    -0.082 HD
ENDBRANCH   8  20
ENDBRANCH   7   8
ENDBRANCH   1   7
BRANCH   4  24
ATOM     24  C   UNL     1       2.779  -5.223  -5.608  0.00  0.00    +0.135 C 
BRANCH  24  25
ATOM     25  C   UNL     1       2.038  -6.521  -5.798  0.00  0.00    -0.023 A 
ATOM     26  C   UNL     1       0.941  -6.813  -5.009  0.00  0.00    +0.006 A 
ATOM     27  C   UNL     1       0.261  -8.004  -5.183  0.00  0.00    +0.000 A 
ATOM     28  C   UNL     1       0.678  -8.903  -6.147  0.00  0.00    +0.000 A 
ATOM     29  C   UNL     1       1.774  -8.611  -6.937  0.00  0.00    +0.000 A 
ATOM     30  C   UNL     1       2.451  -7.418  -6.765  0.00  0.00    +0.006 A 
ENDBRANCH  24  25
BRANCH  24  31
ATOM     31  C   UNL     1       2.029  -4.111  -6.295  0.00  0.00    -0.023 A 
ATOM     32  C   UNL     1       0.935  -3.531  -5.679  0.00  0.00    +0.006 A 
ATOM     33  C   UNL     1       0.247  -2.511  -6.310  0.00  0.00    +0.000 A 
ATOM     34  C   UNL     1       0.653  -2.071  -7.556  0.00  0.00    +0.000 A 
ATOM     35  C   UNL     1       1.746  -2.651  -8.171  0.00  0.00    +0.000 A 
ATOM     36  C   UNL     1       2.437  -3.667  -7.539  0.00  0.00    +0.006 A 
ENDBRANCH  24  31
ENDBRANCH   4  24
TORSDOF 7
