REMARK  Name = ZINC14475933
REMARK  7 active torsions:
REMARK  status: ('A' for Active; 'I' for Inactive)
REMARK    1  A    between atoms: C_4  and  C_7
REMARK    2  A    between atoms: C_7  and  N_8
REMARK    3  A    between atoms: N_8  and  S_9
REMARK    4  A    between atoms: S_9  and  C_12
REMARK    5  A    between atoms: C_25  and  C_28
REMARK    6  A    between atoms: C_30  and  N_35
REMARK    7  A    between atoms: C_33  and  O_34
REMARK                            x       y       z     vdW  Elec       q    Type
REMARK                         _______ _______ _______ _____ _____    ______ ____
ROOT
ATOM      1  C   UNL     1      -1.469   2.775  -1.396  0.00  0.00    +0.106 A 
ATOM      2  C   UNL     1      -2.051   2.131  -2.473  0.00  0.00    +0.030 A 
ATOM      3  C   UNL     1      -2.167   2.787  -3.682  0.00  0.00    +0.025 A 
ATOM      4  C   UNL     1      -1.698   4.089  -3.813  0.00  0.00    +0.031 A 
ATOM      5  C   UNL     1      -1.114   4.736  -2.739  0.00  0.00    -0.018 A 
ATOM      6  C   UNL     1      -1.008   4.069  -1.526  0.00  0.00    +0.034 A 
ATOM      7  C   UNL     1      -0.591   6.154  -2.817  0.00  0.00    +0.049 C 
ATOM      8  C   UNL     1       0.901   6.090  -2.486  0.00  0.00    -0.023 C 
ATOM      9  C   UNL     1       1.616   6.047  -3.583  0.00  0.00    -0.030 C 
ATOM     10  C   UNL     1       0.715   6.066  -4.805  0.00  0.00    +0.033 C 
ATOM     11  C   UNL     1      -0.592   6.689  -4.260  0.00  0.00    +0.029 C 
ATOM     12  C   UNL     1      -1.795   6.207  -5.049  0.00  0.00    +0.108 C 
ATOM     13  N   UNL     1      -1.828   4.740  -5.045  0.00  0.00    -0.336 N 
ATOM     14  H   UNL     1      -1.952   4.190  -5.990  0.00  0.00    +0.147 HD
ENDROOT
BRANCH  12  15
ATOM     15  C   UNL     1      -3.056   6.739  -4.418  0.00  0.00    +0.017 A 
ATOM     16  C   UNL     1      -3.834   5.916  -3.628  0.00  0.00    +0.041 A 
ATOM     17  C   UNL     1      -4.991   6.404  -3.048  0.00  0.00    +0.127 A 
ATOM     18  C   UNL     1      -5.371   7.717  -3.257  0.00  0.00    +0.036 A 
ATOM     19  C   UNL     1      -4.596   8.544  -4.046  0.00  0.00    +0.048 A 
ATOM     20  C   UNL     1      -3.432   8.058  -4.625  0.00  0.00    +0.122 A 
BRANCH  17  21
ATOM     21  N   UNL     1      -5.823   5.519  -2.202  0.00  0.00    +0.056 N 
ATOM     22  O   UNL     1      -5.489   4.363  -2.017  0.00  0.00    -0.126 OA
ATOM     23  O   UNL     1      -6.842   5.948  -1.691  0.00  0.00    -0.126 OA
ENDBRANCH  17  21
BRANCH  20  24
ATOM     24  O   UNL     1      -2.665   8.872  -5.397  0.00  0.00    -0.506 OA
ATOM     25  H   UNL     1      -2.964   9.918  -5.560  0.00  0.00    +0.292 HD
ENDBRANCH  20  24
ENDBRANCH  12  15
BRANCH   1  26
ATOM     26  S   UNL     1      -1.320   1.941   0.149  0.00  0.00    +0.059 S 
ATOM     27  O   UNL     1      -2.324   0.935   0.166  0.00  0.00    -0.153 OA
ATOM     28  O   UNL     1      -1.235   2.949   1.147  0.00  0.00    -0.153 OA
BRANCH  26  29
ATOM     29  N   UNL     1       0.137   1.155   0.144  0.00  0.00    -0.186 NA
ATOM     30  H   UNL     1       0.159   0.063   0.011  0.00  0.00    +0.148 HD
BRANCH  29  31
ATOM     31  C   UNL     1       1.384   1.924   0.095  0.00  0.00    +0.141 C 
BRANCH  31  35
ATOM     32  C   UNL     1       4.662  -0.612   1.131  0.00  0.00    +0.000 A 
ATOM     33  C   UNL     1       4.267  -0.496  -0.189  0.00  0.00    +0.000 A 
ATOM     34  C   UNL     1       3.207   0.325  -0.524  0.00  0.00    +0.005 A 
ATOM     35  C   UNL     1       2.540   1.029   0.461  0.00  0.00    -0.032 A 
ATOM     36  C   UNL     1       2.937   0.917   1.780  0.00  0.00    +0.005 A 
ATOM     37  C   UNL     1       3.995   0.092   2.115  0.00  0.00    +0.000 A 
ENDBRANCH  31  35
ENDBRANCH  29  31
ENDBRANCH  26  29
ENDBRANCH   1  26
TORSDOF 7
