REMARK  Name = ZINC39637668
REMARK  6 active torsions:
REMARK  status: ('A' for Active; 'I' for Inactive)
REMARK    1  A    between atoms: C_1  and  C_2
REMARK    2  A    between atoms: C_2  and  C_8
REMARK    3  A    between atoms: C_12  and  C_21
REMARK    4  A    between atoms: N_23  and  C_24
REMARK    5  A    between atoms: C_24  and  C_25
REMARK    6  A    between atoms: C_25  and  C_26
REMARK                            x       y       z     vdW  Elec       q    Type
REMARK                         _______ _______ _______ _____ _____    ______ ____
ROOT
ATOM      1  C   UNL     1      -1.053  -0.048  -0.190  0.00  0.00    +0.222 C 
ATOM      2  O   UNL     1      -1.381  -0.632   0.822  0.00  0.00    -0.275 OA
ATOM      3  N   UNL     1      -1.950   0.145  -1.177  0.00  0.00    -0.300 N 
ATOM      4  C   UNL     1      -1.713   0.729  -2.518  0.00  0.00    +0.121 C 
ATOM      5  C   UNL     1      -2.579  -0.123  -3.473  0.00  0.00    +0.100 C 
ATOM      6  C   UNL     1      -3.683  -0.714  -2.580  0.00  0.00    -0.004 C 
ATOM      7  C   UNL     1      -3.396  -0.184  -1.168  0.00  0.00    +0.115 C 
ATOM      8  C   UNL     1      -3.611  -2.237  -2.590  0.00  0.00    -0.010 C 
ATOM      9  C   UNL     1      -4.753  -2.803  -1.742  0.00  0.00    -0.082 C 
ATOM     10  N   UNL     1      -6.040  -2.350  -2.285  0.00  0.00    +0.379 N 
ATOM     11  C   UNL     1      -6.138  -0.889  -2.187  0.00  0.00    -0.082 C 
ATOM     12  C   UNL     1      -5.054  -0.242  -3.054  0.00  0.00    -0.010 C 
ATOM     13  H   UNL     1      -6.110  -2.626  -3.253  0.00  0.00    -0.086 HD
ATOM     14  H   UNL     1      -6.792  -2.773  -1.762  0.00  0.00    -0.086 HD
ENDROOT
BRANCH   1  16
ATOM     15  C   UNL     1       1.066  -0.328  -1.446  0.00  0.00    +0.021 C 
ATOM     16  C   UNL     1       0.357   0.460  -0.343  0.00  0.00    +0.044 C 
ATOM     17  C   UNL     1       1.110   0.280   0.977  0.00  0.00    +0.016 C 
ATOM     18  C   UNL     1       0.401   1.068   2.080  0.00  0.00    +0.001 C 
ATOM     19  C   UNL     1       0.371   2.552   1.708  0.00  0.00    +0.000 C 
ATOM     20  C   UNL     1      -0.382   2.732   0.389  0.00  0.00    +0.001 C 
ATOM     21  C   UNL     1       0.327   1.944  -0.715  0.00  0.00    +0.016 C 
ENDBRANCH   1  16
BRANCH   5  22
ATOM     22  C   UNL     1      -1.753  -1.223  -4.088  0.00  0.00    +0.218 C 
ATOM     23  O   UNL     1      -0.865  -1.745  -3.449  0.00  0.00    -0.275 OA
ATOM     24  N   UNL     1      -2.002  -1.627  -5.350  0.00  0.00    -0.315 N 
ATOM     25  H   UNL     1      -2.712  -1.210  -5.862  0.00  0.00    +0.149 HD
BRANCH  24  26
ATOM     26  C   UNL     1      -1.199  -2.697  -5.948  0.00  0.00    +0.109 C 
BRANCH  26  27
ATOM     27  C   UNL     1      -1.683  -2.960  -7.375  0.00  0.00    +0.054 C 
BRANCH  27  28
ATOM     28  C   UNL     1      -0.858  -4.061  -7.991  0.00  0.00    -0.043 A 
ATOM     29  C   UNL     1       0.299  -3.752  -8.681  0.00  0.00    +0.004 A 
ATOM     30  C   UNL     1       1.058  -4.761  -9.246  0.00  0.00    +0.003 A 
ATOM     31  C   UNL     1       0.659  -6.078  -9.122  0.00  0.00    +0.038 A 
ATOM     32  C   UNL     1      -0.499  -6.388  -8.431  0.00  0.00    +0.124 A 
ATOM     33  C   UNL     1      -1.255  -5.378  -7.860  0.00  0.00    +0.042 A 
ATOM     34  F   UNL     1      -0.890  -7.676  -8.308  0.00  0.00    -0.205 F 
ENDBRANCH  27  28
ENDBRANCH  26  27
ENDBRANCH  24  26
ENDBRANCH   5  22
TORSDOF 5
