REMARK  Name = ZINC15227264
REMARK  3 active torsions:
REMARK  status: ('A' for Active; 'I' for Inactive)
REMARK    1  A    between atoms: C_6  and  C_7
REMARK    2  A    between atoms: C_10  and  C_13
REMARK    3  A    between atoms: C_18  and  O_19
REMARK                            x       y       z     vdW  Elec       q    Type
REMARK                         _______ _______ _______ _____ _____    ______ ____
ROOT
ATOM      1  C   UNL     1       2.477   1.077  -0.016  0.00  0.00    +0.068 C 
ATOM      2  N   UNL     1       2.616  -0.203  -0.025  0.00  0.00    -0.191 NA
ATOM      3  N   UNL     1       3.942  -0.631  -0.042  0.00  0.00    -0.261 N 
ATOM      4  C   UNL     1       4.823   0.548  -0.043  0.00  0.00    +0.129 C 
ATOM      5  C   UNL     1       3.838   1.734  -0.032  0.00  0.00    +0.086 C 
ATOM      6  H   UNL     1       4.237  -1.555  -0.050  0.00  0.00    +0.169 HD
ENDROOT
BRANCH   4   7
ATOM      7  C   UNL     1       5.695   0.561   1.185  0.00  0.00    +0.019 A 
ATOM      8  C   UNL     1       5.348  -0.198   2.287  0.00  0.00    +0.029 A 
ATOM      9  C   UNL     1       6.150  -0.191   3.414  0.00  0.00    +0.043 A 
ATOM     10  C   UNL     1       7.297   0.584   3.445  0.00  0.00    +0.043 A 
ATOM     11  C   UNL     1       7.644   1.348   2.347  0.00  0.00    +0.084 A 
ATOM     12  C   UNL     1       6.843   1.338   1.213  0.00  0.00    +0.140 A 
ATOM     13 CL   UNL     1       9.082   2.321   2.386  0.00  0.00    -0.080 Cl
ATOM     14 CL   UNL     1       5.715  -1.150   4.794  0.00  0.00    -0.083 Cl
BRANCH  12  15
ATOM     15  O   UNL     1       7.183   2.089   0.132  0.00  0.00    -0.505 OA
ATOM     16  H   UNL     1       6.815   2.983   0.143  0.00  0.00    +0.292 HD
ENDBRANCH  12  15
ENDBRANCH   4   7
BRANCH   1  22
ATOM     17  C   UNL     1      -0.013   1.076   0.008  0.00  0.00    +0.011 A 
ATOM     18  C   UNL     1      -1.215   1.751   0.017  0.00  0.00    +0.016 A 
ATOM     19  C   UNL     1      -1.236   3.135   0.030  0.00  0.00    +0.018 A 
ATOM     20  C   UNL     1      -0.051   3.851   0.023  0.00  0.00    +0.016 A 
ATOM     21  C   UNL     1       1.159   3.189   0.008  0.00  0.00    +0.011 A 
ATOM     22  C   UNL     1       1.187   1.792   0.000  0.00  0.00    -0.002 A 
ATOM     23 BR   UNL     1      -2.890   4.052   0.051  0.00  0.00    -0.050 Br
ENDBRANCH   1  22
TORSDOF 3
