REMARK  Name = ZINC17122070
REMARK  11 active torsions:
REMARK  status: ('A' for Active; 'I' for Inactive)
REMARK    1  A    between atoms: C_1  and  C_2
REMARK    2  A    between atoms: N_10  and  C_11
REMARK    3  A    between atoms: C_11  and  C_13
REMARK    4  A    between atoms: C_16  and  S_19
REMARK    5  A    between atoms: S_19  and  N_22
REMARK    6  A    between atoms: C_24  and  C_31
REMARK    7  A    between atoms: C_27  and  C_30
REMARK    8  A    between atoms: N_32  and  C_33
REMARK    9  A    between atoms: C_33  and  C_34
REMARK   10  A    between atoms: C_34  and  O_36
REMARK   11  A    between atoms: O_36  and  C_37
REMARK                            x       y       z     vdW  Elec       q    Type
REMARK                         _______ _______ _______ _____ _____    ______ ____
ROOT
ATOM      1  C   UNL     1       0.108  -6.316   3.046  0.00  0.00    +0.269 C 
ATOM      2  O   UNL     1       0.100  -5.448   3.902  0.00  0.00    -0.268 OA
ENDROOT
BRANCH   1  12
ATOM      3  C   UNL     1      -0.018   1.503   0.010  0.00  0.00    +0.044 C 
ATOM      4  C   UNL     1       0.002  -0.004   0.002  0.00  0.00    -0.049 A 
ATOM      5  C   UNL     1       0.006  -0.697  -1.197  0.00  0.00    +0.005 A 
ATOM      6  C   UNL     1       0.025  -2.072  -1.225  0.00  0.00    +0.027 A 
ATOM      7  C   UNL     1       0.041  -2.810  -0.034  0.00  0.00    +0.058 A 
ATOM      8  C   UNL     1       0.037  -2.084   1.166  0.00  0.00    +0.039 A 
ATOM      9  C   UNL     1       0.023  -0.709   1.192  0.00  0.00    +0.020 A 
ATOM     10  S   UNL     1       0.061  -3.352   2.405  0.00  0.00    -0.052 S 
ATOM     11  C   UNL     1       0.075  -4.698   1.400  0.00  0.00    +0.167 A 
ATOM     12  N   UNL     1       0.095  -5.979   1.753  0.00  0.00    -0.152 NA
ATOM     13  N   UNL     1       0.061  -4.181   0.144  0.00  0.00    -0.310 N 
BRANCH  13  14
ATOM     14  C   UNL     1       0.068  -5.072  -1.019  0.00  0.00    +0.244 C 
BRANCH  14  15
ATOM     15  C   UNL     1       1.491  -5.358  -1.425  0.00  0.00    +0.327 C 
ATOM     16  O   UNL     1       2.405  -4.867  -0.807  0.00  0.00    -0.249 OA
BRANCH  15  17
ATOM     17  O   UNL     1       1.742  -6.157  -2.473  0.00  0.00    -0.467 OA
ATOM     18  C   UNL     1       3.114  -6.384  -2.802  0.00  0.00    +0.280 C 
ENDBRANCH  15  17
ENDBRANCH  14  15
ENDBRANCH  13  14
ENDBRANCH   1  12
BRANCH   1  19
ATOM     19  C   UNL     1       0.130  -7.744   3.440  0.00  0.00    +0.039 A 
ATOM     20  C   UNL     1       0.145  -8.739   2.463  0.00  0.00    +0.015 A 
ATOM     21  C   UNL     1       0.166 -10.067   2.836  0.00  0.00    +0.029 A 
ATOM     22  C   UNL     1       0.172 -10.412   4.176  0.00  0.00    +0.106 A 
ATOM     23  C   UNL     1       0.158  -9.430   5.149  0.00  0.00    +0.029 A 
ATOM     24  C   UNL     1       0.143  -8.098   4.789  0.00  0.00    +0.015 A 
BRANCH  22  25
ATOM     25  S   UNL     1       0.199 -12.111   4.644  0.00  0.00    +0.061 S 
ATOM     26  O   UNL     1      -0.350 -12.180   5.953  0.00  0.00    -0.153 OA
ATOM     27  O   UNL     1      -0.342 -12.842   3.552  0.00  0.00    -0.153 OA
BRANCH  25  28
ATOM     28  N   UNL     1       1.788 -12.559   4.773  0.00  0.00    -0.176 NA
ATOM     29  C   UNL     1       2.512 -13.091   3.611  0.00  0.00    +0.112 C 
ATOM     30  C   UNL     1       3.136 -14.437   3.993  0.00  0.00    +0.002 C 
ATOM     31  C   UNL     1       3.999 -14.258   5.244  0.00  0.00    +0.009 C 
ATOM     32  C   UNL     1       3.124 -13.784   6.406  0.00  0.00    +0.002 C 
ATOM     33  C   UNL     1       2.502 -12.425   6.050  0.00  0.00    +0.112 C 
ATOM     34  C   UNL     1       3.982 -13.637   7.664  0.00  0.00    +0.009 C 
ATOM     35  C   UNL     1       4.005 -14.943   2.840  0.00  0.00    +0.009 C 
ENDBRANCH  25  28
ENDBRANCH  22  25
ENDBRANCH   1  19
TORSDOF 7
