REMARK  Name = ZINC21252535
REMARK  8 active torsions:
REMARK  status: ('A' for Active; 'I' for Inactive)
REMARK    1  A    between atoms: C_1  and  C_2
REMARK    2  A    between atoms: C_2  and  C_3
REMARK    3  A    between atoms: C_2  and  O_4
REMARK    4  A    between atoms: O_4  and  C_5
REMARK    5  A    between atoms: C_8  and  C_13
REMARK    6  A    between atoms: C_10  and  O_11
REMARK    7  A    between atoms: O_11  and  C_12
REMARK    8  A    between atoms: C_18  and  C_28
REMARK                            x       y       z     vdW  Elec       q    Type
REMARK                         _______ _______ _______ _____ _____    ______ ____
ROOT
ATOM      1  C   UNL     1       1.609   1.140  -0.744  0.00  0.00    +0.032 C 
ATOM      2  C   UNL     1       1.152   1.966   0.458  0.00  0.00    +0.059 C 
ATOM      3  C   UNL     1       1.725   1.376   1.737  0.00  0.00    +0.017 C 
ATOM      4  C   UNL     1       2.934   0.793   1.731  0.00  0.00    +0.036 C 
ATOM      5  C   UNL     1       3.643   0.210   2.932  0.00  0.00    +0.137 C 
ATOM      6  N   UNL     1       2.810   0.077   4.108  0.00  0.00    -0.331 N 
ATOM      7  C   UNL     1       2.280   1.196   4.744  0.00  0.00    +0.049 A 
ATOM      8  C   UNL     1       2.673   1.550   6.026  0.00  0.00    +0.025 A 
ATOM      9  C   UNL     1       2.157   2.696   6.605  0.00  0.00    +0.002 A 
ATOM     10  C   UNL     1       1.260   3.488   5.912  0.00  0.00    +0.002 A 
ATOM     11  C   UNL     1       0.852   3.130   4.638  0.00  0.00    +0.025 A 
ATOM     12  C   UNL     1       1.350   1.971   4.068  0.00  0.00    +0.052 A 
ATOM     13  N   UNL     1       0.925   1.511   2.825  0.00  0.00    -0.316 N 
ATOM     14  C   UNL     1       3.669   0.686   0.527  0.00  0.00    +0.163 C 
ATOM     15  O   UNL     1       4.769   0.170   0.557  0.00  0.00    -0.292 OA
ATOM     16  C   UNL     1       3.141   1.184  -0.784  0.00  0.00    +0.088 C 
ATOM     17  H   UNL     1       2.586  -0.921   4.513  0.00  0.00    +0.147 HD
ATOM     18  H   UNL     1      -0.141   1.248   2.761  0.00  0.00    +0.152 HD
ENDROOT
BRANCH   1  22
ATOM     19  C   UNL     1       0.017   2.812  -4.343  0.00  0.00    +0.162 A 
ATOM     20  C   UNL     1       0.831   3.575  -3.522  0.00  0.00    +0.050 A 
ATOM     21  C   UNL     1       1.345   3.032  -2.359  0.00  0.00    +0.008 A 
ATOM     22  C   UNL     1       1.047   1.727  -2.012  0.00  0.00    -0.040 A 
ATOM     23  C   UNL     1       0.239   0.958  -2.830  0.00  0.00    +0.053 A 
ATOM     24  C   UNL     1      -0.282   1.498  -3.994  0.00  0.00    +0.162 A 
BRANCH  24  25
ATOM     25  O   UNL     1      -1.081   0.745  -4.797  0.00  0.00    -0.491 OA
ATOM     26  C   UNL     1      -1.345  -0.595  -4.376  0.00  0.00    +0.277 C 
ENDBRANCH  24  25
BRANCH  19  27
ATOM     27  O   UNL     1      -0.488   3.345  -5.488  0.00  0.00    -0.486 OA
BRANCH  27  29
ATOM     28  C   UNL     1       1.116   4.890  -6.427  0.00  0.00    +0.051 C 
ATOM     29  C   UNL     1      -0.234   4.731  -5.725  0.00  0.00    +0.167 C 
ATOM     30  C   UNL     1      -1.341   5.307  -6.612  0.00  0.00    +0.051 C 
ENDBRANCH  27  29
ENDBRANCH  19  27
ENDBRANCH   1  22
BRANCH   5  31
ATOM     31  C   UNL     1       4.814   1.096   3.272  0.00  0.00    -0.005 A 
ATOM     32  C   UNL     1       4.608   2.390   3.724  0.00  0.00    +0.009 A 
ATOM     33  C   UNL     1       5.715   3.167   4.030  0.00  0.00    +0.020 A 
ATOM     34  C   UNL     1       6.979   2.632   3.865  0.00  0.00    +0.111 A 
ATOM     35  N   UNL     1       7.138   1.398   3.428  0.00  0.00    -0.263 NA
ATOM     36  C   UNL     1       6.108   0.629   3.132  0.00  0.00    +0.116 A 
ENDBRANCH   5  31
TORSDOF 5
