REMARK  Name = ZINC39232160
REMARK  6 active torsions:
REMARK  status: ('A' for Active; 'I' for Inactive)
REMARK    1  A    between atoms: C_1  and  C_2
REMARK    2  A    between atoms: C_2  and  C_3
REMARK    3  A    between atoms: C_2  and  C_4
REMARK    4  A    between atoms: C_4  and  C_5
REMARK    5  A    between atoms: C_7  and  C_11
REMARK    6  A    between atoms: C_15  and  C_20
REMARK                            x       y       z     vdW  Elec       q    Type
REMARK                         _______ _______ _______ _____ _____    ______ ____
ROOT
ATOM      1  C   UNL     1       5.053   0.283   0.435  0.00  0.00    +0.182 C 
ATOM      2  N   UNL     1       6.260   1.141   0.302  0.00  0.00    -0.265 N 
ATOM      3  N   UNL     1       7.285   0.828   1.145  0.00  0.00    -0.220 N 
ATOM      4  C   UNL     1       8.412   1.459   1.663  0.00  0.00    +0.182 A 
ATOM      5  N   UNL     1       9.049   0.589   2.406  0.00  0.00    -0.127 NA
ATOM      6  N   UNL     1       8.415  -0.531   2.414  0.00  0.00    -0.120 NA
ATOM      7  C   UNL     1       7.343  -0.430   1.689  0.00  0.00    +0.211 A 
ATOM      8  S   UNL     1       5.867  -1.235   1.096  0.00  0.00    -0.058 S 
ATOM      9  H   UNL     1       6.576   1.175  -0.655  0.00  0.00    +0.168 HD
ENDROOT
BRANCH   4  10
ATOM     10  C   UNL     1       8.816   2.859   1.419  0.00  0.00    +0.021 A 
ATOM     11  C   UNL     1       8.234   3.586   0.379  0.00  0.00    +0.014 A 
ATOM     12  C   UNL     1       8.615   4.892   0.156  0.00  0.00    +0.039 A 
ATOM     13  C   UNL     1       9.575   5.484   0.962  0.00  0.00    +0.123 A 
ATOM     14  C   UNL     1      10.156   4.767   1.996  0.00  0.00    +0.039 A 
ATOM     15  C   UNL     1       9.779   3.462   2.231  0.00  0.00    +0.014 A 
ATOM     16  F   UNL     1       9.944   6.764   0.739  0.00  0.00    -0.205 F 
ENDBRANCH   4  10
BRANCH   1  19
ATOM     17  C   UNL     1       2.165  -0.079  -1.208  0.00  0.00    +0.062 C 
ATOM     18  C   UNL     1       3.162  -0.848  -0.763  0.00  0.00    +0.029 C 
ATOM     19  C   UNL     1       4.395   0.024  -0.922  0.00  0.00    +0.185 C 
ATOM     20  N   UNL     1       3.849   1.269  -1.487  0.00  0.00    -0.177 NA
ATOM     21  N   UNL     1       2.631   1.122  -1.615  0.00  0.00    -0.159 NA
BRANCH  17  22
ATOM     22  C   UNL     1       0.718  -0.497  -1.257  0.00  0.00    +0.060 C 
BRANCH  22  24
ATOM     23  C   UNL     1      -0.019   1.526   0.010  0.00  0.00    +0.007 C 
ATOM     24  C   UNL     1       0.002  -0.004   0.002  0.00  0.00    -0.011 C 
ATOM     25  C   UNL     1      -1.433  -0.534   0.013  0.00  0.00    +0.007 C 
ENDBRANCH  22  24
ENDBRANCH  17  22
ENDBRANCH   1  19
TORSDOF 4
