REMARK  Name = ZINC63663625
REMARK  4 active torsions:
REMARK  status: ('A' for Active; 'I' for Inactive)
REMARK    1  A    between atoms: C_14  and  C_15
REMARK    2  A    between atoms: C_15  and  N_16
REMARK    3  A    between atoms: C_17  and  C_19
REMARK    4  A    between atoms: C_20  and  C_21
REMARK                            x       y       z     vdW  Elec       q    Type
REMARK                         _______ _______ _______ _____ _____    ______ ____
ROOT
ATOM      1  C   UNL     1      -0.858  -1.657  -0.052  0.00  0.00    +0.139 C 
ENDROOT
BRANCH   1  14
ATOM      2  C   UNL     1       0.325   0.509   0.395  0.00  0.00    +0.007 A 
ATOM      3  C   UNL     1       1.408   1.311   0.465  0.00  0.00    +0.026 A 
ATOM      4  C   UNL     1       2.696   0.814   0.124  0.00  0.00    +0.043 A 
ATOM      5  N   UNL     1       3.875   1.394   0.091  0.00  0.00    -0.378 N 
ATOM      6  C   UNL     1       4.875   0.388  -0.254  0.00  0.00    +0.106 C 
ATOM      7  C   UNL     1       5.686   0.777  -1.493  0.00  0.00    +0.029 C 
ATOM      8  C   UNL     1       6.497  -0.441  -1.947  0.00  0.00    +0.003 C 
ATOM      9  C   UNL     1       5.580  -1.569  -2.417  0.00  0.00    +0.004 C 
ATOM     10  C   UNL     1       4.723  -2.073  -1.244  0.00  0.00    +0.033 C 
ATOM     11  C   UNL     1       4.087  -0.865  -0.597  0.00  0.00    -0.038 C 
ATOM     12  C   UNL     1       2.804  -0.600  -0.312  0.00  0.00    -0.001 A 
ATOM     13  C   UNL     1       1.576  -1.404  -0.355  0.00  0.00    +0.015 A 
ATOM     14  C   UNL     1       0.402  -0.832  -0.007  0.00  0.00    -0.030 A 
ATOM     15  H   UNL     1       4.050   2.332   0.266  0.00  0.00    +0.160 HD
ENDBRANCH   1  14
BRANCH   1  16
ATOM     16  N   UNL     1      -1.470  -1.543  -1.378  0.00  0.00    -0.308 N 
ATOM     17  C   UNL     1      -2.614  -2.201  -1.651  0.00  0.00    +0.237 C 
ATOM     18  O   UNL     1      -3.139  -2.890  -0.796  0.00  0.00    -0.271 OA
ATOM     19  H   UNL     1      -1.052  -0.994  -2.059  0.00  0.00    +0.149 HD
BRANCH  17  20
ATOM     20  C   UNL     1      -3.225  -2.087  -2.975  0.00  0.00    +0.068 C 
ATOM     21  C   UNL     1      -4.437  -2.633  -3.209  0.00  0.00    +0.013 C 
BRANCH  21  22
ATOM     22  C   UNL     1      -5.253  -3.118  -2.087  0.00  0.00    -0.021 A 
ATOM     23  C   UNL     1      -5.419  -2.325  -0.945  0.00  0.00    +0.012 A 
ATOM     24  C   UNL     1      -6.185  -2.781   0.104  0.00  0.00    +0.050 A 
ATOM     25  C   UNL     1      -6.796  -4.026   0.035  0.00  0.00    +0.166 A 
ATOM     26  C   UNL     1      -6.635  -4.823  -1.099  0.00  0.00    +0.167 A 
ATOM     27  C   UNL     1      -5.873  -4.370  -2.158  0.00  0.00    +0.057 A 
ATOM     28  O   UNL     1      -7.329  -5.985  -0.917  0.00  0.00    -0.453 OA
ATOM     29  C   UNL     1      -7.576  -6.066   0.498  0.00  0.00    +0.466 C 
ATOM     30  O   UNL     1      -7.589  -4.691   0.924  0.00  0.00    -0.453 OA
ENDBRANCH  21  22
ENDBRANCH  17  20
ENDBRANCH   1  16
TORSDOF 4
