REMARK  Name = ZINC17368196
REMARK  9 active torsions:
REMARK  status: ('A' for Active; 'I' for Inactive)
REMARK    1  A    between atoms: C_1  and  C_2
REMARK    2  A    between atoms: N_10  and  C_13
REMARK    3  A    between atoms: C_13  and  C_15
REMARK    4  A    between atoms: C_13  and  C_16
REMARK    5  A    between atoms: N_18  and  C_19
REMARK    6  A    between atoms: C_19  and  C_21
REMARK    7  A    between atoms: C_19  and  C_31
REMARK    8  A    between atoms: C_31  and  C_32
REMARK    9  A    between atoms: C_31  and  C_33
REMARK                            x       y       z     vdW  Elec       q    Type
REMARK                         _______ _______ _______ _____ _____    ______ ____
ROOT
ATOM      1  C   UNL     1      -5.660  -0.844  -1.419  0.00  0.00    +0.234 C 
ATOM      2  O   UNL     1      -5.762  -2.031  -1.195  0.00  0.00    -0.274 OA
ATOM      3  N   UNL     1      -4.657  -0.137  -0.860  0.00  0.00    -0.307 N 
ATOM      4  H   UNL     1      -4.575   0.813  -1.039  0.00  0.00    +0.149 HD
ENDROOT
BRANCH   1   5
ATOM      5  C   UNL     1      -6.653  -0.158  -2.322  0.00  0.00    +0.167 C 
ATOM      6  C   UNL     1      -7.369   0.948  -1.545  0.00  0.00    +0.038 C 
BRANCH   5  16
ATOM      7  C   UNL     1     -11.194  -4.790  -6.071  0.00  0.00    +0.044 C 
ATOM      8  C   UNL     1     -10.520  -4.058  -4.939  0.00  0.00    -0.050 A 
ATOM      9  C   UNL     1     -10.896  -4.316  -3.635  0.00  0.00    +0.004 A 
ATOM     10  C   UNL     1     -10.286  -3.651  -2.583  0.00  0.00    +0.014 A 
ATOM     11  C   UNL     1      -9.291  -2.722  -2.842  0.00  0.00    +0.049 A 
ATOM     12  C   UNL     1      -8.908  -2.458  -4.173  0.00  0.00    +0.050 A 
ATOM     13  C   UNL     1      -9.527  -3.131  -5.214  0.00  0.00    +0.017 A 
ATOM     14  C   UNL     1      -7.848  -1.432  -4.093  0.00  0.00    +0.254 C 
ATOM     15  O   UNL     1      -7.264  -0.940  -5.038  0.00  0.00    -0.270 OA
ATOM     16  N   UNL     1      -7.635  -1.135  -2.798  0.00  0.00    -0.222 N 
ATOM     17  C   UNL     1      -8.447  -1.850  -1.998  0.00  0.00    +0.254 C 
ATOM     18  O   UNL     1      -8.482  -1.788  -0.786  0.00  0.00    -0.270 OA
ENDBRANCH   5  16
ENDBRANCH   1   5
BRANCH   3  19
ATOM     19  C   UNL     1      -3.692  -0.803   0.018  0.00  0.00    +0.106 C 
BRANCH  19  20
ATOM     20  C   UNL     1      -2.397  -0.033   0.016  0.00  0.00    -0.023 A 
ATOM     21  C   UNL     1      -2.415   1.349   0.025  0.00  0.00    +0.009 A 
ATOM     22  C   UNL     1      -1.229   2.059   0.019  0.00  0.00    +0.050 A 
ATOM     23  C   UNL     1      -0.017   1.385   0.010  0.00  0.00    +0.162 A 
ATOM     24  C   UNL     1       0.002  -0.004   0.002  0.00  0.00    +0.162 A 
ATOM     25  C   UNL     1      -1.192  -0.710   0.004  0.00  0.00    +0.055 A 
ATOM     26  O   UNL     1       1.181  -0.685  -0.007  0.00  0.00    -0.485 OA
ATOM     27  C   UNL     1       2.347   0.053  -0.387  0.00  0.00    +0.270 C 
ATOM     28  C   UNL     1       2.334   1.392   0.364  0.00  0.00    +0.270 C 
ATOM     29  O   UNL     1       1.143   2.098   0.002  0.00  0.00    -0.485 OA
ENDBRANCH  19  20
BRANCH  19  30
ATOM     30  C   UNL     1      -4.250  -0.858   1.441  0.00  0.00    +0.008 C 
ATOM     31  C   UNL     1      -5.566  -1.640   1.443  0.00  0.00    +0.009 C 
ATOM     32  C   UNL     1      -3.242  -1.554   2.358  0.00  0.00    +0.009 C 
ENDBRANCH  19  30
ENDBRANCH   3  19
TORSDOF 5
