REMARK  Name = ZINC05342630
REMARK  5 active torsions:
REMARK  status: ('A' for Active; 'I' for Inactive)
REMARK    1  A    between atoms: C_1  and  C_2
REMARK    2  A    between atoms: C_2  and  C_3
REMARK    3  A    between atoms: C_6  and  N_9
REMARK    4  A    between atoms: C_10  and  C_12
REMARK    5  A    between atoms: C_12  and  N_13
REMARK                            x       y       z     vdW  Elec       q    Type
REMARK                         _______ _______ _______ _____ _____    ______ ____
ROOT
ATOM      1  N   UNL     1       2.716   4.797   1.219  0.00  0.00    -0.215 N 
ATOM      2  C   UNL     1       1.574   4.101   1.399  0.00  0.00    +0.252 C 
ATOM      3  O   UNL     1       0.983   3.919   2.442  0.00  0.00    -0.272 OA
ATOM      4  C   UNL     1       1.189   3.596   0.028  0.00  0.00    +0.144 C 
ATOM      5  C   UNL     1      -0.168   4.160  -0.382  0.00  0.00    +0.081 C 
ATOM      6  C   UNL     1      -1.257   3.415   0.403  0.00  0.00    +0.232 C 
ATOM      7  O   UNL     1      -1.229   2.039   0.021  0.00  0.00    -0.492 OA
ATOM      8  C   UNL     1      -0.033   1.397   0.021  0.00  0.00    +0.126 A 
ATOM      9  C   UNL     1       1.165   2.093   0.012  0.00  0.00    +0.027 A 
ATOM     10  C   UNL     1       2.364   1.400  -0.009  0.00  0.00    +0.010 A 
ATOM     11  C   UNL     1       2.370   0.019  -0.011  0.00  0.00    +0.001 A 
ATOM     12  C   UNL     1       1.177  -0.678   0.004  0.00  0.00    +0.004 A 
ATOM     13  C   UNL     1      -0.022   0.007   0.020  0.00  0.00    +0.046 A 
ATOM     14  N   UNL     1       2.248   4.106  -0.851  0.00  0.00    -0.281 N 
ATOM     15  C   UNL     1       3.095   4.797  -0.064  0.00  0.00    +0.310 C 
ATOM     16  O   UNL     1       4.093   5.357  -0.474  0.00  0.00    -0.252 OA
ATOM     17  H   UNL     1       2.322   3.973  -1.809  0.00  0.00    +0.152 HD
ENDROOT
BRANCH   1  18
ATOM     18  C   UNL     1       3.449   5.469   2.295  0.00  0.00    +0.214 C 
BRANCH  18  20
ATOM     19  N   UNL     1       5.250   4.921   3.899  0.00  0.00    -0.284 N 
ATOM     20  C   UNL     1       4.456   4.517   2.887  0.00  0.00    +0.235 C 
ATOM     21  O   UNL     1       4.552   3.389   2.454  0.00  0.00    -0.274 OA
ATOM     22  H   UNL     1       5.221   5.842   4.201  0.00  0.00    +0.155 HD
BRANCH  19  26
ATOM     23  C   UNL     1       7.832   2.211   5.729  0.00  0.00    -0.048 A 
ATOM     24  C   UNL     1       7.580   2.116   4.372  0.00  0.00    +0.005 A 
ATOM     25  C   UNL     1       6.725   3.013   3.763  0.00  0.00    +0.023 A 
ATOM     26  C   UNL     1       6.117   4.010   4.513  0.00  0.00    +0.033 A 
ATOM     27  C   UNL     1       6.376   4.106   5.874  0.00  0.00    +0.023 A 
ATOM     28  C   UNL     1       7.228   3.203   6.479  0.00  0.00    +0.005 A 
BRANCH  23  30
ATOM     29  C   UNL     1      10.194   1.778   6.346  0.00  0.00    +0.009 C 
ATOM     30  C   UNL     1       8.766   1.230   6.390  0.00  0.00    +0.032 C 
ENDBRANCH  23  30
ENDBRANCH  19  26
ENDBRANCH  18  20
ENDBRANCH   1  18
TORSDOF 4
