REMARK  Name = ZINC36297412
REMARK  5 active torsions:
REMARK  status: ('A' for Active; 'I' for Inactive)
REMARK    1  A    between atoms: C_4  and  N_8
REMARK    2  A    between atoms: C_5  and  N_7
REMARK    3  A    between atoms: N_8  and  S_9
REMARK    4  A    between atoms: S_9  and  C_12
REMARK    5  A    between atoms: C_17  and  C_18
REMARK                            x       y       z     vdW  Elec       q    Type
REMARK                         _______ _______ _______ _____ _____    ______ ____
ROOT
ATOM      1  S   UNL     1       5.052   0.214  -0.048  0.00  0.00    +0.093 S 
ATOM      2  O   UNL     1       5.103   0.902  -1.290  0.00  0.00    -0.148 OA
ATOM      3  O   UNL     1       5.128   0.889   1.201  0.00  0.00    -0.148 OA
ENDROOT
BRANCH   1   4
ATOM      4  C   UNL     1       6.367  -0.959  -0.068  0.00  0.00    +0.129 A 
ATOM      5  C   UNL     1       7.210  -1.033  -1.156  0.00  0.00    +0.050 A 
ATOM      6  C   UNL     1       8.244  -1.954  -1.173  0.00  0.00    +0.043 A 
ATOM      7  C   UNL     1       8.438  -2.806  -0.098  0.00  0.00    +0.021 A 
ATOM      8  C   UNL     1       7.602  -2.742   0.996  0.00  0.00    +0.022 A 
ATOM      9  C   UNL     1       6.560  -1.812   1.021  0.00  0.00    +0.078 A 
ATOM     10 CL   UNL     1       9.301  -2.042  -2.547  0.00  0.00    -0.083 Cl
BRANCH   9  11
ATOM     11  C   UNL     1       5.691  -1.736   2.157  0.00  0.00    +0.101 C 
ATOM     12  N   UNL     1       5.002  -1.676   3.058  0.00  0.00    -0.191 NA
ENDBRANCH   9  11
ENDBRANCH   1   4
BRANCH   1  13
ATOM     13  N   UNL     1       3.633  -0.640  -0.037  0.00  0.00    -0.096 NA
BRANCH  13  17
ATOM     14  C   UNL     1      -0.017   1.379   0.010  0.00  0.00    +0.002 A 
ATOM     15  C   UNL     1       1.169   2.090   0.002  0.00  0.00    +0.002 A 
ATOM     16  C   UNL     1       2.380   1.423  -0.013  0.00  0.00    +0.028 A 
ATOM     17  C   UNL     1       2.408   0.037  -0.021  0.00  0.00    +0.095 A 
ATOM     18  C   UNL     1       1.212  -0.681  -0.013  0.00  0.00    +0.049 A 
ATOM     19  C   UNL     1       0.002  -0.004   0.002  0.00  0.00    +0.025 A 
BRANCH  18  20
ATOM     20  N   UNL     1       1.234  -2.081  -0.021  0.00  0.00    -0.356 N 
ATOM     21  H   UNL     1       2.081  -2.553  -0.033  0.00  0.00    +0.142 HD
ATOM     22  H   UNL     1       0.401  -2.579  -0.016  0.00  0.00    +0.142 HD
ENDBRANCH  18  20
ENDBRANCH  13  17
ENDBRANCH   1  13
TORSDOF 5
