REMARK  Name = ZINC44676359
REMARK  6 active torsions:
REMARK  status: ('A' for Active; 'I' for Inactive)
REMARK    1  A    between atoms: C_1  and  O_2
REMARK    2  A    between atoms: O_2  and  C_3
REMARK    3  A    between atoms: C_8  and  N_9
REMARK    4  A    between atoms: N_9  and  S_10
REMARK    5  A    between atoms: S_10  and  C_13
REMARK    6  A    between atoms: C_26  and  C_29
REMARK                            x       y       z     vdW  Elec       q    Type
REMARK                         _______ _______ _______ _____ _____    ______ ____
ROOT
ATOM      1  C   UNL     1      -0.186  -4.004  -2.475  0.00  0.00    +0.109 A 
ATOM      2  C   UNL     1      -1.434  -3.958  -3.069  0.00  0.00    +0.030 A 
ATOM      3  C   UNL     1      -1.539  -3.757  -4.430  0.00  0.00    +0.025 A 
ATOM      4  C   UNL     1      -0.392  -3.599  -5.203  0.00  0.00    +0.031 A 
ATOM      5  C   UNL     1       0.856  -3.634  -4.608  0.00  0.00    -0.018 A 
ATOM      6  C   UNL     1       0.951  -3.838  -3.238  0.00  0.00    +0.034 A 
ATOM      7  C   UNL     1       2.124  -3.434  -5.388  0.00  0.00    +0.049 C 
ATOM      8  C   UNL     1       2.942  -2.364  -4.682  0.00  0.00    -0.023 C 
ATOM      9  C   UNL     1       2.829  -1.216  -5.298  0.00  0.00    -0.030 C 
ATOM     10  C   UNL     1       1.934  -1.339  -6.513  0.00  0.00    +0.033 C 
ATOM     11  C   UNL     1       1.885  -2.875  -6.789  0.00  0.00    +0.029 C 
ATOM     12  C   UNL     1       0.619  -3.310  -7.464  0.00  0.00    +0.106 C 
ATOM     13  N   UNL     1      -0.522  -3.413  -6.575  0.00  0.00    -0.336 N 
ATOM     14  H   UNL     1      -1.414  -3.374  -6.956  0.00  0.00    +0.147 HD
ENDROOT
BRANCH  12  15
ATOM     15  C   UNL     1       0.865  -4.641  -8.127  0.00  0.00    -0.009 A 
ATOM     16  C   UNL     1       0.440  -5.806  -7.516  0.00  0.00    +0.007 A 
ATOM     17  C   UNL     1       0.666  -7.027  -8.124  0.00  0.00    +0.000 A 
ATOM     18  C   UNL     1       1.315  -7.083  -9.343  0.00  0.00    +0.001 A 
ATOM     19  C   UNL     1       1.740  -5.919  -9.955  0.00  0.00    +0.020 A 
ATOM     20  C   UNL     1       1.509  -4.696  -9.349  0.00  0.00    +0.046 A 
ATOM     21 CL   UNL     1       2.037  -3.232 -10.120  0.00  0.00    -0.083 Cl
ENDBRANCH  12  15
BRANCH   1  22
ATOM     22  S   UNL     1      -0.049  -4.268  -0.738  0.00  0.00    +0.072 S 
ATOM     23  O   UNL     1       1.246  -4.808  -0.511  0.00  0.00    -0.150 OA
ATOM     24  O   UNL     1      -1.235  -4.938  -0.334  0.00  0.00    -0.150 OA
BRANCH  22  25
ATOM     25  N   UNL     1      -0.075  -2.780  -0.013  0.00  0.00    -0.213 N 
ATOM     26  H   UNL     1       0.681  -2.486   0.519  0.00  0.00    +0.174 HD
BRANCH  25  32
ATOM     27  C   UNL     1      -1.022  -0.566  -0.250  0.00  0.00    +0.142 A 
ATOM     28  C   UNL     1      -2.128   0.254  -0.408  0.00  0.00    +0.047 A 
ATOM     29  C   UNL     1      -3.394  -0.298  -0.476  0.00  0.00    +0.004 A 
ATOM     30  C   UNL     1      -3.561  -1.667  -0.388  0.00  0.00    +0.002 A 
ATOM     31  C   UNL     1      -2.463  -2.492  -0.230  0.00  0.00    +0.028 A 
ATOM     32  C   UNL     1      -1.189  -1.946  -0.166  0.00  0.00    +0.090 A 
BRANCH  27  34
ATOM     33  C   UNL     1       0.318   1.399  -0.274  0.00  0.00    +0.277 C 
ATOM     34  O   UNL     1       0.223  -0.024  -0.182  0.00  0.00    -0.493 OA
ENDBRANCH  27  34
ENDBRANCH  25  32
ENDBRANCH  22  25
ENDBRANCH   1  22
TORSDOF 5
