REMARK  Name = ZINC26578175
REMARK  12 active torsions:
REMARK  status: ('A' for Active; 'I' for Inactive)
REMARK    1  A    between atoms: C_1  and  C_2
REMARK    2  A    between atoms: C_2  and  O_3
REMARK    3  A    between atoms: O_3  and  C_4
REMARK    4  A    between atoms: C_6  and  C_32
REMARK    5  A    between atoms: C_8  and  C_19
REMARK    6  A    between atoms: C_9  and  C_13
REMARK    7  A    between atoms: C_11  and  C_12
REMARK    8  A    between atoms: C_19  and  O_21
REMARK    9  A    between atoms: O_21  and  C_22
REMARK   10  A    between atoms: C_22  and  C_23
REMARK   11  A    between atoms: C_26  and  N_29
REMARK   12  A    between atoms: C_33  and  C_34
REMARK                            x       y       z     vdW  Elec       q    Type
REMARK                         _______ _______ _______ _____ _____    ______ ____
ROOT
ATOM      1  C   UNL     1      -1.495  -1.911   0.413  0.00  0.00    +0.338 C 
ATOM      2  C   UNL     1      -2.760  -2.418   0.226  0.00  0.00    +0.077 C 
ATOM      3  C   UNL     1      -2.977  -3.852  -0.224  0.00  0.00    +0.142 C 
ATOM      4  C   UNL     1      -4.423  -4.284  -0.391  0.00  0.00    +0.082 C 
ATOM      5  C   UNL     1      -5.406  -3.341  -0.122  0.00  0.00    +0.083 C 
ATOM      6  N   UNL     1      -5.108  -2.102   0.270  0.00  0.00    -0.251 NA
ATOM      7  C   UNL     1      -3.896  -1.636   0.449  0.00  0.00    +0.050 C 
ATOM      8  C   UNL     1      -3.722  -0.209   0.903  0.00  0.00    +0.066 C 
ATOM      9  O   UNL     1      -0.422  -2.719   0.303  0.00  0.00    -0.245 OA
ENDROOT
BRANCH   5  10
ATOM     10  C   UNL     1      -6.828  -3.723  -0.274  0.00  0.00    +0.001 A 
ATOM     11  C   UNL     1      -7.359  -4.765   0.488  0.00  0.00    +0.010 A 
ATOM     12  C   UNL     1      -8.685  -5.116   0.341  0.00  0.00    +0.001 A 
ATOM     13  C   UNL     1      -9.488  -4.439  -0.559  0.00  0.00    +0.000 A 
ATOM     14  C   UNL     1      -8.967  -3.405  -1.317  0.00  0.00    +0.001 A 
ATOM     15  C   UNL     1      -7.644  -3.040  -1.176  0.00  0.00    +0.010 A 
ENDBRANCH   5  10
BRANCH   4  16
ATOM     16  C   UNL     1      -4.752  -5.582  -0.802  0.00  0.00    +0.339 C 
ATOM     17  O   UNL     1      -5.914  -5.876  -1.020  0.00  0.00    -0.245 OA
BRANCH  16  18
ATOM     18  O   UNL     1      -3.780  -6.508  -0.957  0.00  0.00    -0.457 OA
BRANCH  18  19
ATOM     19  C   UNL     1      -4.188  -7.812  -1.379  0.00  0.00    +0.268 C 
BRANCH  19  20
ATOM     20  C   UNL     1      -2.978  -8.703  -1.496  0.00  0.00    -0.010 A 
ATOM     21  C   UNL     1      -2.289  -8.778  -2.692  0.00  0.00    +0.009 A 
ATOM     22  C   UNL     1      -1.179  -9.595  -2.800  0.00  0.00    +0.033 A 
ATOM     23  C   UNL     1      -0.758 -10.337  -1.712  0.00  0.00    +0.126 A 
ATOM     24  C   UNL     1      -1.447 -10.261  -0.516  0.00  0.00    +0.033 A 
ATOM     25  C   UNL     1      -2.554  -9.440  -0.407  0.00  0.00    +0.009 A 
BRANCH  23  26
ATOM     26  N   UNL     1       0.429 -11.213  -1.828  0.00  0.00    +0.056 N 
ATOM     27  O   UNL     1       1.031 -11.279  -2.874  0.00  0.00    -0.126 OA
ATOM     28  O   UNL     1       0.797 -11.861  -0.876  0.00  0.00    -0.126 OA
ENDBRANCH  23  26
ENDBRANCH  19  20
ENDBRANCH  18  19
ENDBRANCH  16  18
ENDBRANCH   4  16
BRANCH   3  29
ATOM     29  C   UNL     1      -2.347  -4.743   0.763  0.00  0.00    -0.084 C 
ATOM     30  C   UNL     1      -1.844  -5.455   1.551  0.00  0.00    -0.065 C 
BRANCH  30  31
ATOM     31  C   UNL     1      -1.231  -6.322   2.511  0.00  0.00    +0.025 A 
ATOM     32  C   UNL     1      -0.585  -5.787   3.626  0.00  0.00    +0.017 A 
ATOM     33  C   UNL     1       0.004  -6.628   4.548  0.00  0.00    +0.001 A 
ATOM     34  C   UNL     1      -0.045  -7.999   4.369  0.00  0.00    +0.000 A 
ATOM     35  C   UNL     1      -0.684  -8.536   3.265  0.00  0.00    +0.001 A 
ATOM     36  C   UNL     1      -1.282  -7.706   2.339  0.00  0.00    +0.017 A 
ENDBRANCH  30  31
ENDBRANCH   3  29
BRANCH   1  37
ATOM     37  O   UNL     1      -1.328  -0.606   0.706  0.00  0.00    -0.462 OA
BRANCH  37  39
ATOM     38  C   UNL     1       0.002   1.348   1.210  0.00  0.00    +0.048 C 
ATOM     39  C   UNL     1       0.013  -0.148   0.887  0.00  0.00    +0.229 C 
ENDBRANCH  37  39
ENDBRANCH   1  37
TORSDOF 10
