REMARK  Name = ZINC39683734
REMARK  8 active torsions:
REMARK  status: ('A' for Active; 'I' for Inactive)
REMARK    1  A    between atoms: C_4  and  C_7
REMARK    2  A    between atoms: C_7  and  C_8
REMARK    3  A    between atoms: C_8  and  C_9
REMARK    4  A    between atoms: C_9  and  C_10
REMARK    5  A    between atoms: C_14  and  C_23
REMARK    6  A    between atoms: N_25  and  C_26
REMARK    7  A    between atoms: C_26  and  C_27
REMARK    8  A    between atoms: C_27  and  C_28
REMARK                            x       y       z     vdW  Elec       q    Type
REMARK                         _______ _______ _______ _____ _____    ______ ____
ROOT
ATOM      1  C   UNL     1       5.932  -2.076   2.503  0.00  0.00    +0.216 C 
ATOM      2  O   UNL     1       5.173  -1.691   3.367  0.00  0.00    -0.276 OA
ATOM      3  N   UNL     1       7.089  -2.678   2.841  0.00  0.00    -0.300 N 
ATOM      4  C   UNL     1       8.137  -3.205   1.936  0.00  0.00    +0.121 C 
ATOM      5  C   UNL     1       9.470  -2.836   2.626  0.00  0.00    +0.100 C 
ATOM      6  C   UNL     1       9.112  -2.679   4.113  0.00  0.00    -0.004 C 
ATOM      7  C   UNL     1       7.604  -2.956   4.203  0.00  0.00    +0.115 C 
ATOM      8  C   UNL     1       9.887  -3.691   4.952  0.00  0.00    -0.010 C 
ATOM      9  C   UNL     1       9.558  -3.477   6.433  0.00  0.00    -0.082 C 
ATOM     10  N   UNL     1       9.919  -2.109   6.823  0.00  0.00    +0.379 N 
ATOM     11  C   UNL     1       9.102  -1.144   6.077  0.00  0.00    -0.082 C 
ATOM     12  C   UNL     1       9.412  -1.258   4.582  0.00  0.00    -0.010 C 
ATOM     13  H   UNL     1       9.758  -1.990   7.812  0.00  0.00    -0.086 HD
ATOM     14  H   UNL     1      10.894  -1.949   6.622  0.00  0.00    -0.086 HD
ENDROOT
BRANCH   5  15
ATOM     15  C   UNL     1      10.005  -1.540   2.073  0.00  0.00    +0.218 C 
ATOM     16  O   UNL     1       9.240  -0.693   1.663  0.00  0.00    -0.275 OA
ATOM     17  N   UNL     1      11.335  -1.322   2.035  0.00  0.00    -0.315 N 
ATOM     18  H   UNL     1      11.947  -1.999   2.363  0.00  0.00    +0.149 HD
BRANCH  17  19
ATOM     19  C   UNL     1      11.855  -0.062   1.498  0.00  0.00    +0.109 C 
BRANCH  19  20
ATOM     20  C   UNL     1      13.384  -0.070   1.569  0.00  0.00    +0.055 C 
BRANCH  20  21
ATOM     21  C   UNL     1      13.919   1.226   1.017  0.00  0.00    -0.032 A 
ATOM     22  C   UNL     1      14.305   1.306  -0.308  0.00  0.00    +0.005 A 
ATOM     23  C   UNL     1      14.795   2.494  -0.815  0.00  0.00    +0.000 A 
ATOM     24  C   UNL     1      14.901   3.604   0.003  0.00  0.00    +0.001 A 
ATOM     25  C   UNL     1      14.515   3.525   1.327  0.00  0.00    +0.015 A 
ATOM     26  C   UNL     1      14.019   2.337   1.834  0.00  0.00    +0.021 A 
ATOM     27 BR   UNL     1      13.485   2.231   3.645  0.00  0.00    -0.050 Br
ENDBRANCH  20  21
ENDBRANCH  19  20
ENDBRANCH  17  19
ENDBRANCH   5  15
BRANCH   1  28
ATOM     28  C   UNL     1       5.580  -1.882   1.050  0.00  0.00    +0.096 C 
BRANCH  28  29
ATOM     29  C   UNL     1       4.225  -1.180   0.943  0.00  0.00    +0.014 C 
BRANCH  29  30
ATOM     30  C   UNL     1       3.868  -0.983  -0.532  0.00  0.00    +0.035 C 
BRANCH  30  34
ATOM     31  C   UNL     1       0.084   0.977  -0.834  0.00  0.00    +0.000 A 
ATOM     32  C   UNL     1       1.246   1.723  -0.775  0.00  0.00    +0.000 A 
ATOM     33  C   UNL     1       2.471   1.089  -0.677  0.00  0.00    +0.003 A 
ATOM     34  C   UNL     1       2.533  -0.291  -0.638  0.00  0.00    -0.047 A 
ATOM     35  C   UNL     1       1.371  -1.038  -0.696  0.00  0.00    +0.003 A 
ATOM     36  C   UNL     1       0.146  -0.403  -0.795  0.00  0.00    +0.000 A 
ENDBRANCH  30  34
ENDBRANCH  29  30
ENDBRANCH  28  29
ENDBRANCH   1  28
TORSDOF 8
