REMARK  Name = ZINC33764095
REMARK  8 active torsions:
REMARK  status: ('A' for Active; 'I' for Inactive)
REMARK    1  A    between atoms: C_1  and  C_2
REMARK    2  A    between atoms: C_2  and  C_3
REMARK    3  A    between atoms: C_2  and  N_4
REMARK    4  A    between atoms: C_5  and  C_7
REMARK    5  A    between atoms: C_10  and  C_27
REMARK    6  A    between atoms: C_11  and  C_12
REMARK    7  A    between atoms: C_11  and  C_13
REMARK    8  A    between atoms: C_19  and  N_24
REMARK                            x       y       z     vdW  Elec       q    Type
REMARK                         _______ _______ _______ _____ _____    ______ ____
ROOT
ATOM      1  C   UNL     1      -0.820   1.629  -1.214  0.00  0.00    +0.096 C 
ATOM      2  C   UNL     1      -0.013   1.086   0.008  0.00  0.00    +0.024 C 
ATOM      3  C   UNL     1      -0.789   1.611   1.239  0.00  0.00    +0.015 C 
ATOM      4  C   UNL     1      -1.982   2.411   0.620  0.00  0.00    +0.018 C 
ATOM      5  C   UNL     1      -1.282   3.022  -0.650  0.00  0.00    -0.005 C 
ATOM      6  C   UNL     1      -0.101   3.923  -0.285  0.00  0.00    +0.013 C 
ATOM      7  C   UNL     1      -2.275   3.724  -1.579  0.00  0.00    +0.013 C 
ATOM      8  C   UNL     1      -2.853   1.342  -0.044  0.00  0.00    +0.071 A 
ATOM      9  C   UNL     1      -2.146   0.866  -1.160  0.00  0.00    +0.079 A 
ATOM     10  N   UNL     1      -2.651  -0.065  -1.926  0.00  0.00    -0.247 NA
ATOM     11  C   UNL     1      -3.860  -0.567  -1.643  0.00  0.00    +0.092 A 
ATOM     12  C   UNL     1      -4.435  -1.567  -2.448  0.00  0.00    +0.062 A 
ATOM     13  C   UNL     1      -5.665  -2.057  -2.137  0.00  0.00    +0.128 A 
ATOM     14  C   UNL     1      -6.368  -1.583  -1.030  0.00  0.00    +0.035 A 
ATOM     15  C   UNL     1      -5.843  -0.617  -0.229  0.00  0.00    +0.032 A 
ATOM     16  C   UNL     1      -4.574  -0.086  -0.517  0.00  0.00    +0.090 A 
ATOM     17  N   UNL     1      -4.033   0.866   0.254  0.00  0.00    -0.248 NA
ATOM     18  C   UNL     1      -2.705   3.395   1.542  0.00  0.00    +0.018 C 
ENDROOT
BRANCH   1  20
ATOM     19  N   UNL     1       0.349   0.491  -3.073  0.00  0.00    -0.312 N 
ATOM     20  C   UNL     1      -0.096   1.644  -2.535  0.00  0.00    +0.226 C 
ATOM     21  O   UNL     1       0.086   2.693  -3.115  0.00  0.00    -0.275 OA
ATOM     22  H   UNL     1       0.184  -0.461  -2.547  0.00  0.00    +0.149 HD
BRANCH  19  24
ATOM     23  C   UNL     1       1.965  -0.719  -4.454  0.00  0.00    +0.027 C 
ATOM     24  C   UNL     1       1.053   0.506  -4.358  0.00  0.00    +0.067 C 
ATOM     25  C   UNL     1       0.034   0.473  -5.498  0.00  0.00    +0.027 C 
ENDBRANCH  19  24
ENDBRANCH   1  20
BRANCH  13  26
ATOM     26  N   UNL     1      -6.267  -3.109  -2.987  0.00  0.00    +0.056 N 
ATOM     27  O   UNL     1      -5.660  -3.530  -3.956  0.00  0.00    -0.126 OA
ATOM     28  O   UNL     1      -7.368  -3.554  -2.717  0.00  0.00    -0.126 OA
ENDBRANCH  13  26
TORSDOF 3
