REMARK  Name = ZINC09382096
REMARK  7 active torsions:
REMARK  status: ('A' for Active; 'I' for Inactive)
REMARK    1  A    between atoms: C_1  and  C_2
REMARK    2  A    between atoms: C_7  and  C_8
REMARK    3  A    between atoms: C_8  and  S_9
REMARK    4  A    between atoms: S_9  and  C_10
REMARK    5  A    between atoms: C_13  and  C_22
REMARK    6  A    between atoms: N_14  and  C_15
REMARK    7  A    between atoms: C_22  and  C_23
REMARK                            x       y       z     vdW  Elec       q    Type
REMARK                         _______ _______ _______ _____ _____    ______ ____
ROOT
ATOM      1  C   UNL     1      -1.388   1.185   4.552  0.00  0.00    +0.196 A 
ATOM      2  N   UNL     1      -0.217   1.492   5.062  0.00  0.00    -0.122 NA
ATOM      3  N   UNL     1      -0.375   2.126   6.169  0.00  0.00    -0.133 NA
ATOM      4  C   UNL     1      -1.644   2.254   6.436  0.00  0.00    +0.144 A 
ATOM      5  N   UNL     1      -2.337   1.659   5.415  0.00  0.00    -0.274 N 
ENDROOT
BRANCH   5   6
ATOM      6  C   UNL     1      -3.730   1.558   5.283  0.00  0.00    +0.050 A 
ATOM      7  C   UNL     1      -4.498   2.703   5.122  0.00  0.00    +0.028 A 
ATOM      8  C   UNL     1      -5.869   2.600   4.986  0.00  0.00    +0.022 A 
ATOM      9  C   UNL     1      -6.477   1.358   5.022  0.00  0.00    +0.041 A 
ATOM     10  C   UNL     1      -5.714   0.215   5.187  0.00  0.00    +0.022 A 
ATOM     11  C   UNL     1      -4.343   0.313   5.318  0.00  0.00    +0.028 A 
ATOM     12 CL   UNL     1      -8.201   1.232   4.858  0.00  0.00    -0.084 Cl
ENDBRANCH   5   6
BRANCH   1  13
ATOM     13  S   UNL     1      -1.680   0.321   3.045  0.00  0.00    -0.081 S 
BRANCH  13  14
ATOM     14  C   UNL     1       0.025   0.045   2.504  0.00  0.00    +0.112 C 
BRANCH  14  21
ATOM     15  C   UNL     1      -0.018   1.503   0.010  0.00  0.00    +0.044 C 
ATOM     16  C   UNL     1       0.002  -0.004   0.002  0.00  0.00    -0.046 A 
ATOM     17  C   UNL     1      -0.006  -0.689  -1.199  0.00  0.00    +0.003 A 
ATOM     18  C   UNL     1       0.018  -2.071  -1.207  0.00  0.00    +0.000 A 
ATOM     19  C   UNL     1       0.039  -2.768  -0.013  0.00  0.00    +0.000 A 
ATOM     20  C   UNL     1       0.041  -2.084   1.188  0.00  0.00    +0.005 A 
ATOM     21  C   UNL     1       0.023  -0.702   1.195  0.00  0.00    -0.034 A 
ENDBRANCH  14  21
ENDBRANCH  13  14
ENDBRANCH   1  13
BRANCH   4  22
ATOM     22  C   UNL     1      -2.238   2.932   7.643  0.00  0.00    +0.130 C 
BRANCH  22  23
ATOM     23  C   UNL     1      -2.414   1.923   8.749  0.00  0.00    +0.033 A 
ATOM     24  C   UNL     1      -1.463   1.784   9.698  0.00  0.00    +0.091 A 
ATOM     25  C   UNL     1      -1.651   0.830  10.727  0.00  0.00    +0.254 A 
ATOM     26  O   UNL     1      -0.807   0.687  11.593  0.00  0.00    -0.268 OA
ATOM     27  N   UNL     1      -2.773   0.082  10.739  0.00  0.00    -0.275 N 
ATOM     28  H   UNL     1      -2.913  -0.594  11.462  0.00  0.00    +0.173 HD
ATOM     29  C   UNL     1      -3.705   0.242   9.781  0.00  0.00    +0.327 A 
ATOM     30  O   UNL     1      -4.711  -0.440   9.805  0.00  0.00    -0.247 OA
ATOM     31  N   UNL     1      -3.541   1.149   8.801  0.00  0.00    -0.311 N 
ATOM     32  H   UNL     1      -4.249   1.258   8.103  0.00  0.00    +0.170 HD
ENDBRANCH  22  23
ENDBRANCH   4  22
TORSDOF 6
