REMARK  Name = ZINC64050310
REMARK  9 active torsions:
REMARK  status: ('A' for Active; 'I' for Inactive)
REMARK    1  A    between atoms: C_1  and  O_2
REMARK    2  A    between atoms: O_2  and  C_3
REMARK    3  A    between atoms: C_3  and  C_4
REMARK    4  A    between atoms: C_4  and  N_5
REMARK    5  A    between atoms: C_9  and  N_10
REMARK    6  A    between atoms: N_10  and  C_11
REMARK    7  A    between atoms: C_11  and  C_12
REMARK    8  A    between atoms: C_12  and  C_14
REMARK    9  A    between atoms: C_12  and  C_21
REMARK                            x       y       z     vdW  Elec       q    Type
REMARK                         _______ _______ _______ _____ _____    ______ ____
ROOT
ATOM      1  C   UNL     1      -0.945  -3.292  -5.231  0.00  0.00    +0.113 C 
ENDROOT
BRANCH   1   2
ATOM      2  N   UNL     1      -0.325  -3.042  -3.928  0.00  0.00    -0.348 N 
ATOM      3  H   UNL     1      -0.871  -2.759  -3.178  0.00  0.00    +0.146 HD
BRANCH   2   8
ATOM      4  N   UNL     1       1.517  -1.846  -0.377  0.00  0.00    -0.247 N 
ATOM      5  C   UNL     1       0.865  -2.151  -1.517  0.00  0.00    +0.258 C 
ATOM      6  O   UNL     1      -0.304  -1.848  -1.668  0.00  0.00    -0.269 OA
ATOM      7  C   UNL     1       1.606  -2.860  -2.575  0.00  0.00    +0.113 C 
ATOM      8  C   UNL     1       1.004  -3.205  -3.771  0.00  0.00    +0.085 C 
ATOM      9  C   UNL     1       3.018  -3.185  -2.303  0.00  0.00    +0.256 C 
ATOM     10  O   UNL     1       3.695  -3.769  -3.128  0.00  0.00    -0.270 OA
ATOM     11  N   UNL     1       3.539  -2.817  -1.115  0.00  0.00    -0.263 N 
ATOM     12  C   UNL     1       2.806  -2.168  -0.199  0.00  0.00    +0.146 C 
ATOM     13  S   UNL     1       3.554  -1.735   1.279  0.00  0.00    -0.018 S 
ATOM     14  H   UNL     1       4.467  -3.023  -0.920  0.00  0.00    +0.157 HD
BRANCH   4  15
ATOM     15  C   UNL     1       0.802  -1.140   0.690  0.00  0.00    +0.143 C 
BRANCH  15  16
ATOM     16  C   UNL     1       0.949   0.369   0.490  0.00  0.00    +0.179 C 
BRANCH  16  18
ATOM     17  C   UNL     1       0.374   2.154  -1.004  0.00  0.00    +0.194 C 
ATOM     18  O   UNL     1       0.296   0.755  -0.721  0.00  0.00    -0.381 OA
ENDBRANCH  16  18
ENDBRANCH  15  16
ENDBRANCH   4  15
ENDBRANCH   2   8
ENDBRANCH   1   2
BRANCH   1  19
ATOM     19  C   UNL     1      -2.450  -3.036  -5.138  0.00  0.00    +0.066 C 
BRANCH  19  20
ATOM     20  C   UNL     1      -3.069  -3.173  -6.505  0.00  0.00    -0.033 C 
ATOM     21  C   UNL     1      -3.738  -2.221  -7.195  0.00  0.00    -0.000 A 
ATOM     22  C   UNL     1      -4.078  -0.827  -6.889  0.00  0.00    +0.010 A 
ATOM     23  C   UNL     1      -4.774  -0.107  -7.799  0.00  0.00    +0.001 A 
ATOM     24  C   UNL     1      -5.178  -0.658  -9.022  0.00  0.00    +0.002 A 
ATOM     25  C   UNL     1      -4.903  -1.932  -9.374  0.00  0.00    +0.026 A 
ATOM     26  C   UNL     1      -4.176  -2.780  -8.494  0.00  0.00    +0.043 A 
ATOM     27  N   UNL     1      -3.792  -4.029  -8.604  0.00  0.00    -0.380 N 
ATOM     28  C   UNL     1      -3.062  -4.402  -7.387  0.00  0.00    +0.145 C 
ATOM     29  H   UNL     1      -3.960  -4.608  -9.363  0.00  0.00    +0.160 HD
ENDBRANCH  19  20
BRANCH  19  30
ATOM     30  C   UNL     1      -3.074  -4.038  -4.201  0.00  0.00    -0.020 A 
ATOM     31  C   UNL     1      -2.977  -5.390  -4.472  0.00  0.00    +0.006 A 
ATOM     32  C   UNL     1      -3.549  -6.310  -3.613  0.00  0.00    +0.000 A 
ATOM     33  C   UNL     1      -4.218  -5.878  -2.482  0.00  0.00    +0.001 A 
ATOM     34  C   UNL     1      -4.315  -4.527  -2.211  0.00  0.00    +0.020 A 
ATOM     35  C   UNL     1      -3.738  -3.606  -3.068  0.00  0.00    +0.045 A 
ATOM     36 CL   UNL     1      -3.854  -1.908  -2.724  0.00  0.00    -0.083 Cl
ENDBRANCH  19  30
ENDBRANCH   1  19
TORSDOF 8
