REMARK  Name = ZINC00647870
REMARK  16 active torsions:
REMARK  status: ('A' for Active; 'I' for Inactive)
REMARK    1  A    between atoms: C_1  and  C_2
REMARK    2  A    between atoms: C_3  and  C_35
REMARK    3  A    between atoms: C_4  and  C_25
REMARK    4  A    between atoms: C_10  and  C_15
REMARK    5  A    between atoms: C_18  and  O_23
REMARK    6  A    between atoms: C_19  and  O_21
REMARK    7  A    between atoms: O_21  and  C_22
REMARK    8  A    between atoms: O_23  and  C_24
REMARK    9  A    between atoms: C_30  and  O_31
REMARK   10  A    between atoms: O_31  and  C_32
REMARK   11  A    between atoms: C_32  and  C_33
REMARK   12  A    between atoms: C_32  and  C_34
REMARK   13  A    between atoms: C_35  and  O_37
REMARK   14  A    between atoms: O_37  and  C_38
REMARK   15  A    between atoms: C_38  and  C_39
REMARK   16  A    between atoms: C_38  and  C_40
REMARK                            x       y       z     vdW  Elec       q    Type
REMARK                         _______ _______ _______ _____ _____    ______ ____
ROOT
ATOM      1  C   UNL     1       4.292   0.692  -2.392  0.00  0.00    +0.061 C 
ATOM      2  C   UNL     1       3.915   1.678  -1.317  0.00  0.00    +0.016 C 
ATOM      3  C   UNL     1       3.047   2.667  -1.593  0.00  0.00    +0.065 C 
ATOM      4  C   UNL     1       2.644   3.663  -0.546  0.00  0.00    +0.096 C 
ATOM      5  C   UNL     1       3.619   3.662   0.605  0.00  0.00    +0.024 C 
ATOM      6  C   UNL     1       4.463   2.627   0.793  0.00  0.00    +0.016 C 
ATOM      7  N   UNL     1       4.459   1.562  -0.068  0.00  0.00    -0.321 N 
ATOM      8  C   UNL     1       5.427   2.610   1.953  0.00  0.00    +0.059 C 
ATOM      9  C   UNL     1       5.838   4.043   2.299  0.00  0.00    +0.032 C 
ATOM     10  C   UNL     1       4.576   4.844   2.635  0.00  0.00    +0.088 C 
ATOM     11  C   UNL     1       3.625   4.770   1.472  0.00  0.00    +0.162 C 
ATOM     12  O   UNL     1       2.847   5.683   1.279  0.00  0.00    -0.292 OA
ATOM     13  H   UNL     1       4.899   0.607   0.253  0.00  0.00    +0.152 HD
ENDROOT
BRANCH   9  14
ATOM     14  C   UNL     1       6.766   4.031   3.487  0.00  0.00    -0.040 A 
ATOM     15  C   UNL     1       6.336   3.507   4.692  0.00  0.00    +0.008 A 
ATOM     16  C   UNL     1       7.184   3.494   5.785  0.00  0.00    +0.049 A 
ATOM     17  C   UNL     1       8.467   4.005   5.673  0.00  0.00    +0.161 A 
ATOM     18  C   UNL     1       8.899   4.531   4.459  0.00  0.00    +0.162 A 
ATOM     19  C   UNL     1       8.047   4.537   3.367  0.00  0.00    +0.053 A 
BRANCH  18  20
ATOM     20  O   UNL     1      10.158   5.034   4.344  0.00  0.00    -0.491 OA
ATOM     21  C   UNL     1      10.533   5.557   3.069  0.00  0.00    +0.277 C 
ENDBRANCH  18  20
BRANCH  17  22
ATOM     22  O   UNL     1       9.301   3.993   6.746  0.00  0.00    -0.491 OA
ATOM     23  C   UNL     1       8.789   3.438   7.960  0.00  0.00    +0.277 C 
ENDBRANCH  17  22
ENDBRANCH   9  14
BRANCH   4  24
ATOM     24  C   UNL     1       1.271   3.313  -0.032  0.00  0.00    +0.006 A 
ATOM     25  C   UNL     1       1.046   2.084   0.558  0.00  0.00    +0.008 A 
ATOM     26  C   UNL     1      -0.213   1.763   1.030  0.00  0.00    +0.001 A 
ATOM     27  C   UNL     1      -1.251   2.668   0.908  0.00  0.00    +0.004 A 
ATOM     28  C   UNL     1      -1.030   3.900   0.324  0.00  0.00    +0.046 A 
ATOM     29  C   UNL     1       0.233   4.225  -0.150  0.00  0.00    +0.125 A 
BRANCH  29  30
ATOM     30  O   UNL     1       0.451   5.435  -0.730  0.00  0.00    -0.489 OA
BRANCH  30  31
ATOM     31  C   UNL     1      -0.685   6.282  -0.911  0.00  0.00    +0.167 C 
ATOM     32  C   UNL     1      -0.936   7.079   0.371  0.00  0.00    +0.051 C 
ATOM     33  C   UNL     1      -0.422   7.248  -2.068  0.00  0.00    +0.051 C 
ENDBRANCH  30  31
ENDBRANCH  29  30
ENDBRANCH   4  24
BRANCH   3  34
ATOM     34  C   UNL     1       2.504   2.770  -2.895  0.00  0.00    +0.338 C 
ATOM     35  O   UNL     1       2.955   3.583  -3.680  0.00  0.00    -0.245 OA
BRANCH  34  36
ATOM     36  O   UNL     1       1.484   1.968  -3.266  0.00  0.00    -0.459 OA
BRANCH  36  37
ATOM     37  C   UNL     1       1.052   2.055  -4.625  0.00  0.00    +0.171 C 
ATOM     38  C   UNL     1       0.429   0.723  -5.048  0.00  0.00    +0.052 C 
ATOM     39  C   UNL     1       0.014   3.170  -4.760  0.00  0.00    +0.052 C 
ENDBRANCH  36  37
ENDBRANCH  34  36
ENDBRANCH   3  34
TORSDOF 9
