REMARK  Name = ZINC36484452
REMARK  11 active torsions:
REMARK  status: ('A' for Active; 'I' for Inactive)
REMARK    1  A    between atoms: C_1  and  C_2
REMARK    2  A    between atoms: C_2  and  C_3
REMARK    3  A    between atoms: C_2  and  C_4
REMARK    4  A    between atoms: C_2  and  N_5
REMARK    5  A    between atoms: C_6  and  C_8
REMARK    6  A    between atoms: C_8  and  C_10
REMARK    7  A    between atoms: C_8  and  N_17
REMARK    8  A    between atoms: C_15  and  O_16
REMARK    9  A    between atoms: N_17  and  C_18
REMARK   10  A    between atoms: C_25  and  C_27
REMARK   11  A    between atoms: C_28  and  C_29
REMARK                            x       y       z     vdW  Elec       q    Type
REMARK                         _______ _______ _______ _____ _____    ______ ____
ROOT
ATOM      1  N   UNL     1       3.958  -0.321  -2.743  0.00  0.00    -0.245 N 
ATOM      2  C   UNL     1       4.981  -1.190  -2.868  0.00  0.00    +0.297 C 
ATOM      3  O   UNL     1       4.804  -2.373  -2.645  0.00  0.00    -0.260 OA
ENDROOT
BRANCH   1   4
ATOM      4  C   UNL     1       4.137   1.023  -3.087  0.00  0.00    +0.040 A 
ATOM      5  C   UNL     1       4.927   1.845  -2.293  0.00  0.00    +0.023 A 
ATOM      6  C   UNL     1       5.101   3.172  -2.635  0.00  0.00    +0.003 A 
ATOM      7  C   UNL     1       4.491   3.682  -3.766  0.00  0.00    +0.020 A 
ATOM      8  C   UNL     1       3.704   2.866  -4.559  0.00  0.00    +0.043 A 
ATOM      9  C   UNL     1       3.530   1.536  -4.225  0.00  0.00    +0.043 A 
ATOM     10 CL   UNL     1       2.939   3.511  -5.978  0.00  0.00    -0.083 Cl
ENDBRANCH   1   4
BRANCH   2  11
ATOM     11  C   UNL     1       6.274  -0.722  -3.265  0.00  0.00    -0.002 C 
ATOM     12  C   UNL     1       7.335  -0.338  -3.590  0.00  0.00    -0.057 C 
BRANCH  12  13
ATOM     13  C   UNL     1       8.629   0.131  -3.987  0.00  0.00    +0.025 A 
ATOM     14  C   UNL     1       8.837   1.491  -4.239  0.00  0.00    +0.017 A 
ATOM     15  C   UNL     1      10.085   1.934  -4.621  0.00  0.00    +0.001 A 
ATOM     16  C   UNL     1      11.131   1.037  -4.755  0.00  0.00    +0.000 A 
ATOM     17  C   UNL     1      10.933  -0.310  -4.507  0.00  0.00    +0.001 A 
ATOM     18  C   UNL     1       9.692  -0.768  -4.118  0.00  0.00    +0.017 A 
ENDBRANCH  12  13
ENDBRANCH   2  11
BRANCH   1  19
ATOM     19  C   UNL     1       2.660  -0.783  -2.246  0.00  0.00    +0.202 C 
BRANCH  19  20
ATOM     20  C   UNL     1       1.589  -0.449  -3.252  0.00  0.00    +0.024 A 
ATOM     21  C   UNL     1       0.741   0.620  -3.029  0.00  0.00    +0.009 A 
ATOM     22  C   UNL     1      -0.242   0.927  -3.951  0.00  0.00    +0.001 A 
ATOM     23  C   UNL     1      -0.379   0.167  -5.098  0.00  0.00    +0.004 A 
ATOM     24  C   UNL     1       0.466  -0.901  -5.325  0.00  0.00    +0.046 A 
ATOM     25  C   UNL     1       1.457  -1.209  -4.404  0.00  0.00    +0.122 A 
BRANCH  25  26
ATOM     26  O   UNL     1       2.293  -2.256  -4.628  0.00  0.00    -0.506 OA
ATOM     27  H   UNL     1       1.940  -3.110  -4.342  0.00  0.00    +0.292 HD
ENDBRANCH  25  26
ENDBRANCH  19  20
BRANCH  19  29
ATOM     28  N   UNL     1       1.312  -0.521  -0.189  0.00  0.00    -0.309 N 
ATOM     29  C   UNL     1       2.351  -0.102  -0.937  0.00  0.00    +0.239 C 
ATOM     30  O   UNL     1       3.038   0.822  -0.558  0.00  0.00    -0.273 OA
ATOM     31  H   UNL     1       0.720  -1.212  -0.524  0.00  0.00    +0.149 HD
BRANCH  28  33
ATOM     32  C   UNL     1       0.844   1.573   0.986  0.00  0.00    +0.031 C 
ATOM     33  C   UNL     1       1.077   0.067   1.132  0.00  0.00    +0.026 C 
ATOM     34  C   UNL     1       2.296  -0.176   2.024  0.00  0.00    +0.031 C 
ATOM     35  C   UNL     1      -0.156  -0.580   1.766  0.00  0.00    +0.031 C 
ENDBRANCH  28  33
ENDBRANCH  19  29
ENDBRANCH   1  19
TORSDOF 8
