REMARK  Name = ZINC63686619
REMARK  8 active torsions:
REMARK  status: ('A' for Active; 'I' for Inactive)
REMARK    1  A    between atoms: C_1  and  C_2
REMARK    2  A    between atoms: C_5  and  O_8
REMARK    3  A    between atoms: O_8  and  C_9
REMARK    4  A    between atoms: C_9  and  C_10
REMARK    5  A    between atoms: C_14  and  S_18
REMARK    6  A    between atoms: N_16  and  C_17
REMARK    7  A    between atoms: S_18  and  C_19
REMARK    8  A    between atoms: C_19  and  C_20
REMARK                            x       y       z     vdW  Elec       q    Type
REMARK                         _______ _______ _______ _____ _____    ______ ____
ROOT
ATOM      1  C   UNL     1       0.090  -6.300   1.040  0.00  0.00    +0.178 C 
ATOM      2  N   UNL     1      -1.087  -6.717   0.244  0.00  0.00    -0.234 NA
ATOM      3  N   UNL     1      -0.591  -6.782  -1.139  0.00  0.00    -0.229 NA
ATOM      4  C   UNL     1       0.783  -7.327  -0.979  0.00  0.00    +0.200 C 
ATOM      5  N   UNL     1       1.285  -6.690   0.262  0.00  0.00    -0.261 NA
ATOM      6  C   UNL     1       2.131  -7.617   1.026  0.00  0.00    +0.109 C 
ATOM      7  H   UNL     1      -1.428  -7.617   0.548  0.00  0.00    +0.142 HD
ATOM      8  H   UNL     1      -1.161  -7.397  -1.700  0.00  0.00    +0.143 HD
ENDROOT
BRANCH   1   9
ATOM      9  C   UNL     1       0.072  -4.785   1.249  0.00  0.00    +0.265 C 
BRANCH   9  10
ATOM     10  O   UNL     1       0.057  -4.129  -0.021  0.00  0.00    -0.489 OA
BRANCH  10  15
ATOM     11  C   UNL     1      -0.018   1.503   0.010  0.00  0.00    +0.044 C 
ATOM     12  C   UNL     1       0.002  -0.004   0.002  0.00  0.00    -0.050 A 
ATOM     13  C   UNL     1       0.006  -0.688  -1.200  0.00  0.00    +0.007 A 
ATOM     14  C   UNL     1       0.024  -2.069  -1.210  0.00  0.00    +0.046 A 
ATOM     15  C   UNL     1       0.039  -2.770  -0.013  0.00  0.00    +0.121 A 
ATOM     16  C   UNL     1       0.036  -2.082   1.191  0.00  0.00    +0.046 A 
ATOM     17  C   UNL     1       0.023  -0.701   1.196  0.00  0.00    +0.007 A 
ENDBRANCH  10  15
ENDBRANCH   9  10
ENDBRANCH   1   9
BRANCH   4  18
ATOM     18  S   UNL     1       1.818  -6.867  -2.395  0.00  0.00    -0.119 S 
BRANCH  18  19
ATOM     19  C   UNL     1       1.774  -5.053  -2.401  0.00  0.00    +0.125 C 
BRANCH  19  20
ATOM     20  C   UNL     1       2.606  -4.534  -3.546  0.00  0.00    +0.030 A 
ATOM     21  N   UNL     1       3.956  -4.578  -3.442  0.00  0.00    -0.356 N 
ATOM     22  C   UNL     1       4.773  -4.119  -4.451  0.00  0.00    +0.069 A 
ATOM     23  C   UNL     1       4.199  -3.591  -5.621  0.00  0.00    +0.046 A 
ATOM     24  C   UNL     1       5.016  -3.123  -6.650  0.00  0.00    +0.014 A 
ATOM     25  C   UNL     1       6.375  -3.179  -6.515  0.00  0.00    +0.002 A 
ATOM     26  C   UNL     1       6.949  -3.700  -5.363  0.00  0.00    +0.022 A 
ATOM     27  C   UNL     1       6.160  -4.168  -4.334  0.00  0.00    +0.065 A 
ATOM     28 CL   UNL     1       6.891  -4.815  -2.899  0.00  0.00    -0.081 Cl
ATOM     29  C   UNL     1       2.730  -3.549  -5.725  0.00  0.00    +0.190 A 
ATOM     30  O   UNL     1       2.181  -3.100  -6.718  0.00  0.00    -0.287 OA
ATOM     31  C   UNL     1       1.977  -4.048  -4.636  0.00  0.00    +0.073 A 
ATOM     32  H   UNL     1       4.357  -4.941  -2.637  0.00  0.00    +0.166 HD
ENDBRANCH  19  20
ENDBRANCH  18  19
ENDBRANCH   4  18
TORSDOF 6
