REMARK  Name = ZINC35746856
REMARK  18 active torsions:
REMARK  status: ('A' for Active; 'I' for Inactive)
REMARK    1  A    between atoms: C_1  and  C_2
REMARK    2  A    between atoms: C_8  and  C_19
REMARK    3  A    between atoms: C_12  and  C_13
REMARK    4  A    between atoms: C_13  and  O_15
REMARK    5  A    between atoms: O_15  and  C_16
REMARK    6  A    between atoms: C_16  and  C_17
REMARK    7  A    between atoms: C_16  and  C_18
REMARK    8  A    between atoms: C_19  and  N_20
REMARK    9  A    between atoms: N_20  and  C_21
REMARK   10  A    between atoms: N_20  and  C_26
REMARK   11  A    between atoms: C_21  and  C_22
REMARK   12  A    between atoms: C_22  and  C_23
REMARK   13  A    between atoms: C_23  and  O_24
REMARK   14  A    between atoms: O_24  and  C_25
REMARK   15  A    between atoms: C_26  and  C_27
REMARK   16  A    between atoms: C_27  and  C_28
REMARK   17  A    between atoms: C_27  and  C_29
REMARK   18  A    between atoms: C_27  and  O_31
REMARK                            x       y       z     vdW  Elec       q    Type
REMARK                         _______ _______ _______ _____ _____    ______ ____
ROOT
ATOM      1  C   UNL     1       1.936   2.361  -2.048  0.00  0.00    +0.046 C 
ATOM      2  C   UNL     1       1.458   0.992  -1.638  0.00  0.00    -0.015 A 
ATOM      3  C   UNL     1       1.327  -0.018  -2.593  0.00  0.00    +0.076 A 
ATOM      4  C   UNL     1       1.597   0.030  -4.049  0.00  0.00    +0.260 A 
ATOM      5  O   UNL     1       1.994   1.053  -4.577  0.00  0.00    -0.267 OA
ATOM      6  N   UNL     1       1.393  -1.088  -4.772  0.00  0.00    -0.312 N 
ATOM      7  H   UNL     1       1.566  -1.074  -5.727  0.00  0.00    +0.170 HD
ATOM      8  C   UNL     1       0.953  -2.233  -4.194  0.00  0.00    +0.094 A 
ATOM      9  N   UNL     1       0.705  -2.309  -2.915  0.00  0.00    -0.229 NA
ATOM     10  C   UNL     1       0.872  -1.267  -2.111  0.00  0.00    +0.116 A 
ATOM     11  S   UNL     1       0.652  -0.977  -0.373  0.00  0.00    -0.062 S 
ATOM     12  C   UNL     1       1.159   0.734  -0.332  0.00  0.00    +0.102 A 
ENDROOT
BRANCH  12  13
ATOM     13  C   UNL     1       1.231   1.638   0.818  0.00  0.00    +0.346 C 
ATOM     14  O   UNL     1       1.599   2.787   0.666  0.00  0.00    -0.244 OA
BRANCH  13  15
ATOM     15  O   UNL     1       0.890   1.196   2.046  0.00  0.00    -0.458 OA
BRANCH  15  16
ATOM     16  C   UNL     1       0.985   2.131   3.122  0.00  0.00    +0.171 C 
ATOM     17  C   UNL     1      -0.060   1.792   4.187  0.00  0.00    +0.052 C 
ATOM     18  C   UNL     1       2.383   2.059   3.739  0.00  0.00    +0.052 C 
ENDBRANCH  15  16
ENDBRANCH  13  15
ENDBRANCH  12  13
BRANCH   8  19
ATOM     19  C   UNL     1       0.742  -3.453  -5.054  0.00  0.00    -0.003 C 
BRANCH  19  20
ATOM     20  N   UNL     1       0.405  -4.600  -4.201  0.00  0.00    +0.386 N 
ATOM     21  H   UNL     1      -0.378  -4.363  -3.611  0.00  0.00    -0.081 HD
BRANCH  20  22
ATOM     22  C   UNL     1       0.052  -5.750  -5.045  0.00  0.00    -0.076 C 
BRANCH  22  23
ATOM     23  C   UNL     1      -0.409  -6.909  -4.159  0.00  0.00    +0.009 C 
BRANCH  23  24
ATOM     24  C   UNL     1      -0.777  -8.107  -5.038  0.00  0.00    +0.157 C 
BRANCH  24  25
ATOM     25  O   UNL     1      -1.208  -9.190  -4.211  0.00  0.00    -0.383 OA
ATOM     26  C   UNL     1      -1.577 -10.364  -4.937  0.00  0.00    +0.193 C 
ENDBRANCH  24  25
ENDBRANCH  23  24
ENDBRANCH  22  23
ENDBRANCH  20  22
BRANCH  20  27
ATOM     27  C   UNL     1       1.562  -4.944  -3.364  0.00  0.00    -0.039 C 
BRANCH  27  28
ATOM     28  C   UNL     1       2.843  -4.833  -4.192  0.00  0.00    +0.067 C 
ATOM     29  C   UNL     1       2.684  -5.633  -5.487  0.00  0.00    +0.044 C 
BRANCH  28  30
ATOM     30  C   UNL     1       4.002  -5.383  -3.402  0.00  0.00    -0.003 C 
ATOM     31  C   UNL     1       5.022  -4.612  -3.113  0.00  0.00    +0.006 C 
ENDBRANCH  28  30
BRANCH  28  32
ATOM     32  O   UNL     1       3.089  -3.461  -4.508  0.00  0.00    -0.387 OA
ATOM     33  H   UNL     1       3.200  -2.893  -3.733  0.00  0.00    +0.210 HD
ENDBRANCH  28  32
ENDBRANCH  27  28
ENDBRANCH  20  27
ENDBRANCH  19  20
ENDBRANCH   8  19
TORSDOF 13
