REMARK  Name = ZINC39595901
REMARK  7 active torsions:
REMARK  status: ('A' for Active; 'I' for Inactive)
REMARK    1  A    between atoms: C_1  and  C_2
REMARK    2  A    between atoms: C_2  and  C_4
REMARK    3  A    between atoms: C_2  and  O_28
REMARK    4  A    between atoms: C_4  and  N_5
REMARK    5  A    between atoms: C_6  and  C_8
REMARK    6  A    between atoms: C_19  and  C_21
REMARK    7  A    between atoms: O_28  and  C_29
REMARK                            x       y       z     vdW  Elec       q    Type
REMARK                         _______ _______ _______ _____ _____    ______ ____
ROOT
ATOM      1  C   UNL     1      -3.363  -3.107   0.553  0.00  0.00    +0.100 C 
ATOM      2  C   UNL     1      -2.659  -3.719  -0.680  0.00  0.00    +0.121 C 
ATOM      3  N   UNL     1      -3.549  -4.824  -1.108  0.00  0.00    -0.296 N 
ATOM      4  C   UNL     1      -4.918  -4.288  -0.924  0.00  0.00    +0.115 C 
ATOM      5  C   UNL     1      -4.845  -3.482   0.388  0.00  0.00    -0.004 C 
ATOM      6  C   UNL     1      -5.700  -2.223   0.282  0.00  0.00    -0.010 C 
ATOM      7  C   UNL     1      -7.175  -2.620   0.178  0.00  0.00    -0.082 C 
ATOM      8  N   UNL     1      -7.559  -3.399   1.362  0.00  0.00    +0.379 N 
ATOM      9  C   UNL     1      -6.798  -4.653   1.405  0.00  0.00    -0.082 C 
ATOM     10  C   UNL     1      -5.307  -4.341   1.562  0.00  0.00    -0.010 C 
ATOM     11  C   UNL     1      -3.192  -6.042  -1.562  0.00  0.00    +0.247 C 
ATOM     12  O   UNL     1      -2.024  -6.376  -1.553  0.00  0.00    -0.270 OA
ATOM     13  H   UNL     1      -7.367  -2.861   2.193  0.00  0.00    -0.086 HD
ATOM     14  H   UNL     1      -8.546  -3.607   1.320  0.00  0.00    -0.086 HD
ENDROOT
BRANCH  11  15
ATOM     15  C   UNL     1      -4.223  -6.973  -2.069  0.00  0.00    +0.038 A 
ATOM     16  C   UNL     1      -5.444  -6.480  -2.534  0.00  0.00    +0.013 A 
ATOM     17  C   UNL     1      -6.402  -7.353  -3.007  0.00  0.00    +0.002 A 
ATOM     18  C   UNL     1      -6.155  -8.714  -3.022  0.00  0.00    +0.020 A 
ATOM     19  C   UNL     1      -4.946  -9.210  -2.563  0.00  0.00    +0.042 A 
ATOM     20  C   UNL     1      -3.977  -8.346  -2.092  0.00  0.00    +0.033 A 
ATOM     21 CL   UNL     1      -4.646 -10.919  -2.587  0.00  0.00    -0.084 Cl
ENDBRANCH  11  15
BRANCH   1  23
ATOM     22  N   UNL     1      -3.160  -0.943   1.732  0.00  0.00    -0.312 N 
ATOM     23  C   UNL     1      -3.198  -1.609   0.562  0.00  0.00    +0.218 C 
ATOM     24  O   UNL     1      -3.101  -1.004  -0.485  0.00  0.00    -0.275 OA
ATOM     25  H   UNL     1      -3.238  -1.427   2.569  0.00  0.00    +0.149 HD
BRANCH  22  26
ATOM     26  C   UNL     1      -3.000   0.514   1.741  0.00  0.00    +0.148 C 
BRANCH  26  28
ATOM     27  C   UNL     1      -2.820   2.538   3.194  0.00  0.00    +0.053 C 
ATOM     28  C   UNL     1      -2.987   1.017   3.185  0.00  0.00    +0.187 C 
BRANCH  28  29
ATOM     29  O   UNL     1      -4.219   0.669   3.821  0.00  0.00    -0.488 OA
BRANCH  29  30
ATOM     30  C   UNL     1      -4.169   0.388   5.151  0.00  0.00    +0.121 A 
ATOM     31  C   UNL     1      -5.296  -0.092   5.801  0.00  0.00    +0.048 A 
ATOM     32  C   UNL     1      -5.244  -0.377   7.152  0.00  0.00    +0.042 A 
ATOM     33  C   UNL     1      -4.068  -0.183   7.856  0.00  0.00    +0.124 A 
ATOM     34  C   UNL     1      -2.942   0.296   7.208  0.00  0.00    +0.042 A 
ATOM     35  C   UNL     1      -2.990   0.576   5.856  0.00  0.00    +0.048 A 
ATOM     36  F   UNL     1      -4.019  -0.462   9.177  0.00  0.00    -0.205 F 
ENDBRANCH  29  30
ENDBRANCH  28  29
ENDBRANCH  26  28
ENDBRANCH  22  26
ENDBRANCH   1  23
TORSDOF 6
