REMARK  Name = ZINC33863526
REMARK  5 active torsions:
REMARK  status: ('A' for Active; 'I' for Inactive)
REMARK    1  A    between atoms: C_1  and  C_2
REMARK    2  A    between atoms: C_2  and  C_4
REMARK    3  A    between atoms: C_2  and  N_7
REMARK    4  A    between atoms: C_8  and  C_21
REMARK    5  A    between atoms: N_17  and  C_20
REMARK                            x       y       z     vdW  Elec       q    Type
REMARK                         _______ _______ _______ _____ _____    ______ ____
ROOT
ATOM      1  N   UNL     1      -1.296  -0.684  -0.014  0.00  0.00    -0.167 NA
ATOM      2  C   UNL     1      -1.147  -2.098   0.454  0.00  0.00    +0.131 C 
ATOM      3  C   UNL     1      -1.838  -2.908  -0.634  0.00  0.00    +0.139 C 
ATOM      4  C   UNL     1      -2.926  -1.845  -1.045  0.00  0.00    +0.241 C 
ATOM      5  O   UNL     1      -2.181  -0.708  -1.220  0.00  0.00    -0.282 OA
ATOM      6  C   UNL     1      -3.874  -2.675  -1.766  0.00  0.00    +0.253 C 
ATOM      7  O   UNL     1      -4.553  -2.359  -2.719  0.00  0.00    -0.272 OA
ATOM      8  N   UNL     1      -3.839  -3.893  -1.138  0.00  0.00    -0.243 N 
ATOM      9  C   UNL     1      -2.766  -4.029  -0.286  0.00  0.00    +0.230 C 
ATOM     10  O   UNL     1      -2.604  -4.872   0.570  0.00  0.00    -0.275 OA
ATOM     11  C   UNL     1      -4.832  -4.947  -1.358  0.00  0.00    +0.141 C 
ENDROOT
BRANCH   2  12
ATOM     12  C   UNL     1       0.309  -2.473   0.555  0.00  0.00    -0.012 A 
ATOM     13  C   UNL     1       1.206  -1.629   1.208  0.00  0.00    -0.011 A 
ATOM     14  C   UNL     1       0.776  -0.414   1.785  0.00  0.00    +0.009 A 
ATOM     15  C   UNL     1       1.676   0.384   2.414  0.00  0.00    +0.001 A 
ATOM     16  C   UNL     1       3.025   0.037   2.508  0.00  0.00    +0.001 A 
ATOM     17  C   UNL     1       3.504  -1.116   1.975  0.00  0.00    +0.010 A 
ATOM     18  C   UNL     1       2.623  -1.994   1.308  0.00  0.00    +0.001 A 
ATOM     19  C   UNL     1       3.082  -3.187   0.749  0.00  0.00    +0.056 A 
ATOM     20  C   UNL     1       2.183  -4.030   0.095  0.00  0.00    +0.001 A 
ATOM     21  C   UNL     1       0.765  -3.668   0.002  0.00  0.00    -0.011 A 
ATOM     22  C   UNL     1      -0.117  -4.548  -0.661  0.00  0.00    +0.009 A 
ATOM     23  C   UNL     1       0.360  -5.704  -1.188  0.00  0.00    +0.001 A 
ATOM     24  C   UNL     1       1.708  -6.052  -1.093  0.00  0.00    +0.001 A 
ATOM     25  C   UNL     1       2.612  -5.244  -0.482  0.00  0.00    +0.010 A 
ATOM     26 CL   UNL     1       4.759  -3.618   0.866  0.00  0.00    -0.082 Cl
ENDBRANCH   2  12
BRANCH   1  28
ATOM     27  C   UNL     1       0.085   1.322   0.242  0.00  0.00    +0.036 C 
ATOM     28  C   UNL     1       0.011  -0.095  -0.332  0.00  0.00    +0.167 C 
BRANCH  28  29
ATOM     29  C   UNL     1       0.188  -0.041  -1.827  0.00  0.00    +0.230 C 
ATOM     30  O   UNL     1      -0.694  -0.442  -2.557  0.00  0.00    -0.274 OA
ATOM     31  N   UNL     1       1.326   0.453  -2.354  0.00  0.00    -0.328 N 
ATOM     32  H   UNL     1       2.057   0.712  -1.772  0.00  0.00    +0.145 HD
ATOM     33  H   UNL     1       1.413   0.550  -3.316  0.00  0.00    +0.145 HD
ENDBRANCH  28  29
ENDBRANCH   1  28
TORSDOF 3
