REMARK  Name = ZINC58846220
REMARK  6 active torsions:
REMARK  status: ('A' for Active; 'I' for Inactive)
REMARK    1  A    between atoms: C_1  and  C_2
REMARK    2  A    between atoms: C_5  and  N_9
REMARK    3  A    between atoms: C_6  and  C_8
REMARK    4  A    between atoms: N_9  and  S_10
REMARK    5  A    between atoms: S_10  and  C_13
REMARK    6  A    between atoms: C_26  and  C_29
REMARK                            x       y       z     vdW  Elec       q    Type
REMARK                         _______ _______ _______ _____ _____    ______ ____
ROOT
ATOM      1  C   UNL     1       2.517  -4.719  -1.127  0.00  0.00    +0.109 A 
ATOM      2  C   UNL     1       3.106  -3.635  -1.754  0.00  0.00    +0.030 A 
ATOM      3  C   UNL     1       4.467  -3.438  -1.645  0.00  0.00    +0.025 A 
ATOM      4  C   UNL     1       5.244  -4.324  -0.906  0.00  0.00    +0.031 A 
ATOM      5  C   UNL     1       4.654  -5.403  -0.267  0.00  0.00    -0.018 A 
ATOM      6  C   UNL     1       3.284  -5.593  -0.386  0.00  0.00    +0.034 A 
ATOM      7  C   UNL     1       5.448  -6.352   0.566  0.00  0.00    +0.049 C 
ATOM      8  C   UNL     1       5.693  -7.660  -0.141  0.00  0.00    -0.023 C 
ATOM      9  C   UNL     1       6.883  -8.119   0.156  0.00  0.00    -0.030 C 
ATOM     10  C   UNL     1       7.605  -7.181   1.098  0.00  0.00    +0.033 C 
ATOM     11  C   UNL     1       6.837  -5.847   0.951  0.00  0.00    +0.029 C 
ATOM     12  C   UNL     1       7.511  -5.030  -0.132  0.00  0.00    +0.105 C 
ATOM     13  N   UNL     1       6.617  -4.123  -0.822  0.00  0.00    -0.336 N 
ATOM     14  H   UNL     1       6.997  -3.349  -1.266  0.00  0.00    +0.147 HD
ENDROOT
BRANCH  12  15
ATOM     15  C   UNL     1       8.139  -5.975  -1.123  0.00  0.00    -0.026 A 
ATOM     16  C   UNL     1       7.360  -6.572  -2.098  0.00  0.00    +0.005 A 
ATOM     17  C   UNL     1       7.936  -7.439  -3.007  0.00  0.00    +0.001 A 
ATOM     18  C   UNL     1       9.290  -7.710  -2.944  0.00  0.00    +0.015 A 
ATOM     19  C   UNL     1      10.069  -7.112  -1.970  0.00  0.00    +0.018 A 
ATOM     20  C   UNL     1       9.494  -6.240  -1.063  0.00  0.00    +0.020 A 
ATOM     21 BR   UNL     1      11.921  -7.482  -1.882  0.00  0.00    -0.050 Br
ENDBRANCH  12  15
BRANCH   1  22
ATOM     22  S   UNL     1       0.780  -4.979  -1.271  0.00  0.00    +0.072 S 
ATOM     23  O   UNL     1       0.556  -6.363  -1.040  0.00  0.00    -0.150 OA
ATOM     24  O   UNL     1       0.369  -4.331  -2.467  0.00  0.00    -0.150 OA
BRANCH  22  25
ATOM     25  N   UNL     1       0.058  -4.167  -0.021  0.00  0.00    -0.216 N 
ATOM     26  H   UNL     1      -0.470  -4.653   0.632  0.00  0.00    +0.174 HD
BRANCH  25  31
ATOM     27  C   UNL     1       0.671   1.451   0.442  0.00  0.00    +0.044 C 
ATOM     28  C   UNL     1       0.508  -0.042   0.319  0.00  0.00    -0.050 A 
ATOM     29  C   UNL     1       0.416  -0.625  -0.932  0.00  0.00    +0.005 A 
ATOM     30  C   UNL     1       0.267  -1.993  -1.048  0.00  0.00    +0.025 A 
ATOM     31  C   UNL     1       0.209  -2.784   0.093  0.00  0.00    +0.051 A 
ATOM     32  C   UNL     1       0.302  -2.194   1.347  0.00  0.00    -0.028 A 
ATOM     33  C   UNL     1       0.457  -0.826   1.456  0.00  0.00    +0.008 A 
ATOM     34  C   UNL     1       0.239  -3.048   2.588  0.00  0.00    +0.046 C 
ENDBRANCH  25  31
ENDBRANCH  22  25
ENDBRANCH   1  22
TORSDOF 4
