REMARK  Name = ZINC09312402
REMARK  2 active torsions:
REMARK  status: ('A' for Active; 'I' for Inactive)
REMARK    1  A    between atoms: C_6  and  C_7
REMARK    2  A    between atoms: C_7  and  N_8
REMARK                            x       y       z     vdW  Elec       q    Type
REMARK                         _______ _______ _______ _____ _____    ______ ____
ROOT
ATOM      1  N   UNL     1      -1.726  -1.017  -1.368  0.00  0.00    -0.256 N 
ATOM      2  C   UNL     1      -2.531  -0.104  -2.000  0.00  0.00    +0.261 A 
ATOM      3  O   UNL     1      -2.926   1.016  -1.357  0.00  0.00    -0.267 OA
ATOM      4  C   UNL     1      -2.930  -0.335  -3.283  0.00  0.00    +0.140 A 
ATOM      5  C   UNL     1      -2.504  -1.509  -3.930  0.00  0.00    +0.258 A 
ATOM      6  O   UNL     1      -2.848  -1.737  -5.077  0.00  0.00    -0.268 OA
ATOM      7  N   UNL     1      -1.713  -2.380  -3.273  0.00  0.00    -0.275 N 
ATOM      8  C   UNL     1      -1.326  -2.131  -2.008  0.00  0.00    +0.332 A 
ATOM      9  O   UNL     1      -0.608  -2.927  -1.434  0.00  0.00    -0.246 OA
ATOM     10  H   UNL     1      -1.418  -3.191  -3.716  0.00  0.00    +0.173 HD
ENDROOT
BRANCH   1  11
ATOM     11  C   UNL     1      -1.293  -0.775   0.010  0.00  0.00    +0.165 C 
BRANCH  11  17
ATOM     12  C   UNL     1      -0.017   1.378   0.010  0.00  0.00    +0.008 A 
ATOM     13  C   UNL     1       1.170   2.086   0.002  0.00  0.00    +0.038 A 
ATOM     14  C   UNL     1       2.379   1.410  -0.013  0.00  0.00    +0.123 A 
ATOM     15  C   UNL     1       2.396   0.026  -0.021  0.00  0.00    +0.038 A 
ATOM     16  C   UNL     1       1.208  -0.680  -0.013  0.00  0.00    +0.008 A 
ATOM     17  C   UNL     1       0.002  -0.004   0.002  0.00  0.00    -0.027 A 
ATOM     18  F   UNL     1       3.540   2.101  -0.021  0.00  0.00    -0.205 F 
ENDBRANCH  11  17
ENDBRANCH   1  11
TORSDOF 2
