REMARK  Name = ZINC49425545
REMARK  4 active torsions:
REMARK  status: ('A' for Active; 'I' for Inactive)
REMARK    1  A    between atoms: C_1  and  N_2
REMARK    2  A    between atoms: C_3  and  N_10
REMARK    3  A    between atoms: C_11  and  C_13
REMARK    4  A    between atoms: C_14  and  C_15
REMARK                            x       y       z     vdW  Elec       q    Type
REMARK                         _______ _______ _______ _____ _____    ______ ____
ROOT
ATOM      1  N   UNL     1      -0.216  -0.371  -2.414  0.00  0.00    -0.267 N 
ATOM      2  C   UNL     1       0.006  -1.232  -3.427  0.00  0.00    +0.242 C 
ATOM      3  O   UNL     1       0.230  -2.405  -3.190  0.00  0.00    -0.270 OA
ATOM      4  H   UNL     1      -0.460   0.549  -2.604  0.00  0.00    +0.157 HD
ENDROOT
BRANCH   1   7
ATOM      5  C   UNL     1       0.479   1.413  -0.046  0.00  0.00    +0.174 C 
ATOM      6  N   UNL     1       0.211  -0.028  -0.023  0.00  0.00    -0.253 N 
ATOM      7  C   UNL     1      -0.097  -0.801  -1.095  0.00  0.00    +0.127 A 
ATOM      8  C   UNL     1      -0.268  -2.076  -0.644  0.00  0.00    +0.015 A 
ATOM      9  C   UNL     1      -0.058  -2.075   0.737  0.00  0.00    +0.068 A 
ATOM     10  N   UNL     1       0.233  -0.852   1.109  0.00  0.00    -0.175 NA
ATOM     11  C   UNL     1      -0.240  -3.477   1.277  0.00  0.00    +0.058 C 
ATOM     12  C   UNL     1      -1.004  -4.240   0.174  0.00  0.00    +0.011 C 
ATOM     13  C   UNL     1      -0.602  -3.478  -1.106  0.00  0.00    +0.041 C 
ENDBRANCH   1   7
BRANCH   2  14
ATOM     14  C   UNL     1      -0.021  -0.757  -4.809  0.00  0.00    +0.070 C 
ATOM     15  C   UNL     1       0.202  -1.622  -5.826  0.00  0.00    +0.040 C 
BRANCH  15  16
ATOM     16  C   UNL     1       0.175  -1.147  -7.210  0.00  0.00    +0.101 A 
ATOM     17  N   UNL     1      -0.043   0.081  -7.676  0.00  0.00    -0.248 NA
ATOM     18  C   UNL     1      -0.018   0.268  -8.970  0.00  0.00    +0.119 A 
ATOM     19  C   UNL     1       0.225  -0.780  -9.801  0.00  0.00    +0.067 A 
ATOM     20  S   UNL     1       0.432  -2.057  -8.724  0.00  0.00    -0.076 S 
ENDBRANCH  15  16
ENDBRANCH   2  14
TORSDOF 3
