REMARK  Name = ZINC59112451
REMARK  12 active torsions:
REMARK  status: ('A' for Active; 'I' for Inactive)
REMARK    1  A    between atoms: C_1  and  C_2
REMARK    2  A    between atoms: C_2  and  C_22
REMARK    3  A    between atoms: C_4  and  N_11
REMARK    4  A    between atoms: C_7  and  C_9
REMARK    5  A    between atoms: C_7  and  C_10
REMARK    6  A    between atoms: N_11  and  C_12
REMARK    7  A    between atoms: C_12  and  N_14
REMARK    8  A    between atoms: N_14  and  C_15
REMARK    9  A    between atoms: C_22  and  N_23
REMARK   10  A    between atoms: N_23  and  C_24
REMARK   11  A    between atoms: C_24  and  N_26
REMARK   12  A    between atoms: N_26  and  C_27
REMARK                            x       y       z     vdW  Elec       q    Type
REMARK                         _______ _______ _______ _____ _____    ______ ____
ROOT
ATOM      1  C   UNL     1       0.895   1.033   0.791  0.00  0.00    +0.013 C 
ATOM      2  C   UNL     1       0.850  -0.498   0.801  0.00  0.00    -0.014 C 
ATOM      3  C   UNL     1       1.217  -1.039  -0.576  0.00  0.00    +0.030 C 
ATOM      4  C   UNL     1       2.710  -0.867  -0.846  0.00  0.00    +0.073 C 
ATOM      5  C   UNL     1       3.495  -1.662   0.195  0.00  0.00    +0.028 C 
ATOM      6  C   UNL     1       3.210  -1.143   1.600  0.00  0.00    -0.033 C 
ATOM      7  C   UNL     1       1.726  -1.063   1.903  0.00  0.00    +0.014 C 
ATOM      8  C   UNL     1       3.889   0.215   1.804  0.00  0.00    +0.011 C 
ATOM      9  C   UNL     1       3.849  -2.131   2.601  0.00  0.00    +0.011 C 
ENDROOT
BRANCH   4  10
ATOM     10  N   UNL     1       3.020  -1.389  -2.184  0.00  0.00    -0.323 N 
ATOM     11  H   UNL     1       2.452  -2.066  -2.583  0.00  0.00    +0.148 HD
BRANCH  10  12
ATOM     12  C   UNL     1       4.093  -0.926  -2.856  0.00  0.00    +0.135 C 
ATOM     13  S   UNL     1       5.095   0.269  -2.150  0.00  0.00    -0.019 S 
BRANCH  12  14
ATOM     14  N   UNL     1       4.377  -1.405  -4.083  0.00  0.00    -0.297 N 
ATOM     15  H   UNL     1       3.849  -2.129  -4.455  0.00  0.00    +0.154 HD
BRANCH  14  16
ATOM     16  C   UNL     1       5.433  -0.859  -4.820  0.00  0.00    +0.033 A 
ATOM     17  C   UNL     1       6.658  -0.622  -4.210  0.00  0.00    +0.025 A 
ATOM     18  C   UNL     1       7.699  -0.082  -4.940  0.00  0.00    +0.022 A 
ATOM     19  C   UNL     1       7.523   0.222  -6.278  0.00  0.00    +0.041 A 
ATOM     20  C   UNL     1       6.303  -0.013  -6.889  0.00  0.00    +0.022 A 
ATOM     21  C   UNL     1       5.261  -0.557  -6.165  0.00  0.00    +0.025 A 
ATOM     22 CL   UNL     1       8.833   0.900  -7.193  0.00  0.00    -0.084 Cl
ENDBRANCH  14  16
ENDBRANCH  12  14
ENDBRANCH  10  12
ENDBRANCH   4  10
BRANCH   2  23
ATOM     23  C   UNL     1      -0.610  -0.912   1.093  0.00  0.00    +0.110 C 
BRANCH  23  24
ATOM     24  N   UNL     1      -1.487  -0.378   0.048  0.00  0.00    -0.326 N 
ATOM     25  H   UNL     1      -1.113   0.146  -0.678  0.00  0.00    +0.148 HD
BRANCH  24  26
ATOM     26  C   UNL     1      -2.813  -0.615   0.095  0.00  0.00    +0.135 C 
ATOM     27  S   UNL     1      -3.472  -1.540   1.376  0.00  0.00    -0.019 S 
BRANCH  26  28
ATOM     28  N   UNL     1      -3.620  -0.124  -0.866  0.00  0.00    -0.297 N 
ATOM     29  H   UNL     1      -3.238   0.322  -1.639  0.00  0.00    +0.154 HD
BRANCH  28  30
ATOM     30  C   UNL     1      -5.008  -0.258  -0.750  0.00  0.00    +0.033 A 
ATOM     31  C   UNL     1      -5.620  -0.111   0.487  0.00  0.00    +0.025 A 
ATOM     32  C   UNL     1      -6.990  -0.243   0.599  0.00  0.00    +0.022 A 
ATOM     33  C   UNL     1      -7.753  -0.522  -0.521  0.00  0.00    +0.041 A 
ATOM     34  C   UNL     1      -7.146  -0.669  -1.756  0.00  0.00    +0.022 A 
ATOM     35  C   UNL     1      -5.777  -0.533  -1.874  0.00  0.00    +0.025 A 
ATOM     36 CL   UNL     1      -9.475  -0.688  -0.377  0.00  0.00    -0.084 Cl
ENDBRANCH  28  30
ENDBRANCH  26  28
ENDBRANCH  24  26
ENDBRANCH  23  24
ENDBRANCH   2  23
TORSDOF 9
