REMARK  Name = ZINC49765530
REMARK  8 active torsions:
REMARK  status: ('A' for Active; 'I' for Inactive)
REMARK    1  A    between atoms: C_1  and  C_2
REMARK    2  A    between atoms: C_3  and  C_9
REMARK    3  A    between atoms: C_4  and  C_8
REMARK    4  A    between atoms: N_5  and  C_7
REMARK    5  A    between atoms: C_9  and  C_10
REMARK    6  A    between atoms: C_10  and  N_12
REMARK    7  A    between atoms: N_19  and  C_22
REMARK    8  A    between atoms: C_22  and  C_23
REMARK                            x       y       z     vdW  Elec       q    Type
REMARK                         _______ _______ _______ _____ _____    ______ ____
ROOT
ATOM      1  N   UNL     1       1.640   0.250  -4.289  0.00  0.00    -0.156 NA
ATOM      2  C   UNL     1       2.894   0.408  -4.718  0.00  0.00    +0.163 A 
ATOM      3  N   UNL     1       4.052   0.191  -4.039  0.00  0.00    -0.339 N 
ATOM      4  C   UNL     1       5.250   0.412  -4.660  0.00  0.00    +0.024 A 
ATOM      5  C   UNL     1       5.167   0.842  -5.930  0.00  0.00    -0.004 A 
ATOM      6  S   UNL     1       3.425   0.917  -6.232  0.00  0.00    -0.059 S 
ATOM      7  C   UNL     1       6.305   1.166  -6.841  0.00  0.00    -0.033 C 
ATOM      8  N   UNL     1       7.527   1.304  -6.027  0.00  0.00    +0.386 N 
ATOM      9  C   UNL     1       7.659   0.139  -5.141  0.00  0.00    -0.072 C 
ATOM     10  C   UNL     1       6.617   0.205  -4.020  0.00  0.00    +0.035 C 
ATOM     11  H   UNL     1       4.029  -0.119  -3.121  0.00  0.00    +0.167 HD
ATOM     12  H   UNL     1       7.468   2.143  -5.471  0.00  0.00    -0.081 HD
ENDROOT
BRANCH   1  13
ATOM     13  C   UNL     1       1.410  -0.165  -3.050  0.00  0.00    +0.243 C 
ATOM     14  O   UNL     1       2.342  -0.401  -2.304  0.00  0.00    -0.273 OA
BRANCH  13  15
ATOM     15  C   UNL     1      -0.006  -0.343  -2.566  0.00  0.00    +0.136 C 
BRANCH  15  18
ATOM     16  C   UNL     1      -0.018   1.503   0.010  0.00  0.00    +0.068 C 
ATOM     17  C   UNL     1       0.002  -0.004   0.002  0.00  0.00    +0.064 A 
ATOM     18  C   UNL     1       0.008  -0.818  -1.135  0.00  0.00    +0.005 A 
ATOM     19  C   UNL     1       0.028  -2.107  -0.725  0.00  0.00    +0.040 A 
ATOM     20  N   UNL     1       0.034  -2.109   0.625  0.00  0.00    -0.271 N 
ATOM     21  N   UNL     1       0.023  -0.777   1.058  0.00  0.00    -0.176 NA
ATOM     22  C   UNL     1       0.055  -3.295   1.485  0.00  0.00    +0.172 C 
ATOM     23  C   UNL     1       0.040  -3.323  -1.615  0.00  0.00    +0.065 C 
ENDBRANCH  15  18
ENDBRANCH  13  15
ENDBRANCH   1  13
BRANCH   8  24
ATOM     24  C   UNL     1       8.698   1.382  -6.910  0.00  0.00    -0.043 C 
BRANCH  24  25
ATOM     25  C   UNL     1       8.623   2.642  -7.733  0.00  0.00    -0.064 A 
ATOM     26  C   UNL     1       7.982   2.632  -8.957  0.00  0.00    +0.002 A 
ATOM     27  C   UNL     1       7.913   3.788  -9.712  0.00  0.00    +0.000 A 
ATOM     28  C   UNL     1       8.486   4.955  -9.242  0.00  0.00    +0.000 A 
ATOM     29  C   UNL     1       9.126   4.966  -8.016  0.00  0.00    +0.000 A 
ATOM     30  C   UNL     1       9.191   3.811  -7.260  0.00  0.00    +0.002 A 
ENDBRANCH  24  25
ENDBRANCH   8  24
TORSDOF 5
