REMARK  Name = ZINC39914104
REMARK  17 active torsions:
REMARK  status: ('A' for Active; 'I' for Inactive)
REMARK    1  A    between atoms: C_1  and  C_2
REMARK    2  A    between atoms: C_2  and  O_3
REMARK    3  A    between atoms: O_3  and  C_4
REMARK    4  A    between atoms: C_6  and  C_16
REMARK    5  A    between atoms: C_9  and  O_10
REMARK    6  A    between atoms: O_10  and  C_11
REMARK    7  A    between atoms: C_11  and  C_12
REMARK    8  A    between atoms: C_12  and  C_13
REMARK    9  A    between atoms: C_13  and  C_14
REMARK   10  A    between atoms: C_13  and  C_15
REMARK   11  A    between atoms: C_19  and  C_31
REMARK   12  A    between atoms: N_26  and  C_27
REMARK   13  A    between atoms: C_27  and  C_28
REMARK   14  A    between atoms: C_28  and  O_29
REMARK   15  A    between atoms: O_29  and  C_30
REMARK   16  A    between atoms: C_34  and  C_38
REMARK   17  A    between atoms: C_36  and  O_37
REMARK                            x       y       z     vdW  Elec       q    Type
REMARK                         _______ _______ _______ _____ _____    ______ ____
ROOT
ATOM      1  C   UNL     1       0.110  -5.083   0.106  0.00  0.00    +0.141 C 
ATOM      2  C   UNL     1       0.883  -5.549   1.309  0.00  0.00    +0.035 A 
ATOM      3  C   UNL     1       1.593  -5.199   2.463  0.00  0.00    +0.102 A 
ATOM      4  N   UNL     1       1.997  -6.318   3.032  0.00  0.00    -0.173 NA
ATOM      5  N   UNL     1       1.613  -7.339   2.351  0.00  0.00    -0.272 N 
ATOM      6  H   UNL     1       1.797  -8.263   2.582  0.00  0.00    +0.189 HD
ATOM      7  C   UNL     1       0.908  -6.929   1.256  0.00  0.00    +0.126 A 
ATOM      8  C   UNL     1       0.177  -7.363   0.060  0.00  0.00    +0.266 C 
ATOM      9  O   UNL     1       0.017  -8.521  -0.274  0.00  0.00    -0.268 OA
ATOM     10  N   UNL     1      -0.293  -6.297  -0.616  0.00  0.00    -0.283 N 
ENDROOT
BRANCH   3  11
ATOM     11  C   UNL     1       1.844  -3.822   2.957  0.00  0.00    +0.045 A 
ATOM     12  C   UNL     1       1.244  -2.734   2.329  0.00  0.00    +0.034 A 
ATOM     13  C   UNL     1       1.481  -1.454   2.792  0.00  0.00    +0.045 A 
ATOM     14  C   UNL     1       2.315  -1.250   3.878  0.00  0.00    -0.029 A 
ATOM     15  C   UNL     1       2.916  -2.324   4.507  0.00  0.00    +0.050 A 
ATOM     16  C   UNL     1       2.680  -3.613   4.057  0.00  0.00    +0.126 A 
ATOM     17  C   UNL     1       2.568   0.149   4.377  0.00  0.00    +0.045 C 
ATOM     18 CL   UNL     1       0.733  -0.098   2.008  0.00  0.00    -0.083 Cl
BRANCH  16  19
ATOM     19  O   UNL     1       3.266  -4.670   4.678  0.00  0.00    -0.506 OA
ATOM     20  H   UNL     1       4.131  -4.909   4.317  0.00  0.00    +0.292 HD
ENDBRANCH  16  19
ENDBRANCH   3  11
BRANCH   1  23
ATOM     21  C   UNL     1       2.948  -3.954  -2.117  0.00  0.00    +0.162 A 
ATOM     22  C   UNL     1       2.144  -4.743  -1.310  0.00  0.00    +0.055 A 
ATOM     23  C   UNL     1       0.983  -4.223  -0.771  0.00  0.00    -0.019 A 
ATOM     24  C   UNL     1       0.620  -2.915  -1.034  0.00  0.00    +0.009 A 
ATOM     25  C   UNL     1       1.417  -2.122  -1.839  0.00  0.00    +0.050 A 
ATOM     26  C   UNL     1       2.586  -2.636  -2.377  0.00  0.00    +0.162 A 
BRANCH  21  27
ATOM     27  O   UNL     1       4.091  -4.465  -2.648  0.00  0.00    -0.489 OA
BRANCH  27  29
ATOM     28  C   UNL     1       5.658  -6.251  -3.088  0.00  0.00    +0.048 C 
ATOM     29  C   UNL     1       4.425  -5.809  -2.298  0.00  0.00    +0.226 C 
ENDBRANCH  27  29
ENDBRANCH  21  27
BRANCH  26  30
ATOM     30  O   UNL     1       3.374  -1.855  -3.164  0.00  0.00    -0.488 OA
BRANCH  30  31
ATOM     31  C   UNL     1       2.940  -0.512  -3.388  0.00  0.00    +0.229 C 
BRANCH  31  32
ATOM     32  C   UNL     1       3.947   0.205  -4.290  0.00  0.00    +0.044 C 
BRANCH  32  33
ATOM     33  C   UNL     1       3.482   1.643  -4.530  0.00  0.00    -0.014 C 
ATOM     34  C   UNL     1       3.502   2.413  -3.208  0.00  0.00    +0.007 C 
ATOM     35  C   UNL     1       4.421   2.322  -5.529  0.00  0.00    +0.007 C 
ENDBRANCH  32  33
ENDBRANCH  31  32
ENDBRANCH  30  31
ENDBRANCH  26  30
ENDBRANCH   1  23
BRANCH  10  36
ATOM     36  C   UNL     1      -1.070  -6.339  -1.856  0.00  0.00    +0.137 C 
BRANCH  36  37
ATOM     37  C   UNL     1      -0.120  -6.445  -3.051  0.00  0.00    +0.178 C 
BRANCH  37  38
ATOM     38  O   UNL     1       0.559  -7.701  -3.009  0.00  0.00    -0.381 OA
ATOM     39  C   UNL     1       1.476  -7.902  -4.087  0.00  0.00    +0.194 C 
ENDBRANCH  37  38
ENDBRANCH  36  37
ENDBRANCH  10  36
TORSDOF 12
