REMARK  Name = ZINC20881493
REMARK  11 active torsions:
REMARK  status: ('A' for Active; 'I' for Inactive)
REMARK    1  A    between atoms: C_1  and  C_2
REMARK    2  A    between atoms: C_2  and  C_3
REMARK    3  A    between atoms: C_3  and  C_4
REMARK    4  A    between atoms: C_4  and  O_5
REMARK    5  A    between atoms: O_5  and  C_6
REMARK    6  A    between atoms: C_11  and  C_12
REMARK    7  A    between atoms: C_17  and  C_22
REMARK    8  A    between atoms: C_25  and  O_28
REMARK    9  A    between atoms: O_28  and  C_29
REMARK   10  A    between atoms: C_29  and  C_30
REMARK   11  A    between atoms: C_29  and  C_31
REMARK                            x       y       z     vdW  Elec       q    Type
REMARK                         _______ _______ _______ _____ _____    ______ ____
ROOT
ATOM      1  C   UNL     1      -5.927  10.195  -0.498  0.00  0.00    +0.139 C 
ATOM      2  C   UNL     1      -4.944   9.074  -0.259  0.00  0.00    +0.037 C 
ATOM      3  C   UNL     1      -3.663   9.215   0.122  0.00  0.00    +0.017 C 
ATOM      4  C   UNL     1      -2.781   7.995   0.324  0.00  0.00    +0.059 C 
ATOM      5  C   UNL     1      -3.621   6.820   0.823  0.00  0.00    +0.032 C 
ATOM      6  C   UNL     1      -4.694   6.533  -0.234  0.00  0.00    +0.088 C 
ATOM      7  C   UNL     1      -5.489   7.783  -0.460  0.00  0.00    +0.163 C 
ATOM      8  O   UNL     1      -6.643   7.686  -0.829  0.00  0.00    -0.292 OA
ATOM      9  N   UNL     1      -3.049  10.405   0.343  0.00  0.00    -0.316 N 
ATOM     10  C   UNL     1      -3.586  11.451   1.084  0.00  0.00    +0.052 A 
ATOM     11  C   UNL     1      -3.021  11.886   2.271  0.00  0.00    +0.025 A 
ATOM     12  C   UNL     1      -3.580  12.965   2.933  0.00  0.00    +0.002 A 
ATOM     13  C   UNL     1      -4.691  13.605   2.413  0.00  0.00    +0.002 A 
ATOM     14  C   UNL     1      -5.267  13.160   1.236  0.00  0.00    +0.025 A 
ATOM     15  C   UNL     1      -4.723  12.067   0.582  0.00  0.00    +0.049 A 
ATOM     16  N   UNL     1      -5.333  11.514  -0.544  0.00  0.00    -0.331 N 
ATOM     17  H   UNL     1      -2.051  10.595  -0.078  0.00  0.00    +0.152 HD
ATOM     18  H   UNL     1      -5.358  12.098  -1.476  0.00  0.00    +0.147 HD
ENDROOT
BRANCH   1  24
ATOM     19  C   UNL     1      -8.192  10.763   0.414  0.00  0.00    +0.126 A 
ATOM     20  C   UNL     1      -9.134  10.739   1.432  0.00  0.00    +0.046 A 
ATOM     21  C   UNL     1      -8.836  10.126   2.634  0.00  0.00    +0.004 A 
ATOM     22  C   UNL     1      -7.599   9.537   2.822  0.00  0.00    +0.001 A 
ATOM     23  C   UNL     1      -6.660   9.555   1.807  0.00  0.00    +0.009 A 
ATOM     24  C   UNL     1      -6.952  10.171   0.606  0.00  0.00    +0.019 A 
BRANCH  19  25
ATOM     25  O   UNL     1      -8.484  11.365  -0.769  0.00  0.00    -0.492 OA
BRANCH  25  26
ATOM     26  C   UNL     1      -9.780  11.954  -0.895  0.00  0.00    +0.229 C 
BRANCH  26  27
ATOM     27  C   UNL     1      -9.923  12.579  -2.284  0.00  0.00    +0.041 C 
BRANCH  27  29
ATOM     28  C   UNL     1     -11.453  13.834  -3.809  0.00  0.00    +0.004 C 
ATOM     29  C   UNL     1     -11.310  13.209  -2.420  0.00  0.00    -0.000 C 
ENDBRANCH  27  29
ENDBRANCH  26  27
ENDBRANCH  25  26
ENDBRANCH  19  25
ENDBRANCH   1  24
BRANCH   5  30
ATOM     30  C   UNL     1      -2.746   5.607   1.006  0.00  0.00    -0.043 A 
ATOM     31  C   UNL     1      -2.634   5.019   2.252  0.00  0.00    +0.007 A 
ATOM     32  C   UNL     1      -1.832   3.906   2.422  0.00  0.00    +0.046 A 
ATOM     33  C   UNL     1      -1.139   3.380   1.341  0.00  0.00    +0.121 A 
ATOM     34  C   UNL     1      -1.249   3.976   0.093  0.00  0.00    +0.046 A 
ATOM     35  C   UNL     1      -2.056   5.085  -0.073  0.00  0.00    +0.007 A 
BRANCH  33  36
ATOM     36  O   UNL     1      -0.350   2.286   1.506  0.00  0.00    -0.489 OA
BRANCH  36  37
ATOM     37  C   UNL     1      -0.185   1.800   2.840  0.00  0.00    +0.167 C 
ATOM     38  C   UNL     1       1.130   1.025   2.941  0.00  0.00    +0.051 C 
ATOM     39  C   UNL     1      -1.351   0.875   3.194  0.00  0.00    +0.051 C 
ENDBRANCH  36  37
ENDBRANCH  33  36
ENDBRANCH   5  30
TORSDOF 8
