REMARK  Name = ZINC25461342
REMARK  8 active torsions:
REMARK  status: ('A' for Active; 'I' for Inactive)
REMARK    1  A    between atoms: C_1  and  O_2
REMARK    2  A    between atoms: O_2  and  C_3
REMARK    3  A    between atoms: C_5  and  C_13
REMARK    4  A    between atoms: C_7  and  O_11
REMARK    5  A    between atoms: C_8  and  O_9
REMARK    6  A    between atoms: O_9  and  C_10
REMARK    7  A    between atoms: O_11  and  C_12
REMARK    8  A    between atoms: C_25  and  C_29
REMARK                            x       y       z     vdW  Elec       q    Type
REMARK                         _______ _______ _______ _____ _____    ______ ____
ROOT
ATOM      1  C   UNL     1      -4.880   0.270  -0.011  0.00  0.00    +0.132 C 
ATOM      2  C   UNL     1      -5.477   0.213   1.375  0.00  0.00    +0.043 A 
ATOM      3  C   UNL     1      -6.797   0.026   1.603  0.00  0.00    -0.009 A 
ATOM      4  C   UNL     1      -6.988   0.026   3.036  0.00  0.00    +0.004 A 
ATOM      5  C   UNL     1      -8.119  -0.122   3.845  0.00  0.00    +0.010 A 
ATOM      6  C   UNL     1      -7.923  -0.069   5.203  0.00  0.00    +0.001 A 
ATOM      7  C   UNL     1      -6.668   0.124   5.758  0.00  0.00    +0.002 A 
ATOM      8  C   UNL     1      -5.532   0.275   4.982  0.00  0.00    +0.026 A 
ATOM      9  C   UNL     1      -5.701   0.224   3.600  0.00  0.00    +0.047 A 
ATOM     10  N   UNL     1      -4.815   0.333   2.567  0.00  0.00    -0.356 N 
ATOM     11  H   UNL     1      -3.860   0.475   2.663  0.00  0.00    +0.166 HD
ATOM     12  C   UNL     1      -7.815  -0.140   0.502  0.00  0.00    +0.067 C 
ATOM     13  C   UNL     1      -7.174   0.327  -0.812  0.00  0.00    +0.094 C 
ATOM     14  N   UNL     1      -5.850  -0.294  -0.964  0.00  0.00    -0.304 NA
ATOM     15  H   UNL     1      -5.515  -0.212  -1.912  0.00  0.00    +0.123 HD
ENDROOT
BRANCH  12  16
ATOM     16  C   UNL     1      -8.211  -1.590   0.390  0.00  0.00    -0.020 A 
ATOM     17  C   UNL     1      -7.240  -2.561   0.234  0.00  0.00    +0.007 A 
ATOM     18  C   UNL     1      -7.602  -3.891   0.131  0.00  0.00    +0.020 A 
ATOM     19  C   UNL     1      -8.938  -4.251   0.184  0.00  0.00    +0.042 A 
ATOM     20  C   UNL     1      -9.909  -3.279   0.341  0.00  0.00    +0.040 A 
ATOM     21  C   UNL     1      -9.546  -1.949   0.449  0.00  0.00    +0.046 A 
ATOM     22 CL   UNL     1     -10.764  -0.729   0.652  0.00  0.00    -0.083 Cl
ATOM     23 CL   UNL     1      -9.393  -5.921   0.054  0.00  0.00    -0.083 Cl
ENDBRANCH  12  16
BRANCH   1  26
ATOM     24  C   UNL     1      -1.210  -0.626  -0.101  0.00  0.00    +0.165 A 
ATOM     25  C   UNL     1      -2.384   0.110  -0.067  0.00  0.00    +0.055 A 
ATOM     26  C   UNL     1      -3.607  -0.535  -0.048  0.00  0.00    -0.018 A 
ATOM     27  C   UNL     1      -3.664  -1.916  -0.063  0.00  0.00    +0.055 A 
ATOM     28  C   UNL     1      -2.494  -2.660  -0.096  0.00  0.00    +0.165 A 
ATOM     29  C   UNL     1      -1.263  -2.015  -0.121  0.00  0.00    +0.204 A 
BRANCH  24  31
ATOM     30  C   UNL     1      -0.029   1.438  -0.096  0.00  0.00    +0.277 C 
ATOM     31  O   UNL     1      -0.008   0.009  -0.119  0.00  0.00    -0.491 OA
ENDBRANCH  24  31
BRANCH  29  32
ATOM     32  O   UNL     1      -0.113  -2.741  -0.160  0.00  0.00    -0.488 OA
ATOM     33  C   UNL     1       0.465  -3.108   1.095  0.00  0.00    +0.277 C 
ENDBRANCH  29  32
BRANCH  28  34
ATOM     34  O   UNL     1      -2.552  -4.018  -0.110  0.00  0.00    -0.491 OA
ATOM     35  C   UNL     1      -3.851  -4.613  -0.088  0.00  0.00    +0.277 C 
ENDBRANCH  28  34
ENDBRANCH   1  26
TORSDOF 5
