REMARK  Name = ZINC02649152
REMARK  4 active torsions:
REMARK  status: ('A' for Active; 'I' for Inactive)
REMARK    1  A    between atoms: C_3  and  C_17
REMARK    2  A    between atoms: C_5  and  C_11
REMARK    3  A    between atoms: N_19  and  C_20
REMARK    4  A    between atoms: C_25  and  C_26
REMARK                            x       y       z     vdW  Elec       q    Type
REMARK                         _______ _______ _______ _____ _____    ______ ____
ROOT
ATOM      1  C   UNL     1      -0.125   5.650  -2.652  0.00  0.00    +0.029 C 
ATOM      2  C   UNL     1      -0.803   6.156  -1.640  0.00  0.00    +0.019 C 
ATOM      3  C   UNL     1      -0.132   6.468  -0.317  0.00  0.00    +0.143 C 
ATOM      4  C   UNL     1      -0.548   7.888   0.090  0.00  0.00    +0.122 C 
ATOM      5  N   UNL     1      -2.001   8.018  -0.014  0.00  0.00    -0.291 N 
ATOM      6  C   UNL     1      -2.722   7.338  -0.915  0.00  0.00    +0.304 C 
ATOM      7  O   UNL     1      -3.917   7.549  -0.990  0.00  0.00    -0.253 OA
ATOM      8  N   UNL     1      -2.172   6.428  -1.741  0.00  0.00    -0.273 N 
ATOM      9  H   UNL     1      -2.460   8.620   0.593  0.00  0.00    +0.151 HD
ATOM     10  H   UNL     1      -2.717   5.967  -2.397  0.00  0.00    +0.156 HD
ENDROOT
BRANCH   4  11
ATOM     11  C   UNL     1       0.112   8.886  -0.826  0.00  0.00    -0.026 A 
ATOM     12  C   UNL     1      -0.412   9.124  -2.083  0.00  0.00    +0.005 A 
ATOM     13  C   UNL     1       0.190  10.044  -2.921  0.00  0.00    +0.000 A 
ATOM     14  C   UNL     1       1.323  10.718  -2.506  0.00  0.00    +0.000 A 
ATOM     15  C   UNL     1       1.851  10.476  -1.251  0.00  0.00    +0.000 A 
ATOM     16  C   UNL     1       1.245   9.561  -0.411  0.00  0.00    +0.005 A 
ENDBRANCH   4  11
BRANCH   3  17
ATOM     17  C   UNL     1      -0.583   5.483   0.731  0.00  0.00    +0.228 C 
ATOM     18  O   UNL     1      -1.151   5.876   1.728  0.00  0.00    -0.275 OA
ATOM     19  N   UNL     1      -0.356   4.166   0.559  0.00  0.00    -0.284 N 
ATOM     20  H   UNL     1       0.168   3.858  -0.197  0.00  0.00    +0.155 HD
BRANCH  19  21
ATOM     21  C   UNL     1      -0.875   3.242   1.473  0.00  0.00    +0.045 A 
ATOM     22  C   UNL     1      -2.001   3.561   2.222  0.00  0.00    +0.024 A 
ATOM     23  C   UNL     1      -2.510   2.647   3.123  0.00  0.00    +0.002 A 
ATOM     24  C   UNL     1      -1.901   1.415   3.280  0.00  0.00    +0.001 A 
ATOM     25  C   UNL     1      -0.785   1.092   2.531  0.00  0.00    +0.014 A 
ATOM     26  C   UNL     1      -0.267   2.004   1.633  0.00  0.00    +0.076 A 
BRANCH  26  27
ATOM     27  C   UNL     1       0.955   1.654   0.822  0.00  0.00    +0.419 C 
ATOM     28  F   UNL     1       1.383   0.365   1.157  0.00  0.00    -0.166 F 
ATOM     29  F   UNL     1       1.976   2.570   1.097  0.00  0.00    -0.166 F 
ATOM     30  F   UNL     1       0.640   1.702  -0.540  0.00  0.00    -0.166 F 
ENDBRANCH  26  27
ENDBRANCH  19  21
ENDBRANCH   3  17
TORSDOF 4
