REMARK  Name = ZINC58310766
REMARK  2 active torsions:
REMARK  status: ('A' for Active; 'I' for Inactive)
REMARK    1  A    between atoms: C_6  and  C_10
REMARK    2  A    between atoms: C_15  and  C_18
REMARK                            x       y       z     vdW  Elec       q    Type
REMARK                         _______ _______ _______ _____ _____    ______ ____
ROOT
ATOM      1  C   UNL     1       3.636  -3.368  -0.053  0.00  0.00    +0.267 C 
ATOM      2  O   UNL     1       4.849  -3.361  -0.126  0.00  0.00    -0.268 OA
ATOM      3  N   UNL     1       2.974  -4.538   0.049  0.00  0.00    -0.292 N 
ATOM      4  C   UNL     1       3.695  -5.819   0.153  0.00  0.00    +0.113 C 
ATOM      5  C   UNL     1       3.342  -6.451   1.502  0.00  0.00    +0.054 C 
ATOM      6  C   UNL     1       1.864  -6.374   1.745  0.00  0.00    -0.039 C 
ATOM      7  C   UNL     1       1.052  -5.552   1.121  0.00  0.00    -0.004 C 
ATOM      8  C   UNL     1       1.505  -4.587   0.067  0.00  0.00    +0.135 C 
ENDROOT
BRANCH   6   9
ATOM      9  C   UNL     1       1.283  -7.282   2.753  0.00  0.00    +0.003 A 
ATOM     10  C   UNL     1       1.065  -8.615   2.613  0.00  0.00    +0.091 A 
ATOM     11  N   UNL     1       0.515  -9.114   3.758  0.00  0.00    -0.360 N 
ATOM     12  H   UNL     1       0.270 -10.043   3.897  0.00  0.00    +0.165 HD
ATOM     13  C   UNL     1       0.358  -8.109   4.688  0.00  0.00    +0.050 A 
ATOM     14  C   UNL     1       0.834  -6.921   4.108  0.00  0.00    +0.007 A 
ATOM     15  C   UNL     1       0.803  -5.730   4.831  0.00  0.00    +0.013 A 
ATOM     16  C   UNL     1       0.307  -5.724   6.115  0.00  0.00    +0.039 A 
ATOM     17  C   UNL     1      -0.162  -6.898   6.692  0.00  0.00    +0.125 A 
ATOM     18  C   UNL     1      -0.144  -8.083   5.985  0.00  0.00    +0.064 A 
ATOM     19  F   UNL     1      -0.645  -6.878   7.954  0.00  0.00    -0.205 F 
ENDBRANCH   6   9
BRANCH   1  25
ATOM     20  C   UNL     1      -0.026   1.346  -0.173  0.00  0.00    +0.005 A 
ATOM     21  C   UNL     1       1.183   2.063  -0.120  0.00  0.00    +0.018 A 
ATOM     22  C   UNL     1       2.361   1.409  -0.076  0.00  0.00    +0.093 A 
ATOM     23  N   UNL     1       2.400   0.043  -0.082  0.00  0.00    -0.306 N 
ATOM     24  C   UNL     1       3.432  -0.845  -0.046  0.00  0.00    +0.125 A 
ATOM     25  C   UNL     1       2.887  -2.097  -0.075  0.00  0.00    +0.144 A 
ATOM     26  N   UNL     1       1.548  -1.970  -0.128  0.00  0.00    -0.223 NA
ATOM     27  C   UNL     1       1.237  -0.685  -0.133  0.00  0.00    +0.138 A 
ATOM     28  C   UNL     1      -0.004  -0.012  -0.179  0.00  0.00    +0.047 A 
ENDBRANCH   1  25
TORSDOF 2
