REMARK  Name = ZINC10146708
REMARK  6 active torsions:
REMARK  status: ('A' for Active; 'I' for Inactive)
REMARK    1  A    between atoms: N_11  and  C_14
REMARK    2  A    between atoms: C_14  and  C_16
REMARK    3  A    between atoms: C_14  and  C_21
REMARK    4  A    between atoms: C_16  and  C_17
REMARK    5  A    between atoms: C_17  and  C_18
REMARK    6  A    between atoms: C_18  and  C_19
REMARK                            x       y       z     vdW  Elec       q    Type
REMARK                         _______ _______ _______ _____ _____    ______ ____
ROOT
ATOM      1  C   UNL     1       6.215   2.404   3.241  0.00  0.00    +0.040 C 
ATOM      2  C   UNL     1       6.107   2.331   4.750  0.00  0.00    -0.030 C 
ATOM      3  C   UNL     1       5.063   2.700   5.429  0.00  0.00    -0.030 C 
ATOM      4  C   UNL     1       3.807   3.282   4.816  0.00  0.00    +0.040 C 
ATOM      5  C   UNL     1       4.175   3.757   3.426  0.00  0.00    +0.091 C 
ATOM      6  C   UNL     1       4.805   2.525   2.704  0.00  0.00    +0.091 C 
ATOM      7  C   UNL     1       4.623   2.938   1.275  0.00  0.00    +0.227 C 
ATOM      8  O   UNL     1       5.333   2.643   0.337  0.00  0.00    -0.275 OA
ATOM      9  N   UNL     1       3.504   3.706   1.240  0.00  0.00    -0.228 N 
ATOM     10  C   UNL     1       3.071   4.088   2.470  0.00  0.00    +0.227 C 
ATOM     11  O   UNL     1       2.003   4.594   2.741  0.00  0.00    -0.275 OA
ENDROOT
BRANCH   9  12
ATOM     12  C   UNL     1       2.832   4.092  -0.003  0.00  0.00    +0.197 C 
BRANCH  12  13
ATOM     13  C   UNL     1       2.812   5.594  -0.119  0.00  0.00    +0.376 C 
ATOM     14  O   UNL     1       3.308   6.273   0.749  0.00  0.00    -0.244 OA
ATOM     15  O   UNL     1       2.243   6.178  -1.185  0.00  0.00    -0.244 OA
ENDBRANCH  12  13
BRANCH  12  16
ATOM     16  C   UNL     1       1.396   3.562   0.008  0.00  0.00    +0.035 C 
BRANCH  16  17
ATOM     17  C   UNL     1       1.417   2.032  -0.001  0.00  0.00    +0.014 C 
BRANCH  17  18
ATOM     18  C   UNL     1      -0.018   1.503   0.010  0.00  0.00    +0.125 C 
BRANCH  18  19
ATOM     19  C   UNL     1       0.002  -0.004   0.002  0.00  0.00    +0.356 C 
ATOM     20  O   UNL     1       1.056  -0.594  -0.011  0.00  0.00    -0.246 OA
ATOM     21  O   UNL     1      -1.151  -0.691   0.009  0.00  0.00    -0.246 OA
ENDBRANCH  18  19
ENDBRANCH  17  18
ENDBRANCH  16  17
ENDBRANCH  12  16
ENDBRANCH   9  12
TORSDOF 6
