REMARK  Name = ZINC18106663
REMARK  11 active torsions:
REMARK  status: ('A' for Active; 'I' for Inactive)
REMARK    1  A    between atoms: C_1  and  C_2
REMARK    2  A    between atoms: C_2  and  O_3
REMARK    3  A    between atoms: O_3  and  C_4
REMARK    4  A    between atoms: C_6  and  C_23
REMARK    5  A    between atoms: C_9  and  O_10
REMARK    6  A    between atoms: O_10  and  C_11
REMARK    7  A    between atoms: C_11  and  C_12
REMARK    8  A    between atoms: C_12  and  O_13
REMARK    9  A    between atoms: O_13  and  C_14
REMARK   10  A    between atoms: C_19  and  O_20
REMARK   11  A    between atoms: O_20  and  C_21
REMARK                            x       y       z     vdW  Elec       q    Type
REMARK                         _______ _______ _______ _____ _____    ______ ____
ROOT
ATOM      1  C   UNL     1     -10.213   0.224   2.453  0.00  0.00    +0.164 A 
ATOM      2  C   UNL     1      -8.865   0.399   2.202  0.00  0.00    +0.061 A 
ATOM      3  C   UNL     1      -8.374   0.244   0.903  0.00  0.00    +0.022 A 
ATOM      4  C   UNL     1      -9.245  -0.095  -0.135  0.00  0.00    +0.035 A 
ATOM      5  C   UNL     1     -10.589  -0.272   0.124  0.00  0.00    +0.087 A 
ATOM      6  C   UNL     1     -11.077  -0.114   1.414  0.00  0.00    +0.180 A 
ATOM      7 CL   UNL     1     -11.671  -0.693  -1.167  0.00  0.00    -0.080 Cl
ENDROOT
BRANCH   3   8
ATOM      8  C   UNL     1      -6.936   0.434   0.629  0.00  0.00    +0.142 A 
ATOM      9  N   UNL     1      -6.486   0.271  -0.649  0.00  0.00    -0.306 N 
ATOM     10  H   UNL     1      -7.126   0.035  -1.339  0.00  0.00    +0.170 HD
ATOM     11  C   UNL     1      -5.187   0.424  -0.997  0.00  0.00    +0.260 A 
ATOM     12  O   UNL     1      -4.802   0.275  -2.144  0.00  0.00    -0.267 OA
ATOM     13  C   UNL     1      -4.290   0.772   0.068  0.00  0.00    +0.075 A 
ATOM     14  C   UNL     1      -2.859   0.991  -0.040  0.00  0.00    -0.023 A 
ATOM     15  C   UNL     1      -2.205   1.312   1.102  0.00  0.00    -0.004 A 
ATOM     16  S   UNL     1      -3.456   1.338   2.361  0.00  0.00    -0.073 S 
ATOM     17  C   UNL     1      -4.847   0.919   1.359  0.00  0.00    +0.116 A 
ATOM     18  N   UNL     1      -6.134   0.756   1.634  0.00  0.00    -0.222 NA
ATOM     19  C   UNL     1      -0.738   1.584   1.266  0.00  0.00    +0.043 C 
ATOM     20  C   UNL     1      -0.013   1.086   0.008  0.00  0.00    +0.005 C 
ATOM     21  C   UNL     1      -0.760   1.597  -1.227  0.00  0.00    +0.005 C 
ATOM     22  C   UNL     1      -2.100   0.873  -1.359  0.00  0.00    +0.037 C 
ENDBRANCH   3   8
BRANCH   1  23
ATOM     23  O   UNL     1     -10.695   0.378   3.716  0.00  0.00    -0.489 OA
BRANCH  23  25
ATOM     24  C   UNL     1     -10.474   0.853   6.075  0.00  0.00    +0.048 C 
ATOM     25  C   UNL     1      -9.752   0.725   4.732  0.00  0.00    +0.226 C 
ENDBRANCH  23  25
ENDBRANCH   1  23
BRANCH   6  26
ATOM     26  O   UNL     1     -12.402  -0.289   1.664  0.00  0.00    -0.483 OA
BRANCH  26  27
ATOM     27  C   UNL     1     -12.827  -1.608   2.013  0.00  0.00    +0.270 C 
BRANCH  27  28
ATOM     28  C   UNL     1     -14.337  -1.609   2.256  0.00  0.00    +0.270 C 
BRANCH  28  29
ATOM     29  O   UNL     1     -15.016  -1.304   1.036  0.00  0.00    -0.485 OA
BRANCH  29  30
ATOM     30  C   UNL     1     -16.375  -1.264   1.078  0.00  0.00    +0.162 A 
ATOM     31  C   UNL     1     -17.040  -1.520   2.266  0.00  0.00    +0.049 A 
ATOM     32  C   UNL     1     -18.421  -1.474   2.309  0.00  0.00    +0.004 A 
ATOM     33  C   UNL     1     -19.142  -1.185   1.165  0.00  0.00    +0.004 A 
ATOM     34  C   UNL     1     -18.484  -0.934  -0.025  0.00  0.00    +0.049 A 
ATOM     35  C   UNL     1     -17.100  -0.973  -0.073  0.00  0.00    +0.161 A 
BRANCH  35  36
ATOM     36  O   UNL     1     -16.452  -0.728  -1.243  0.00  0.00    -0.491 OA
ATOM     37  C   UNL     1     -17.261  -0.436  -2.384  0.00  0.00    +0.277 C 
ENDBRANCH  35  36
ENDBRANCH  29  30
ENDBRANCH  28  29
ENDBRANCH  27  28
ENDBRANCH  26  27
ENDBRANCH   6  26
TORSDOF 9
