REMARK  Name = ZINC40011610
REMARK  12 active torsions:
REMARK  status: ('A' for Active; 'I' for Inactive)
REMARK    1  A    between atoms: C_1  and  C_2
REMARK    2  A    between atoms: C_5  and  C_30
REMARK    3  A    between atoms: C_6  and  N_8
REMARK    4  A    between atoms: N_8  and  C_9
REMARK    5  A    between atoms: C_9  and  N_11
REMARK    6  A    between atoms: N_11  and  C_12
REMARK    7  A    between atoms: C_12  and  C_13
REMARK    8  A    between atoms: C_13  and  C_14
REMARK    9  A    between atoms: C_14  and  N_15
REMARK   10  A    between atoms: C_17  and  C_28
REMARK   11  A    between atoms: C_22  and  C_27
REMARK   12  A    between atoms: C_23  and  C_26
REMARK                            x       y       z     vdW  Elec       q    Type
REMARK                         _______ _______ _______ _____ _____    ______ ____
ROOT
ATOM      1  C   UNL     1       0.545  -1.563   8.261  0.00  0.00    +0.104 C 
ENDROOT
BRANCH   1   2
ATOM      2  N   UNL     1       0.626  -2.678   9.208  0.00  0.00    -0.328 N 
ATOM      3  C   UNL     1       0.754  -2.428  10.562  0.00  0.00    +0.137 A 
ATOM      4  C   UNL     1       0.837  -3.517  11.463  0.00  0.00    +0.092 A 
ATOM      5  C   UNL     1       0.966  -3.267  12.823  0.00  0.00    +0.032 A 
ATOM      6  C   UNL     1       1.010  -1.927  13.249  0.00  0.00    +0.002 A 
ATOM      7  C   UNL     1       1.139  -1.602  14.610  0.00  0.00    +0.010 A 
ATOM      8  C   UNL     1       1.179  -0.295  14.989  0.00  0.00    +0.004 A 
ATOM      9  C   UNL     1       1.093   0.726  14.045  0.00  0.00    -0.045 A 
ATOM     10  C   UNL     1       0.966   0.447  12.718  0.00  0.00    -0.022 A 
ATOM     11  C   UNL     1       0.921  -0.890  12.286  0.00  0.00    +0.076 A 
ATOM     12  N   UNL     1       0.803  -1.184  10.986  0.00  0.00    -0.231 NA
ATOM     13  C   UNL     1       0.873   1.568  11.716  0.00  0.00    +0.046 C 
ATOM     14  C   UNL     1       1.140   2.162  14.499  0.00  0.00    +0.044 C 
ATOM     15  H   UNL     1       0.589  -3.592   8.884  0.00  0.00    +0.147 HD
BRANCH   4  16
ATOM     16  C   UNL     1       0.787  -4.863  10.978  0.00  0.00    +0.103 C 
ATOM     17  N   UNL     1       0.747  -5.931  10.592  0.00  0.00    -0.191 NA
ENDBRANCH   4  16
ENDBRANCH   1   2
BRANCH   1  18
ATOM     18  C   UNL     1       0.408  -2.110   6.839  0.00  0.00    +0.037 C 
BRANCH  18  19
ATOM     19  C   UNL     1       0.324  -0.945   5.851  0.00  0.00    +0.105 C 
BRANCH  19  20
ATOM     20  N   UNL     1       0.193  -1.468   4.489  0.00  0.00    -0.326 N 
ATOM     21  H   UNL     1       0.172  -2.426   4.337  0.00  0.00    +0.148 HD
BRANCH  20  22
ATOM     22  C   UNL     1       0.102  -0.619   3.446  0.00  0.00    +0.135 C 
ATOM     23  S   UNL     1       0.139   1.072   3.714  0.00  0.00    -0.019 S 
BRANCH  22  24
ATOM     24  N   UNL     1      -0.019  -1.100   2.193  0.00  0.00    -0.297 N 
ATOM     25  H   UNL     1      -0.082  -2.057   2.045  0.00  0.00    +0.154 HD
BRANCH  24  31
ATOM     26  C   UNL     1       1.610   2.990   0.007  0.00  0.00    +0.044 C 
ATOM     27  C   UNL     1       0.726   1.770   0.020  0.00  0.00    -0.049 A 
ATOM     28  C   UNL     1      -0.121   1.519  -1.044  0.00  0.00    +0.004 A 
ATOM     29  C   UNL     1      -0.934   0.401  -1.036  0.00  0.00    +0.005 A 
ATOM     30  C   UNL     1      -0.902  -0.470   0.036  0.00  0.00    -0.029 A 
ATOM     31  C   UNL     1      -0.053  -0.221   1.106  0.00  0.00    +0.036 A 
ATOM     32  C   UNL     1       0.766   0.901   1.092  0.00  0.00    +0.027 A 
ATOM     33  C   UNL     1      -1.789  -1.688   0.044  0.00  0.00    +0.045 C 
ENDBRANCH  24  31
ENDBRANCH  22  24
ENDBRANCH  20  22
ENDBRANCH  19  20
ENDBRANCH  18  19
ENDBRANCH   1  18
TORSDOF 8
