REMARK  Name = ZINC39681349
REMARK  11 active torsions:
REMARK  status: ('A' for Active; 'I' for Inactive)
REMARK    1  A    between atoms: C_1  and  C_2
REMARK    2  A    between atoms: C_4  and  C_11
REMARK    3  A    between atoms: N_5  and  C_7
REMARK    4  A    between atoms: C_7  and  C_8
REMARK    5  A    between atoms: C_7  and  C_9
REMARK    6  A    between atoms: C_7  and  C_10
REMARK    7  A    between atoms: C_15  and  C_24
REMARK    8  A    between atoms: N_26  and  C_27
REMARK    9  A    between atoms: C_27  and  C_28
REMARK   10  A    between atoms: C_28  and  O_29
REMARK   11  A    between atoms: O_29  and  C_30
REMARK                            x       y       z     vdW  Elec       q    Type
REMARK                         _______ _______ _______ _____ _____    ______ ____
ROOT
ATOM      1  C   UNL     1      -0.592  -4.012  -1.479  0.00  0.00    +0.265 C 
ATOM      2  O   UNL     1      -0.831  -3.822  -2.657  0.00  0.00    -0.268 OA
ATOM      3  N   UNL     1      -0.693  -5.253  -0.963  0.00  0.00    -0.295 N 
ATOM      4  C   UNL     1      -0.574  -5.658   0.458  0.00  0.00    +0.121 C 
ATOM      5  C   UNL     1      -1.657  -6.744   0.646  0.00  0.00    +0.100 C 
ATOM      6  C   UNL     1      -1.896  -7.308  -0.764  0.00  0.00    -0.004 C 
ATOM      7  C   UNL     1      -0.954  -6.520  -1.687  0.00  0.00    +0.115 C 
ATOM      8  C   UNL     1      -1.556  -8.794  -0.804  0.00  0.00    -0.010 C 
ATOM      9  C   UNL     1      -1.858  -9.345  -2.201  0.00  0.00    -0.082 C 
ATOM     10  N   UNL     1      -3.277  -9.139  -2.514  0.00  0.00    +0.379 N 
ATOM     11  C   UNL     1      -3.575  -7.703  -2.565  0.00  0.00    -0.082 C 
ATOM     12  C   UNL     1      -3.346  -7.083  -1.184  0.00  0.00    -0.010 C 
ATOM     13  H   UNL     1      -3.486  -9.557  -3.409  0.00  0.00    -0.086 HD
ATOM     14  H   UNL     1      -3.844  -9.574  -1.802  0.00  0.00    -0.086 HD
ENDROOT
BRANCH   1  18
ATOM     15  C   UNL     1       1.018  -1.183   2.410  0.00  0.00    +0.067 C 
ATOM     16  C   UNL     1       0.508  -1.639   1.067  0.00  0.00    +0.061 A 
ATOM     17  C   UNL     1       0.259  -2.960   0.688  0.00  0.00    +0.057 A 
ATOM     18  C   UNL     1      -0.192  -2.887  -0.619  0.00  0.00    +0.124 A 
ATOM     19  N   UNL     1      -0.191  -1.562  -0.950  0.00  0.00    -0.254 N 
ATOM     20  N   UNL     1       0.216  -0.868   0.051  0.00  0.00    -0.175 NA
BRANCH  19  21
ATOM     21  C   UNL     1      -0.596  -1.015  -2.247  0.00  0.00    +0.056 C 
ATOM     22  C   UNL     1      -2.013  -1.489  -2.580  0.00  0.00    +0.036 C 
ATOM     23  C   UNL     1      -0.571   0.513  -2.187  0.00  0.00    +0.036 C 
ATOM     24  C   UNL     1       0.371  -1.499  -3.330  0.00  0.00    +0.036 C 
ENDBRANCH  19  21
ENDBRANCH   1  18
BRANCH   5  25
ATOM     25  C   UNL     1      -1.159  -7.826   1.569  0.00  0.00    +0.218 C 
ATOM     26  O   UNL     1       0.030  -8.048   1.658  0.00  0.00    -0.275 OA
ATOM     27  N   UNL     1      -2.035  -8.548   2.295  0.00  0.00    -0.312 N 
ATOM     28  H   UNL     1      -2.989  -8.425   2.167  0.00  0.00    +0.149 HD
BRANCH  27  29
ATOM     29  C   UNL     1      -1.548  -9.518   3.279  0.00  0.00    +0.145 C 
BRANCH  29  30
ATOM     30  C   UNL     1      -2.738 -10.196   3.960  0.00  0.00    +0.248 C 
BRANCH  30  31
ATOM     31  O   UNL     1      -3.463 -10.965   2.998  0.00  0.00    -0.489 OA
BRANCH  31  32
ATOM     32  C   UNL     1      -4.559 -11.636   3.442  0.00  0.00    +0.139 A 
ATOM     33  C   UNL     1      -4.931 -11.551   4.776  0.00  0.00    +0.047 A 
ATOM     34  C   UNL     1      -6.045 -12.233   5.226  0.00  0.00    +0.004 A 
ATOM     35  C   UNL     1      -6.789 -13.000   4.348  0.00  0.00    +0.002 A 
ATOM     36  C   UNL     1      -6.420 -13.087   3.018  0.00  0.00    +0.023 A 
ATOM     37  C   UNL     1      -5.310 -12.402   2.562  0.00  0.00    +0.083 A 
ATOM     38 CL   UNL     1      -4.852 -12.505   0.891  0.00  0.00    -0.080 Cl
ENDBRANCH  31  32
ENDBRANCH  30  31
ENDBRANCH  29  30
ENDBRANCH  27  29
ENDBRANCH   5  25
TORSDOF 7
