REMARK  Name = ZINC22708973
REMARK  10 active torsions:
REMARK  status: ('A' for Active; 'I' for Inactive)
REMARK    1  A    between atoms: C_1  and  C_2
REMARK    2  A    between atoms: C_2  and  C_3
REMARK    3  A    between atoms: C_2  and  C_4
REMARK    4  A    between atoms: C_4  and  N_5
REMARK    5  A    between atoms: C_6  and  N_32
REMARK    6  A    between atoms: C_7  and  C_14
REMARK    7  A    between atoms: N_10  and  C_13
REMARK    8  A    between atoms: C_14  and  C_16
REMARK    9  A    between atoms: C_16  and  S_17
REMARK   10  A    between atoms: S_17  and  C_18
REMARK                            x       y       z     vdW  Elec       q    Type
REMARK                         _______ _______ _______ _____ _____    ______ ____
ROOT
ATOM      1  C   UNL     1      -0.382   1.268   1.748  0.00  0.00    +0.182 C 
ATOM      2  O   UNL     1      -1.386   1.947   1.826  0.00  0.00    -0.291 OA
ENDROOT
BRANCH   1   5
ATOM      3  N   UNL     1      -0.656  -0.839   4.761  0.00  0.00    -0.281 N 
ATOM      4  C   UNL     1      -0.990   0.077   3.804  0.00  0.00    +0.116 A 
ATOM      5  C   UNL     1      -0.081   0.336   2.764  0.00  0.00    +0.120 A 
ATOM      6  C   UNL     1       1.195  -0.391   2.771  0.00  0.00    +0.269 A 
ATOM      7  O   UNL     1       2.022  -0.203   1.899  0.00  0.00    -0.267 OA
ATOM      8  N   UNL     1       1.432  -1.271   3.766  0.00  0.00    -0.263 N 
ATOM      9  C   UNL     1       0.522  -1.481   4.731  0.00  0.00    +0.333 A 
ATOM     10  O   UNL     1       0.774  -2.283   5.609  0.00  0.00    -0.246 OA
ATOM     11  C   UNL     1       2.698  -2.007   3.794  0.00  0.00    +0.157 C 
BRANCH   4  12
ATOM     12  N   UNL     1      -2.186   0.724   3.854  0.00  0.00    -0.344 N 
ATOM     13  H   UNL     1      -2.446   1.460   3.078  0.00  0.00    +0.144 HD
ATOM     14  H   UNL     1      -2.893   0.511   4.670  0.00  0.00    +0.144 HD
ENDBRANCH   4  12
BRANCH   3  15
ATOM     15  C   UNL     1      -1.599  -1.119   5.846  0.00  0.00    +0.131 C 
BRANCH  15  17
ATOM     16  C   UNL     1      -2.396  -0.374   8.094  0.00  0.00    +0.009 C 
ATOM     17  C   UNL     1      -1.334  -0.166   7.013  0.00  0.00    +0.003 C 
ATOM     18  C   UNL     1       0.052  -0.449   7.597  0.00  0.00    +0.009 C 
ENDBRANCH  15  17
ENDBRANCH   3  15
ENDBRANCH   1   5
BRANCH   1  19
ATOM     19  C   UNL     1       0.542   1.421   0.568  0.00  0.00    +0.157 C 
BRANCH  19  20
ATOM     20  S   UNL     1      -0.113   2.684  -0.551  0.00  0.00    -0.078 S 
BRANCH  20  21
ATOM     21  C   UNL     1       1.127   2.657  -1.803  0.00  0.00    +0.191 A 
ATOM     22  N   UNL     1       2.157   1.827  -1.682  0.00  0.00    -0.207 NA
ATOM     23  C   UNL     1       3.114   1.758  -2.591  0.00  0.00    +0.129 A 
ATOM     24  C   UNL     1       3.051   2.605  -3.733  0.00  0.00    +0.051 A 
ATOM     25  C   UNL     1       3.991   2.703  -4.852  0.00  0.00    -0.025 A 
ATOM     26  C   UNL     1       3.699   3.594  -5.820  0.00  0.00    -0.004 A 
ATOM     27  S   UNL     1       2.178   4.349  -5.310  0.00  0.00    -0.073 S 
ATOM     28  C   UNL     1       1.935   3.462  -3.793  0.00  0.00    +0.115 A 
ATOM     29  N   UNL     1       1.017   3.469  -2.846  0.00  0.00    -0.215 NA
ATOM     30  C   UNL     1       4.492   3.882  -7.058  0.00  0.00    +0.043 C 
ATOM     31  C   UNL     1       5.892   3.274  -6.889  0.00  0.00    +0.005 C 
ATOM     32  C   UNL     1       5.745   1.836  -6.384  0.00  0.00    +0.005 C 
ATOM     33  C   UNL     1       5.249   1.843  -4.937  0.00  0.00    +0.037 C 
ATOM     34  N   UNL     1       4.168   0.877  -2.431  0.00  0.00    -0.343 N 
ATOM     35  H   UNL     1       4.961   0.824  -3.191  0.00  0.00    +0.144 HD
ATOM     36  H   UNL     1       4.213   0.228  -1.544  0.00  0.00    +0.144 HD
ENDBRANCH  20  21
ENDBRANCH  19  20
ENDBRANCH   1  19
TORSDOF 7
