REMARK  Name = ZINC10045768
REMARK  6 active torsions:
REMARK  status: ('A' for Active; 'I' for Inactive)
REMARK    1  A    between atoms: C_10  and  C_11
REMARK    2  A    between atoms: C_11  and  N_12
REMARK    3  A    between atoms: C_14  and  C_19
REMARK    4  A    between atoms: N_21  and  C_22
REMARK    5  A    between atoms: C_25  and  S_28
REMARK    6  A    between atoms: S_28  and  N_31
REMARK                            x       y       z     vdW  Elec       q    Type
REMARK                         _______ _______ _______ _____ _____    ______ ____
ROOT
ATOM      1  N   UNL     1      -2.287  -4.204   0.417  0.00  0.00    -0.310 N 
ATOM      2  C   UNL     1      -2.326  -2.863   0.302  0.00  0.00    +0.102 A 
ATOM      3  C   UNL     1      -1.159  -2.137   0.182  0.00  0.00    +0.053 A 
ATOM      4  C   UNL     1       0.086  -2.812   0.193  0.00  0.00    +0.020 A 
ATOM      5  C   UNL     1       0.101  -4.166   0.316  0.00  0.00    +0.071 A 
ATOM      6  C   UNL     1      -1.116  -4.865   0.430  0.00  0.00    +0.252 A 
ATOM      7  O   UNL     1      -1.108  -6.080   0.541  0.00  0.00    -0.268 OA
ENDROOT
BRANCH   3   8
ATOM      8  C   UNL     1      -1.207  -0.670   0.049  0.00  0.00    +0.250 C 
ATOM      9  O   UNL     1      -2.278  -0.095   0.040  0.00  0.00    -0.270 OA
ATOM     10  N   UNL     1      -0.063   0.035  -0.062  0.00  0.00    -0.281 N 
ATOM     11  H   UNL     1       0.787  -0.428  -0.130  0.00  0.00    +0.155 HD
BRANCH  10  12
ATOM     12  C   UNL     1      -0.102   1.433  -0.080  0.00  0.00    +0.034 A 
ATOM     13  C   UNL     1       0.827   2.145  -0.827  0.00  0.00    +0.025 A 
ATOM     14  C   UNL     1       0.784   3.525  -0.846  0.00  0.00    +0.030 A 
ATOM     15  C   UNL     1      -0.178   4.198  -0.114  0.00  0.00    +0.105 A 
ATOM     16  C   UNL     1      -1.101   3.492   0.635  0.00  0.00    +0.030 A 
ATOM     17  C   UNL     1      -1.066   2.111   0.654  0.00  0.00    +0.025 A 
BRANCH  15  18
ATOM     18  S   UNL     1      -0.226   5.960  -0.136  0.00  0.00    +0.056 S 
ATOM     19  O   UNL     1       0.402   6.368  -1.343  0.00  0.00    -0.153 OA
ATOM     20  O   UNL     1      -1.557   6.333   0.195  0.00  0.00    -0.153 OA
BRANCH  18  21
ATOM     21  N   UNL     1       0.737   6.492   1.102  0.00  0.00    -0.204 NA
ATOM     22  H   UNL     1       1.194   5.852   1.670  0.00  0.00    +0.144 HD
ATOM     23  H   UNL     1       0.843   7.443   1.259  0.00  0.00    +0.144 HD
ENDBRANCH  18  21
ENDBRANCH  15  18
ENDBRANCH  10  12
ENDBRANCH   3   8
BRANCH   1  24
ATOM     24  C   UNL     1      -3.540  -4.954   0.537  0.00  0.00    +0.160 C 
BRANCH  24  34
ATOM     25  C   UNL     1      -7.633  -6.657   3.095  0.00  0.00    +0.001 A 
ATOM     26  C   UNL     1      -7.260  -6.624   1.753  0.00  0.00    +0.001 A 
ATOM     27  C   UNL     1      -6.069  -6.088   1.369  0.00  0.00    +0.009 A 
ATOM     28  C   UNL     1      -5.203  -5.555   2.339  0.00  0.00    -0.013 A 
ATOM     29  C   UNL     1      -5.580  -5.593   3.705  0.00  0.00    -0.018 A 
ATOM     30  C   UNL     1      -6.818  -6.154   4.062  0.00  0.00    +0.008 A 
ATOM     31  C   UNL     1      -4.712  -5.064   4.675  0.00  0.00    +0.008 A 
ATOM     32  C   UNL     1      -3.521  -4.529   4.292  0.00  0.00    +0.001 A 
ATOM     33  C   UNL     1      -3.147  -4.496   2.950  0.00  0.00    +0.006 A 
ATOM     34  C   UNL     1      -3.962  -4.999   1.983  0.00  0.00    -0.020 A 
ENDBRANCH  24  34
ENDBRANCH   1  24
TORSDOF 6
