REMARK  Name = ZINC29706630
REMARK  13 active torsions:
REMARK  status: ('A' for Active; 'I' for Inactive)
REMARK    1  A    between atoms: C_1  and  C_2
REMARK    2  A    between atoms: C_2  and  C_3
REMARK    3  A    between atoms: C_2  and  C_4
REMARK    4  A    between atoms: C_4  and  C_6
REMARK    5  A    between atoms: C_4  and  N_11
REMARK    6  A    between atoms: N_11  and  C_12
REMARK    7  A    between atoms: C_12  and  C_13
REMARK    8  A    between atoms: C_13  and  C_15
REMARK    9  A    between atoms: C_13  and  O_27
REMARK   10  A    between atoms: C_15  and  O_16
REMARK   11  A    between atoms: O_16  and  C_17
REMARK   12  A    between atoms: C_20  and  N_23
REMARK   13  A    between atoms: C_24  and  C_26
REMARK                            x       y       z     vdW  Elec       q    Type
REMARK                         _______ _______ _______ _____ _____    ______ ____
ROOT
ATOM      1  C   UNL     1      -6.472   5.095   0.521  0.00  0.00    +0.135 C 
ENDROOT
BRANCH   1   2
ATOM      2  O   UNL     1      -7.040   5.040   1.831  0.00  0.00    -0.390 OA
ATOM      3  H   UNL     1      -7.133   4.075   2.351  0.00  0.00    +0.210 HD
ENDBRANCH   1   2
BRANCH   1   4
ATOM      4  C   UNL     1      -6.460   6.543   0.030  0.00  0.00    -0.047 C 
BRANCH   4   5
ATOM      5  N   UNL     1      -7.835   7.059  -0.011  0.00  0.00    +0.386 N 
ATOM      6  H   UNL     1      -8.233   7.081   1.014  0.00  0.00    -0.085 HD
ATOM      7  H   UNL     1      -8.446   6.384  -0.627  0.00  0.00    -0.085 HD
BRANCH   5   8
ATOM      8  C   UNL     1      -7.873   8.412  -0.581  0.00  0.00    -0.031 C 
BRANCH   8   9
ATOM      9  C   UNL     1      -7.645   9.424   0.513  0.00  0.00    -0.024 A 
ATOM     10  C   UNL     1      -6.910  10.563   0.482  0.00  0.00    +0.009 A 
ATOM     11  C   UNL     1      -6.846  11.350   1.617  0.00  0.00    +0.008 A 
ATOM     12  C   UNL     1      -7.511  10.954   2.730  0.00  0.00    +0.045 A 
ATOM     13  S   UNL     1      -8.266   9.430   2.186  0.00  0.00    -0.103 S 
ENDBRANCH   8   9
BRANCH   8  15
ATOM     14  C   UNL     1      -9.420   7.708  -2.412  0.00  0.00    +0.006 C 
ATOM     15  C   UNL     1      -9.239   8.656  -1.224  0.00  0.00    -0.027 C 
ATOM     16  C   UNL     1     -10.341   8.400  -0.194  0.00  0.00    +0.006 C 
ENDBRANCH   8  15
ENDBRANCH   5   8
ENDBRANCH   4   5
ENDBRANCH   1   4
BRANCH   1  17
ATOM     17  C   UNL     1      -5.040   4.558   0.563  0.00  0.00    +0.258 C 
BRANCH  17  18
ATOM     18  O   UNL     1      -5.061   3.171   0.909  0.00  0.00    -0.489 OA
BRANCH  18  19
ATOM     19  C   UNL     1      -3.861   2.537   0.991  0.00  0.00    +0.121 A 
ATOM     20  C   UNL     1      -3.809   1.191   1.322  0.00  0.00    +0.047 A 
ATOM     21  C   UNL     1      -2.591   0.547   1.405  0.00  0.00    +0.027 A 
ATOM     22  C   UNL     1      -1.417   1.246   1.156  0.00  0.00    +0.034 A 
ATOM     23  C   UNL     1      -1.470   2.595   0.829  0.00  0.00    +0.027 A 
ATOM     24  C   UNL     1      -2.689   3.237   0.741  0.00  0.00    +0.047 A 
BRANCH  22  25
ATOM     25  N   UNL     1      -0.181   0.593   1.240  0.00  0.00    -0.286 N 
ATOM     26  C   UNL     1       0.831   0.957   0.427  0.00  0.00    +0.214 C 
ATOM     27  O   UNL     1       0.650   1.801  -0.426  0.00  0.00    -0.276 OA
ATOM     28  C   UNL     1       2.187   0.317   0.578  0.00  0.00    +0.109 C 
ATOM     29  H   UNL     1      -0.035  -0.217   1.970  0.00  0.00    +0.155 HD
ENDBRANCH  22  25
ENDBRANCH  18  19
ENDBRANCH  17  18
ENDBRANCH   1  17
TORSDOF 10
