REMARK  Name = ZINC14095397
REMARK  9 active torsions:
REMARK  status: ('A' for Active; 'I' for Inactive)
REMARK    1  A    between atoms: C_1  and  O_2
REMARK    2  A    between atoms: O_2  and  C_3
REMARK    3  A    between atoms: C_6  and  C_9
REMARK    4  A    between atoms: C_9  and  C_11
REMARK    5  A    between atoms: C_9  and  N_63
REMARK    6  A    between atoms: C_11  and  N_12
REMARK    7  A    between atoms: C_13  and  C_15
REMARK    8  A    between atoms: N_20  and  S_22
REMARK    9  A    between atoms: S_22  and  C_25
REMARK                            x       y       z     vdW  Elec       q    Type
REMARK                         _______ _______ _______ _____ _____    ______ ____
ROOT
ATOM      1  N   UNL     1      -4.324   0.166   1.448  0.00  0.00    -0.316 N 
ATOM      2  C   UNL     1      -4.961  -0.082   2.610  0.00  0.00    +0.217 C 
ATOM      3  O   UNL     1      -4.445   0.231   3.663  0.00  0.00    -0.275 OA
ATOM      4  H   UNL     1      -4.737  -0.084   0.607  0.00  0.00    +0.149 HD
ENDROOT
BRANCH   2   5
ATOM      5  C   UNL     1      -6.313  -0.747   2.602  0.00  0.00    +0.091 C 
ATOM      6  C   UNL     1      -7.302   0.116   1.816  0.00  0.00    +0.015 C 
ATOM      7  C   UNL     1      -8.667  -0.575   1.779  0.00  0.00    +0.018 C 
ATOM      8  C   UNL     1      -9.194  -0.733   3.209  0.00  0.00    +0.109 C 
ATOM      9  N   UNL     1      -8.183  -1.437   4.010  0.00  0.00    -0.175 NA
ATOM     10  C   UNL     1      -6.812  -0.908   4.041  0.00  0.00    +0.122 C 
BRANCH   9  11
ATOM     11  S   UNL     1      -8.580  -2.802   4.860  0.00  0.00    +0.067 S 
ATOM     12  O   UNL     1      -7.634  -2.912   5.915  0.00  0.00    -0.152 OA
ATOM     13  O   UNL     1      -9.980  -2.741   5.095  0.00  0.00    -0.152 OA
BRANCH  11  14
ATOM     14  C   UNL     1      -8.308  -4.178   3.793  0.00  0.00    +0.143 A 
ATOM     15  C   UNL     1      -7.184  -4.917   3.624  0.00  0.00    +0.036 A 
ATOM     16  C   UNL     1      -7.201  -5.964   2.721  0.00  0.00    +0.010 A 
ATOM     17  C   UNL     1      -8.340  -6.220   2.033  0.00  0.00    +0.047 A 
ATOM     18  S   UNL     1      -9.442  -4.965   2.662  0.00  0.00    -0.077 S 
ENDBRANCH  11  14
ENDBRANCH   9  11
ENDBRANCH   2   5
BRANCH   1  19
ATOM     19  C   UNL     1      -3.010   0.813   1.457  0.00  0.00    +0.093 C 
BRANCH  19  20
ATOM     20  C   UNL     1      -2.513   0.977   0.019  0.00  0.00    -0.020 C 
BRANCH  20  24
ATOM     21  C   UNL     1       1.151   3.177   0.015  0.00  0.00    +0.120 A 
ATOM     22  C   UNL     1       0.971   2.125  -0.871  0.00  0.00    +0.046 A 
ATOM     23  C   UNL     1      -0.213   1.413  -0.865  0.00  0.00    +0.005 A 
ATOM     24  C   UNL     1      -1.220   1.751   0.019  0.00  0.00    -0.059 A 
ATOM     25  C   UNL     1      -1.041   2.796   0.908  0.00  0.00    +0.005 A 
ATOM     26  C   UNL     1       0.141   3.511   0.906  0.00  0.00    +0.046 A 
BRANCH  21  28
ATOM     27  C   UNL     1       2.430   4.949   0.952  0.00  0.00    +0.277 C 
ATOM     28  O   UNL     1       2.314   3.879   0.011  0.00  0.00    -0.495 OA
ENDBRANCH  21  28
ENDBRANCH  20  24
BRANCH  20  33
ATOM     29  C   UNL     1      -3.637   3.112  -0.308  0.00  0.00    -0.078 C 
ATOM     30  C   UNL     1      -4.290   3.826  -1.518  0.00  0.00    -0.020 C 
ATOM     31  C   UNL     1      -3.627   3.131  -2.729  0.00  0.00    -0.020 C 
ATOM     32  C   UNL     1      -3.128   1.776  -2.192  0.00  0.00    -0.078 C 
ATOM     33  N   UNL     1      -3.527   1.724  -0.784  0.00  0.00    +0.385 N 
ATOM     34  H   UNL     1      -4.437   1.255  -0.699  0.00  0.00    -0.081 HD
ENDBRANCH  20  33
ENDBRANCH  19  20
ENDBRANCH   1  19
TORSDOF 8
