REMARK  Name = ZINC13425303
REMARK  4 active torsions:
REMARK  status: ('A' for Active; 'I' for Inactive)
REMARK    1  A    between atoms: C_1  and  C_2
REMARK    2  A    between atoms: C_15  and  C_17
REMARK    3  A    between atoms: C_21  and  C_32
REMARK    4  A    between atoms: C_24  and  C_28
REMARK                            x       y       z     vdW  Elec       q    Type
REMARK                         _______ _______ _______ _____ _____    ______ ____
ROOT
ATOM      1  C   UNL     1      -2.415  -4.022   1.945  0.00  0.00    +0.110 C 
ATOM      2  C   UNL     1      -3.348  -3.764   0.996  0.00  0.00    +0.072 C 
ATOM      3  C   UNL     1      -4.545  -4.529   1.345  0.00  0.00    +0.114 C 
ATOM      4  N   UNL     1      -5.698  -4.597   0.743  0.00  0.00    -0.365 N 
ATOM      5  C   UNL     1      -6.761  -5.423   1.329  0.00  0.00    +0.113 C 
ATOM      6  C   UNL     1      -6.164  -6.630   2.055  0.00  0.00    +0.062 C 
ATOM      7  C   UNL     1      -5.190  -6.151   3.143  0.00  0.00    +0.201 C 
ATOM      8  N   UNL     1      -4.241  -5.235   2.503  0.00  0.00    -0.226 N 
ATOM      9  N   UNL     1      -2.941  -4.908   2.872  0.00  0.00    -0.258 N 
ATOM     10  H   UNL     1      -2.477  -5.244   3.655  0.00  0.00    +0.170 HD
ATOM     11  H   UNL     1      -5.853  -4.109  -0.081  0.00  0.00    +0.161 HD
ENDROOT
BRANCH   1  23
ATOM     12  C   UNL     1       0.095  -0.506   6.425  0.00  0.00    +0.008 C 
ATOM     13  C   UNL     1      -0.211  -0.723   4.942  0.00  0.00    -0.008 C 
ATOM     14  C   UNL     1      -1.590  -1.372   4.793  0.00  0.00    +0.022 C 
ATOM     15  C   UNL     1      -1.907  -1.577   3.309  0.00  0.00    +0.109 C 
ATOM     16  N   UNL     1      -0.808  -2.327   2.681  0.00  0.00    -0.293 N 
ATOM     17  C   UNL     1       0.558  -1.816   2.837  0.00  0.00    +0.080 C 
ATOM     18  C   UNL     1       0.847  -1.641   4.331  0.00  0.00    +0.012 C 
ATOM     19  C   UNL     1       2.244  -1.047   4.505  0.00  0.00    +0.005 C 
ATOM     20  C   UNL     1       3.273  -2.008   3.904  0.00  0.00    +0.000 C 
ATOM     21  C   UNL     1       2.980  -2.221   2.419  0.00  0.00    +0.002 C 
ATOM     22  C   UNL     1       1.569  -2.794   2.241  0.00  0.00    +0.023 C 
ATOM     23  C   UNL     1      -1.050  -3.453   1.982  0.00  0.00    +0.262 C 
ATOM     24  O   UNL     1      -0.147  -4.002   1.381  0.00  0.00    -0.269 OA
ENDBRANCH   1  23
BRANCH   5  25
ATOM     25  C   UNL     1      -7.550  -4.595   2.309  0.00  0.00    -0.025 A 
ATOM     26  C   UNL     1      -6.901  -3.701   3.140  0.00  0.00    +0.005 A 
ATOM     27  C   UNL     1      -7.625  -2.942   4.040  0.00  0.00    +0.000 A 
ATOM     28  C   UNL     1      -9.000  -3.075   4.107  0.00  0.00    +0.000 A 
ATOM     29  C   UNL     1      -9.649  -3.968   3.276  0.00  0.00    +0.000 A 
ATOM     30  C   UNL     1      -8.925  -4.725   2.374  0.00  0.00    +0.005 A 
ENDBRANCH   5  25
BRANCH   7  31
ATOM     31  C   UNL     1      -4.442  -7.347   3.736  0.00  0.00    +0.410 C 
ATOM     32  F   UNL     1      -3.724  -7.995   2.726  0.00  0.00    -0.169 F 
ATOM     33  F   UNL     1      -3.559  -6.902   4.725  0.00  0.00    -0.169 F 
ATOM     34  F   UNL     1      -5.362  -8.239   4.300  0.00  0.00    -0.169 F 
ENDBRANCH   7  31
TORSDOF 3
