REMARK  Name = ZINC05968913
REMARK  7 active torsions:
REMARK  status: ('A' for Active; 'I' for Inactive)
REMARK    1  A    between atoms: C_1  and  C_2
REMARK    2  A    between atoms: C_5  and  C_8
REMARK    3  A    between atoms: C_12  and  C_14
REMARK    4  A    between atoms: C_14  and  C_16
REMARK    5  A    between atoms: C_14  and  O_17
REMARK    6  A    between atoms: O_17  and  C_18
REMARK    7  A    between atoms: C_23  and  C_24
REMARK                            x       y       z     vdW  Elec       q    Type
REMARK                         _______ _______ _______ _____ _____    ______ ____
ROOT
ATOM      1  C   UNL     1      -0.314  -4.478  -0.378  0.00  0.00    +0.156 A 
ATOM      2  N   UNL     1      -0.386  -5.399  -1.366  0.00  0.00    -0.258 N 
ATOM      3  H   UNL     1      -0.515  -5.229  -2.312  0.00  0.00    +0.191 HD
ATOM      4  N   UNL     1      -0.235  -6.651  -0.748  0.00  0.00    -0.153 NA
ATOM      5  C   UNL     1      -0.086  -6.429   0.532  0.00  0.00    +0.191 A 
ATOM      6  N   UNL     1      -0.128  -5.119   0.757  0.00  0.00    -0.208 NA
ENDROOT
BRANCH   1  11
ATOM      7  C   UNL     1      -0.726   1.227  -1.023  0.00  0.00    +0.044 C 
ATOM      8  C   UNL     1      -0.618  -0.267  -0.854  0.00  0.00    -0.050 A 
ATOM      9  C   UNL     1      -0.716  -1.094  -1.959  0.00  0.00    +0.004 A 
ATOM     10  C   UNL     1      -0.618  -2.462  -1.811  0.00  0.00    +0.012 A 
ATOM     11  C   UNL     1      -0.420  -3.011  -0.544  0.00  0.00    +0.019 A 
ATOM     12  C   UNL     1      -0.322  -2.172   0.566  0.00  0.00    +0.012 A 
ATOM     13  C   UNL     1      -0.416  -0.805   0.404  0.00  0.00    +0.004 A 
ENDBRANCH   1  11
BRANCH   5  14
ATOM     14  C   UNL     1       0.109  -7.490   1.585  0.00  0.00    +0.239 C 
ATOM     15  C   UNL     1      -1.223  -8.194   1.852  0.00  0.00    +0.060 C 
BRANCH  14  16
ATOM     16  O   UNL     1       1.069  -8.445   1.127  0.00  0.00    -0.481 OA
BRANCH  16  17
ATOM     17  C   UNL     1       1.747  -9.143   2.076  0.00  0.00    +0.125 A 
ATOM     18  C   UNL     1       1.415  -8.995   3.415  0.00  0.00    +0.047 A 
ATOM     19  C   UNL     1       2.105  -9.705   4.378  0.00  0.00    +0.023 A 
ATOM     20  C   UNL     1       3.127 -10.562   4.009  0.00  0.00    +0.041 A 
ATOM     21  C   UNL     1       3.459 -10.710   2.674  0.00  0.00    +0.027 A 
ATOM     22  C   UNL     1       2.767 -10.007   1.707  0.00  0.00    -0.007 A 
ATOM     23  C   UNL     1       3.124 -10.174   0.252  0.00  0.00    +0.047 C 
ATOM     24 CL   UNL     1       3.993 -11.453   5.221  0.00  0.00    -0.084 Cl
ENDBRANCH  16  17
ENDBRANCH  14  16
ENDBRANCH   5  14
TORSDOF 4
