REMARK  Name = ZINC04110144
REMARK  4 active torsions:
REMARK  status: ('A' for Active; 'I' for Inactive)
REMARK    1  A    between atoms: C_1  and  C_2
REMARK    2  A    between atoms: C_5  and  S_8
REMARK    3  A    between atoms: S_8  and  N_11
REMARK    4  A    between atoms: N_14  and  C_15
REMARK                            x       y       z     vdW  Elec       q    Type
REMARK                         _______ _______ _______ _____ _____    ______ ____
ROOT
ATOM      1  N   UNL     1      -4.735   0.996  -0.087  0.00  0.00    -0.169 N 
ATOM      2  C   UNL     1      -3.566   1.667  -0.084  0.00  0.00    +0.332 C 
ATOM      3  O   UNL     1      -3.560   2.879  -0.182  0.00  0.00    -0.250 OA
ATOM      4  N   UNL     1      -2.403   0.995   0.028  0.00  0.00    -0.200 N 
ATOM      5  C   UNL     1      -1.202   1.693   0.126  0.00  0.00    +0.195 A 
ATOM      6  N   UNL     1      -1.005   2.981   0.228  0.00  0.00    -0.149 NA
ATOM      7  N   UNL     1       0.272   3.488   0.314  0.00  0.00    -0.262 N 
ATOM      8  H   UNL     1       0.420   4.443   0.390  0.00  0.00    +0.190 HD
ATOM      9  C   UNL     1       1.317   2.624   0.291  0.00  0.00    +0.142 A 
ATOM     10  S   UNL     1       2.997   2.945   0.378  0.00  0.00    -0.024 S 
ATOM     11  S   UNL     1       0.467   1.059   0.151  0.00  0.00    -0.025 S 
ATOM     12  H   UNL     1      -4.737   0.026  -0.084  0.00  0.00    +0.178 HD
ENDROOT
BRANCH   4  13
ATOM     13  C   UNL     1      -2.403  -0.406   0.047  0.00  0.00    +0.045 A 
ATOM     14  C   UNL     1      -2.057  -1.086   1.206  0.00  0.00    +0.024 A 
ATOM     15  C   UNL     1      -2.063  -2.467   1.223  0.00  0.00    +0.002 A 
ATOM     16  C   UNL     1      -2.408  -3.172   0.085  0.00  0.00    +0.000 A 
ATOM     17  C   UNL     1      -2.748  -2.498  -1.074  0.00  0.00    +0.002 A 
ATOM     18  C   UNL     1      -2.744  -1.117  -1.097  0.00  0.00    +0.024 A 
ENDBRANCH   4  13
BRANCH   1  19
ATOM     19  S   UNL     1      -6.167   1.828  -0.096  0.00  0.00    +0.076 S 
ATOM     20  O   UNL     1      -7.202   0.854  -0.125  0.00  0.00    -0.150 OA
ATOM     21  O   UNL     1      -6.073   2.809   0.927  0.00  0.00    -0.150 OA
BRANCH  19  26
ATOM     22  C   UNL     1      -6.463   4.815  -5.330  0.00  0.00    +0.044 C 
ATOM     23  C   UNL     1      -6.389   4.069  -4.023  0.00  0.00    -0.050 A 
ATOM     24  C   UNL     1      -6.897   2.787  -3.929  0.00  0.00    +0.005 A 
ATOM     25  C   UNL     1      -6.830   2.102  -2.730  0.00  0.00    +0.029 A 
ATOM     26  C   UNL     1      -6.253   2.700  -1.625  0.00  0.00    +0.109 A 
ATOM     27  C   UNL     1      -5.750   3.984  -1.717  0.00  0.00    +0.029 A 
ATOM     28  C   UNL     1      -5.813   4.667  -2.917  0.00  0.00    +0.005 A 
ENDBRANCH  19  26
ENDBRANCH   1  19
TORSDOF 3
