REMARK  Name = ZINC20834872
REMARK  9 active torsions:
REMARK  status: ('A' for Active; 'I' for Inactive)
REMARK    1  A    between atoms: C_4  and  C_7
REMARK    2  A    between atoms: C_7  and  O_8
REMARK    3  A    between atoms: O_8  and  C_9
REMARK    4  A    between atoms: C_14  and  C_15
REMARK    5  A    between atoms: N_16  and  N_17
REMARK    6  A    between atoms: C_20  and  S_23
REMARK    7  A    between atoms: S_23  and  C_24
REMARK    8  A    between atoms: C_24  and  C_25
REMARK    9  A    between atoms: N_27  and  C_28
REMARK                            x       y       z     vdW  Elec       q    Type
REMARK                         _______ _______ _______ _____ _____    ______ ____
ROOT
ATOM      1  N   UNL     1       3.082  -0.356  -4.977  0.00  0.00    -0.205 N 
ATOM      2  C   UNL     1       1.882   0.315  -4.787  0.00  0.00    +0.232 A 
ATOM      3  N   UNL     1       1.055   0.777  -5.773  0.00  0.00    -0.186 NA
ATOM      4  C   UNL     1      -0.018   1.377  -5.178  0.00  0.00    +0.211 A 
ATOM      5  N   UNL     1       0.139   1.290  -3.878  0.00  0.00    -0.144 NA
ATOM      6  N   UNL     1       1.340   0.612  -3.631  0.00  0.00    -0.245 N 
ATOM      7  H   UNL     1       3.443  -0.559  -5.995  0.00  0.00    +0.177 HD
ATOM      8  H   UNL     1       1.843   0.322  -2.697  0.00  0.00    +0.192 HD
ENDROOT
BRANCH   1  10
ATOM      9  C   UNL     1       4.955  -1.404  -4.048  0.00  0.00    +0.142 C 
ATOM     10  N   UNL     1       3.832  -0.776  -3.870  0.00  0.00    -0.187 NA
BRANCH   9  16
ATOM     11  C   UNL     1       5.287  -1.589  -1.585  0.00  0.00    +0.130 A 
ATOM     12  C   UNL     1       6.039  -2.003  -0.498  0.00  0.00    +0.046 A 
ATOM     13  C   UNL     1       7.231  -2.675  -0.695  0.00  0.00    +0.004 A 
ATOM     14  C   UNL     1       7.687  -2.930  -1.978  0.00  0.00    +0.001 A 
ATOM     15  C   UNL     1       6.952  -2.520  -3.071  0.00  0.00    +0.013 A 
ATOM     16  C   UNL     1       5.744  -1.845  -2.884  0.00  0.00    +0.036 A 
BRANCH  11  17
ATOM     17  O   UNL     1       4.113  -0.932  -1.391  0.00  0.00    -0.487 OA
BRANCH  17  18
ATOM     18  C   UNL     1       3.711  -0.707  -0.039  0.00  0.00    +0.264 C 
BRANCH  18  22
ATOM     19  C   UNL     1      -0.017   1.378   0.010  0.00  0.00    +0.000 A 
ATOM     20  C   UNL     1       1.171   2.086   0.002  0.00  0.00    +0.000 A 
ATOM     21  C   UNL     1       2.377   1.411  -0.014  0.00  0.00    +0.007 A 
ATOM     22  C   UNL     1       2.396   0.029  -0.022  0.00  0.00    -0.010 A 
ATOM     23  C   UNL     1       1.208  -0.679  -0.014  0.00  0.00    +0.007 A 
ATOM     24  C   UNL     1       0.002  -0.004   0.002  0.00  0.00    +0.000 A 
ENDBRANCH  18  22
ENDBRANCH  17  18
ENDBRANCH  11  17
ENDBRANCH   9  16
ENDBRANCH   1  10
BRANCH   4  25
ATOM     25  S   UNL     1      -1.373   2.136  -6.009  0.00  0.00    -0.075 S 
BRANCH  25  26
ATOM     26  C   UNL     1      -2.436   2.731  -4.664  0.00  0.00    +0.173 C 
BRANCH  26  27
ATOM     27  C   UNL     1      -3.649   3.410  -5.245  0.00  0.00    +0.224 C 
ATOM     28  O   UNL     1      -3.783   3.486  -6.448  0.00  0.00    -0.275 OA
ATOM     29  N   UNL     1      -4.584   3.933  -4.428  0.00  0.00    -0.308 N 
ATOM     30  H   UNL     1      -4.462   3.864  -3.337  0.00  0.00    +0.149 HD
BRANCH  29  31
ATOM     31  C   UNL     1      -5.764   4.593  -4.993  0.00  0.00    +0.103 C 
ATOM     32  C   UNL     1      -6.915   4.510  -3.993  0.00  0.00    +0.027 C 
ATOM     33  C   UNL     1      -8.064   5.388  -4.503  0.00  0.00    +0.007 C 
ATOM     34  C   UNL     1      -7.641   6.851  -4.385  0.00  0.00    +0.035 C 
ATOM     35  C   UNL     1      -6.295   7.066  -5.026  0.00  0.00    -0.042 A 
ATOM     36  C   UNL     1      -5.430   6.030  -5.298  0.00  0.00    -0.024 A 
ATOM     37  C   UNL     1      -4.197   6.299  -5.878  0.00  0.00    +0.006 A 
ATOM     38  C   UNL     1      -3.834   7.594  -6.186  0.00  0.00    +0.000 A 
ATOM     39  C   UNL     1      -4.705   8.633  -5.918  0.00  0.00    +0.000 A 
ATOM     40  C   UNL     1      -5.929   8.368  -5.340  0.00  0.00    +0.004 A 
ENDBRANCH  29  31
ENDBRANCH  26  27
ENDBRANCH  25  26
ENDBRANCH   4  25
TORSDOF 9
