REMARK  Name = ZINC41630773
REMARK  7 active torsions:
REMARK  status: ('A' for Active; 'I' for Inactive)
REMARK    1  A    between atoms: C_1  and  N_2
REMARK    2  A    between atoms: N_2  and  C_3
REMARK    3  A    between atoms: N_2  and  C_4
REMARK    4  A    between atoms: C_4  and  C_9
REMARK    5  A    between atoms: C_9  and  N_10
REMARK    6  A    between atoms: N_10  and  S_11
REMARK    7  A    between atoms: S_11  and  C_14
REMARK                            x       y       z     vdW  Elec       q    Type
REMARK                         _______ _______ _______ _____ _____    ______ ____
ROOT
ATOM      1  S   UNL     1      -3.666   2.061   1.774  0.00  0.00    +0.058 S 
ATOM      2  O   UNL     1      -3.605   3.444   1.456  0.00  0.00    -0.153 OA
ATOM      3  O   UNL     1      -4.820   1.271   1.521  0.00  0.00    -0.153 OA
ENDROOT
BRANCH   1   4
ATOM      4  C   UNL     1      -3.332   1.925   3.499  0.00  0.00    +0.109 A 
ATOM      5  C   UNL     1      -3.781   0.824   4.204  0.00  0.00    +0.032 A 
ATOM      6  C   UNL     1      -3.523   0.710   5.558  0.00  0.00    +0.051 A 
ATOM      7  C   UNL     1      -2.811   1.705   6.206  0.00  0.00    +0.162 A 
ATOM      8  C   UNL     1      -2.360   2.811   5.499  0.00  0.00    +0.164 A 
ATOM      9  C   UNL     1      -2.617   2.919   4.143  0.00  0.00    +0.078 A 
ATOM     10  O   UNL     1      -1.659   3.786   6.148  0.00  0.00    -0.488 OA
ATOM     11  C   UNL     1      -2.396   4.561   7.095  0.00  0.00    +0.232 C 
ATOM     12  C   UNL     1      -2.449   3.858   8.443  0.00  0.00    +0.082 C 
ATOM     13  C   UNL     1      -3.217   2.547   8.383  0.00  0.00    +0.232 C 
ATOM     14  O   UNL     1      -2.548   1.605   7.542  0.00  0.00    -0.488 OA
ENDBRANCH   1   4
BRANCH   1  15
ATOM     15  N   UNL     1      -2.411   1.335   0.974  0.00  0.00    -0.191 NA
ATOM     16  H   UNL     1      -1.826   1.864   0.410  0.00  0.00    +0.148 HD
BRANCH  15  17
ATOM     17  C   UNL     1      -2.184  -0.105   1.120  0.00  0.00    +0.094 C 
BRANCH  17  18
ATOM     18  C   UNL     1      -1.240  -0.586   0.016  0.00  0.00    -0.052 C 
ATOM     19  C   UNL     1      -1.893  -0.379  -1.367  0.00  0.00    -0.011 C 
ATOM     20  C   UNL     1      -1.446  -1.615  -2.186  0.00  0.00    -0.001 C 
ATOM     21  C   UNL     1      -1.494  -2.756  -1.139  0.00  0.00    -0.001 C 
ATOM     22  C   UNL     1      -0.987  -2.097   0.161  0.00  0.00    -0.011 C 
BRANCH  18  24
ATOM     23  C   UNL     1       0.677  -0.118   1.379  0.00  0.00    -0.096 C 
ATOM     24  N   UNL     1       0.031   0.146   0.087  0.00  0.00    +0.381 N 
ATOM     25  C   UNL     1       0.913  -0.298  -1.001  0.00  0.00    -0.096 C 
ATOM     26  H   UNL     1      -0.145   1.135  -0.006  0.00  0.00    -0.082 HD
ENDBRANCH  18  24
ENDBRANCH  17  18
ENDBRANCH  15  17
ENDBRANCH   1  15
TORSDOF 5
