REMARK  Name = ZINC24719975
REMARK  9 active torsions:
REMARK  status: ('A' for Active; 'I' for Inactive)
REMARK    1  A    between atoms: C_1  and  C_2
REMARK    2  A    between atoms: C_2  and  C_4
REMARK    3  A    between atoms: C_2  and  S_18
REMARK    4  A    between atoms: C_4  and  C_6
REMARK    5  A    between atoms: C_6  and  C_16
REMARK    6  A    between atoms: S_18  and  C_19
REMARK    7  A    between atoms: N_24  and  C_25
REMARK    8  A    between atoms: C_25  and  C_26
REMARK    9  A    between atoms: C_26  and  C_27
REMARK                            x       y       z     vdW  Elec       q    Type
REMARK                         _______ _______ _______ _____ _____    ______ ____
ROOT
ATOM      1  C   UNL     1      -0.758   2.010  -1.229  0.00  0.00    +0.028 C 
ATOM      2  C   UNL     1      -0.018   1.503   0.010  0.00  0.00    +0.122 C 
ENDROOT
BRANCH   2   3
ATOM      3  C   UNL     1       0.002  -0.004   0.002  0.00  0.00    +0.189 C 
ATOM      4  O   UNL     1       0.960  -0.596  -0.455  0.00  0.00    -0.290 OA
BRANCH   3   5
ATOM      5  C   UNL     1      -1.086  -0.724   0.523  0.00  0.00    +0.131 C 
ATOM      6  C   UNL     1      -1.067  -2.131   0.515  0.00  0.00    +0.114 C 
ATOM      7  N   UNL     1      -0.060  -2.901   0.028  0.00  0.00    -0.300 N 
ATOM      8  C   UNL     1      -0.409  -4.235   0.201  0.00  0.00    +0.054 A 
ATOM      9  C   UNL     1       0.230  -5.429  -0.104  0.00  0.00    +0.025 A 
ATOM     10  C   UNL     1      -0.382  -6.631   0.189  0.00  0.00    +0.002 A 
ATOM     11  C   UNL     1      -1.631  -6.651   0.787  0.00  0.00    +0.002 A 
ATOM     12  C   UNL     1      -2.276  -5.470   1.094  0.00  0.00    +0.025 A 
ATOM     13  C   UNL     1      -1.669  -4.256   0.804  0.00  0.00    +0.054 A 
ATOM     14  N   UNL     1      -2.055  -2.933   0.988  0.00  0.00    -0.300 N 
ATOM     15  H   UNL     1       0.833  -2.428  -0.407  0.00  0.00    +0.153 HD
ATOM     16  H   UNL     1      -2.963  -2.490   1.423  0.00  0.00    +0.153 HD
BRANCH   5  17
ATOM     17  C   UNL     1      -2.215  -0.026   1.062  0.00  0.00    +0.106 C 
ATOM     18  N   UNL     1      -3.110   0.527   1.489  0.00  0.00    -0.191 NA
ENDBRANCH   5  17
ENDBRANCH   3   5
ENDBRANCH   2   3
BRANCH   2  19
ATOM     19  S   UNL     1       1.683   2.131  -0.003  0.00  0.00    -0.086 S 
BRANCH  19  20
ATOM     20  C   UNL     1       1.495   3.875   0.158  0.00  0.00    +0.161 A 
ATOM     21  N   UNL     1       0.392   4.591   0.258  0.00  0.00    -0.133 NA
ATOM     22  N   UNL     1       0.473   5.959   0.381  0.00  0.00    -0.125 NA
ATOM     23  C   UNL     1       1.652   6.549   0.385  0.00  0.00    +0.182 A 
ATOM     24  S   UNL     1       2.747   5.148   0.219  0.00  0.00    -0.025 S 
ATOM     25  N   UNL     1       1.961   7.901   0.491  0.00  0.00    -0.322 N 
ATOM     26  H   UNL     1       3.011   8.228   0.477  0.00  0.00    +0.148 HD
BRANCH  25  27
ATOM     27  C   UNL     1       0.887   8.889   0.620  0.00  0.00    +0.108 C 
BRANCH  27  28
ATOM     28  C   UNL     1       1.493  10.290   0.718  0.00  0.00    +0.061 C 
BRANCH  28  29
ATOM     29  C   UNL     1       0.389  11.307   0.852  0.00  0.00    -0.009 A 
ATOM     30  C   UNL     1      -0.198  11.787   1.975  0.00  0.00    +0.011 A 
ATOM     31  C   UNL     1      -1.202  12.730   1.856  0.00  0.00    +0.008 A 
ATOM     32  C   UNL     1      -1.577  13.139   0.619  0.00  0.00    +0.045 A 
ATOM     33  S   UNL     1      -0.491  12.186  -0.430  0.00  0.00    -0.102 S 
ENDBRANCH  28  29
ENDBRANCH  27  28
ENDBRANCH  25  27
ENDBRANCH  19  20
ENDBRANCH   2  19
TORSDOF 8
