REMARK  Name = ZINC43366947
REMARK  7 active torsions:
REMARK  status: ('A' for Active; 'I' for Inactive)
REMARK    1  A    between atoms: C_1  and  C_2
REMARK    2  A    between atoms: C_5  and  C_7
REMARK    3  A    between atoms: C_7  and  C_9
REMARK    4  A    between atoms: C_7  and  O_13
REMARK    5  A    between atoms: C_9  and  C_11
REMARK    6  A    between atoms: C_9  and  N_12
REMARK    7  A    between atoms: O_13  and  C_14
REMARK                            x       y       z     vdW  Elec       q    Type
REMARK                         _______ _______ _______ _____ _____    ______ ____
ROOT
ATOM      1  C   UNL     1       1.675  -3.242  -0.011  0.00  0.00    +0.224 C 
ENDROOT
BRANCH   1   6
ATOM      2  C   UNL     1      -0.214   1.422   0.328  0.00  0.00    +0.086 C 
ATOM      3  C   UNL     1      -0.134  -0.080   0.234  0.00  0.00    +0.102 A 
ATOM      4  C   UNL     1      -1.181  -0.924   0.214  0.00  0.00    +0.045 A 
ATOM      5  C   UNL     1      -0.652  -2.231   0.119  0.00  0.00    +0.049 A 
ATOM      6  C   UNL     1       0.687  -2.108   0.086  0.00  0.00    +0.144 A 
ATOM      7  O   UNL     1       0.995  -0.802   0.151  0.00  0.00    -0.461 OA
ENDBRANCH   1   6
BRANCH   1   8
ATOM      8  C   UNL     1       2.156  -3.377  -1.457  0.00  0.00    -0.029 C 
ATOM      9  C   UNL     1       3.158  -4.528  -1.556  0.00  0.00    -0.010 C 
BRANCH   8  10
ATOM     10  N   UNL     1       2.803  -2.127  -1.876  0.00  0.00    +0.382 N 
ATOM     11  H   UNL     1       3.592  -1.939  -1.275  0.00  0.00    -0.089 HD
ATOM     12  H   UNL     1       3.120  -2.215  -2.830  0.00  0.00    -0.089 HD
ATOM     13  H   UNL     1       2.142  -1.367  -1.811  0.00  0.00    -0.089 HD
ENDBRANCH   8  10
ENDBRANCH   1   8
BRANCH   1  14
ATOM     14  O   UNL     1       2.791  -2.976   0.840  0.00  0.00    -0.482 OA
BRANCH  14  15
ATOM     15  C   UNL     1       3.309  -4.029   1.526  0.00  0.00    +0.134 A 
ATOM     16  C   UNL     1       2.832  -5.311   1.295  0.00  0.00    +0.047 A 
ATOM     17  C   UNL     1       3.359  -6.380   1.994  0.00  0.00    +0.004 A 
ATOM     18  C   UNL     1       4.363  -6.172   2.923  0.00  0.00    +0.001 A 
ATOM     19  C   UNL     1       4.840  -4.896   3.155  0.00  0.00    +0.018 A 
ATOM     20  C   UNL     1       4.320  -3.824   2.454  0.00  0.00    +0.055 A 
ATOM     21  I   UNL     1       5.051  -1.891   2.800  0.00  0.00    -0.040 I 
ENDBRANCH  14  15
ENDBRANCH   1  14
TORSDOF 5
