REMARK  Name = ZINC38702095
REMARK  6 active torsions:
REMARK  status: ('A' for Active; 'I' for Inactive)
REMARK    1  A    between atoms: C_1  and  C_2
REMARK    2  A    between atoms: C_4  and  C_35
REMARK    3  A    between atoms: C_5  and  O_34
REMARK    4  A    between atoms: C_6  and  C_8
REMARK    5  A    between atoms: N_16  and  C_26
REMARK    6  A    between atoms: C_17  and  C_19
REMARK                            x       y       z     vdW  Elec       q    Type
REMARK                         _______ _______ _______ _____ _____    ______ ____
ROOT
ATOM      1  C   UNL     1       0.049  -2.840   2.467  0.00  0.00    +0.102 A 
ATOM      2  C   UNL     1       0.141  -2.290   3.750  0.00  0.00    +0.035 A 
ATOM      3  C   UNL     1       0.118  -3.362   4.622  0.00  0.00    +0.126 A 
ATOM      4  N   UNL     1       0.016  -4.481   3.845  0.00  0.00    -0.272 N 
ATOM      5  H   UNL     1      -0.022  -5.390   4.180  0.00  0.00    +0.189 HD
ATOM      6  N   UNL     1      -0.027  -4.149   2.603  0.00  0.00    -0.173 NA
ATOM      7  C   UNL     1       0.212  -2.850   5.993  0.00  0.00    +0.266 C 
ATOM      8  O   UNL     1       0.218  -3.541   6.994  0.00  0.00    -0.268 OA
ATOM      9  N   UNL     1       0.291  -1.507   5.988  0.00  0.00    -0.280 N 
ATOM     10  C   UNL     1       0.253  -1.049   4.593  0.00  0.00    +0.142 C 
ENDROOT
BRANCH   1  16
ATOM     11  C   UNL     1      -1.673   0.943  -0.299  0.00  0.00    +0.044 C 
ATOM     12  C   UNL     1      -0.792  -0.270  -0.146  0.00  0.00    -0.049 A 
ATOM     13  C   UNL     1       0.002  -0.683  -1.202  0.00  0.00    +0.010 A 
ATOM     14  C   UNL     1       0.814  -1.794  -1.071  0.00  0.00    -0.008 A 
ATOM     15  C   UNL     1       0.835  -2.502   0.120  0.00  0.00    +0.129 A 
ATOM     16  C   UNL     1       0.034  -2.087   1.188  0.00  0.00    +0.044 A 
ATOM     17  C   UNL     1      -0.776  -0.963   1.048  0.00  0.00    +0.017 A 
ATOM     18  C   UNL     1       1.676  -2.236  -2.225  0.00  0.00    +0.047 C 
BRANCH  15  19
ATOM     19  O   UNL     1       1.631  -3.595   0.249  0.00  0.00    -0.506 OA
ATOM     20  H   UNL     1       2.518  -3.398   0.580  0.00  0.00    +0.292 HD
ENDBRANCH  15  19
ENDBRANCH   1  16
BRANCH  10  21
ATOM     21  C   UNL     1       1.520  -0.306   4.256  0.00  0.00    -0.022 A 
ATOM     22  C   UNL     1       2.742  -0.801   4.672  0.00  0.00    +0.007 A 
ATOM     23  C   UNL     1       3.905  -0.120   4.363  0.00  0.00    +0.015 A 
ATOM     24  C   UNL     1       3.845   1.057   3.639  0.00  0.00    +0.018 A 
ATOM     25  C   UNL     1       2.623   1.551   3.223  0.00  0.00    +0.015 A 
ATOM     26  C   UNL     1       1.461   0.867   3.528  0.00  0.00    +0.007 A 
ATOM     27 BR   UNL     1       5.436   1.989   3.216  0.00  0.00    -0.050 Br
ENDBRANCH  10  21
BRANCH   9  28
ATOM     28  C   UNL     1       0.397  -0.648   7.170  0.00  0.00    +0.100 C 
ATOM     29  C   UNL     1       1.652  -1.025   7.975  0.00  0.00    +0.047 C 
ATOM     30  C   UNL     1       1.604  -0.358   9.371  0.00  0.00    +0.168 C 
ATOM     31  S   UNL     1      -0.202  -0.201   9.681  0.00  0.00    -0.029 S 
ATOM     32  O   UNL     1      -0.536   1.177   9.782  0.00  0.00    -0.174 OA
ATOM     33  O   UNL     1      -0.571  -1.088  10.728  0.00  0.00    -0.174 OA
ATOM     34  C   UNL     1      -0.845  -0.857   8.084  0.00  0.00    +0.188 C 
ENDBRANCH   9  28
TORSDOF 4
