REMARK  Name = ZINC38650998
REMARK  7 active torsions:
REMARK  status: ('A' for Active; 'I' for Inactive)
REMARK    1  A    between atoms: C_5  and  C_7
REMARK    2  A    between atoms: C_12  and  O_21
REMARK    3  A    between atoms: C_16  and  N_20
REMARK    4  A    between atoms: C_17  and  C_18
REMARK    5  A    between atoms: O_21  and  C_22
REMARK    6  A    between atoms: C_22  and  C_24
REMARK    7  A    between atoms: C_25  and  C_26
REMARK                            x       y       z     vdW  Elec       q    Type
REMARK                         _______ _______ _______ _____ _____    ______ ____
ROOT
ATOM      1  C   UNL     1       1.287  -2.200   0.005  0.00  0.00    +0.099 C 
ATOM      2  C   UNL     1       0.587  -2.710   1.236  0.00  0.00    +0.008 A 
ATOM      3  C   UNL     1       1.272  -2.761   2.437  0.00  0.00    +0.012 A 
ATOM      4  C   UNL     1       0.646  -3.227   3.576  0.00  0.00    +0.047 A 
ATOM      5  C   UNL     1      -0.676  -3.646   3.519  0.00  0.00    +0.135 A 
ATOM      6  C   UNL     1      -1.365  -3.596   2.319  0.00  0.00    +0.093 A 
ATOM      7  C   UNL     1      -0.734  -3.127   1.174  0.00  0.00    +0.138 A 
ATOM      8  O   UNL     1      -1.422  -3.085   0.006  0.00  0.00    -0.441 OA
ATOM      9  C   UNL     1      -0.759  -3.015  -1.160  0.00  0.00    +0.199 C 
ATOM     10  C   UNL     1       0.525  -2.602  -1.227  0.00  0.00    +0.098 C 
ENDROOT
BRANCH   1  15
ATOM     11  C   UNL     1       0.302   1.440   0.186  0.00  0.00    +0.000 A 
ATOM     12  C   UNL     1       1.537   2.062   0.182  0.00  0.00    +0.001 A 
ATOM     13  C   UNL     1       2.691   1.305   0.121  0.00  0.00    +0.020 A 
ATOM     14  C   UNL     1       2.611  -0.075   0.063  0.00  0.00    +0.045 A 
ATOM     15  C   UNL     1       1.375  -0.696   0.068  0.00  0.00    -0.016 A 
ATOM     16  C   UNL     1       0.221   0.062   0.129  0.00  0.00    +0.006 A 
ATOM     17 CL   UNL     1       4.061  -1.027  -0.015  0.00  0.00    -0.083 Cl
ENDBRANCH   1  15
BRANCH   9  18
ATOM     18  N   UNL     1      -1.407  -3.371  -2.317  0.00  0.00    -0.328 N 
ATOM     19  H   UNL     1      -2.330  -3.668  -2.284  0.00  0.00    +0.145 HD
ATOM     20  H   UNL     1      -0.942  -3.326  -3.167  0.00  0.00    +0.145 HD
ENDBRANCH   9  18
BRANCH  10  21
ATOM     21  C   UNL     1       1.175  -2.549  -2.502  0.00  0.00    +0.101 C 
ATOM     22  N   UNL     1       1.690  -2.507  -3.514  0.00  0.00    -0.191 NA
ENDBRANCH  10  21
BRANCH   5  23
ATOM     23  O   UNL     1      -1.293  -4.106   4.640  0.00  0.00    -0.423 OA
BRANCH  23  24
ATOM     24  C   UNL     1      -1.566  -3.220   5.620  0.00  0.00    +0.337 C 
ATOM     25  O   UNL     1      -1.358  -2.035   5.445  0.00  0.00    -0.245 OA
BRANCH  24  26
ATOM     26  C   UNL     1      -2.114  -3.686   6.893  0.00  0.00    +0.092 C 
ATOM     27  C   UNL     1      -2.387  -2.800   7.875  0.00  0.00    +0.016 C 
BRANCH  27  28
ATOM     28  C   UNL     1      -2.938  -3.268   9.155  0.00  0.00    -0.006 A 
ATOM     29  C   UNL     1      -3.174  -4.632   9.362  0.00  0.00    +0.011 A 
ATOM     30  C   UNL     1      -3.689  -5.063  10.565  0.00  0.00    +0.020 A 
ATOM     31  C   UNL     1      -3.974  -4.151  11.569  0.00  0.00    +0.042 A 
ATOM     32  C   UNL     1      -3.744  -2.800  11.372  0.00  0.00    +0.040 A 
ATOM     33  C   UNL     1      -3.223  -2.353  10.175  0.00  0.00    +0.049 A 
ATOM     34 CL   UNL     1      -2.928  -0.659   9.933  0.00  0.00    -0.083 Cl
ATOM     35 CL   UNL     1      -4.624  -4.706  13.081  0.00  0.00    -0.083 Cl
ENDBRANCH  27  28
ENDBRANCH  24  26
ENDBRANCH  23  24
ENDBRANCH   5  23
TORSDOF 7
