REMARK  Name = ZINC64002419
REMARK  8 active torsions:
REMARK  status: ('A' for Active; 'I' for Inactive)
REMARK    1  A    between atoms: C_1  and  C_2
REMARK    2  A    between atoms: C_5  and  O_8
REMARK    3  A    between atoms: O_8  and  C_9
REMARK    4  A    between atoms: C_9  and  C_10
REMARK    5  A    between atoms: N_19  and  C_20
REMARK    6  A    between atoms: C_26  and  C_28
REMARK    7  A    between atoms: C_30  and  C_36
REMARK    8  A    between atoms: C_31  and  C_35
REMARK                            x       y       z     vdW  Elec       q    Type
REMARK                         _______ _______ _______ _____ _____    ______ ____
ROOT
ATOM      1  C   UNL     1      -0.035  -6.198   1.491  0.00  0.00    +0.197 C 
ATOM      2  N   UNL     1       1.188  -6.596   0.783  0.00  0.00    -0.322 N 
ATOM      3  C   UNL     1       0.795  -7.241  -0.398  0.00  0.00    +0.050 A 
ATOM      4  C   UNL     1       1.556  -7.804  -1.415  0.00  0.00    +0.025 A 
ATOM      5  C   UNL     1       0.937  -8.395  -2.499  0.00  0.00    +0.002 A 
ATOM      6  C   UNL     1      -0.443  -8.428  -2.578  0.00  0.00    +0.002 A 
ATOM      7  C   UNL     1      -1.208  -7.871  -1.572  0.00  0.00    +0.025 A 
ATOM      8  C   UNL     1      -0.594  -7.274  -0.477  0.00  0.00    +0.053 A 
ATOM      9  N   UNL     1      -1.150  -6.652   0.652  0.00  0.00    -0.304 N 
ATOM     10  H   UNL     1       2.099  -6.441   1.077  0.00  0.00    +0.148 HD
ENDROOT
BRANCH   9  11
ATOM     11  C   UNL     1      -2.577  -6.485   0.939  0.00  0.00    +0.078 C 
ATOM     12  C   UNL     1      -3.243  -7.860   1.025  0.00  0.00    +0.041 C 
ATOM     13  C   UNL     1      -4.728  -7.683   1.360  0.00  0.00    +0.110 C 
ATOM     14  N   UNL     1      -5.332  -6.781   0.370  0.00  0.00    -0.297 N 
ATOM     15  C   UNL     1      -4.714  -5.467   0.143  0.00  0.00    +0.110 C 
ATOM     16  C   UNL     1      -3.230  -5.668  -0.178  0.00  0.00    +0.041 C 
ATOM     17  C   UNL     1      -6.431  -7.151  -0.316  0.00  0.00    +0.252 C 
ATOM     18  O   UNL     1      -6.974  -6.362  -1.066  0.00  0.00    -0.270 OA
BRANCH  17  19
ATOM     19  C   UNL     1      -6.973  -8.509  -0.159  0.00  0.00    +0.101 A 
ATOM     20  C   UNL     1      -7.771  -8.832   0.936  0.00  0.00    +0.023 A 
ATOM     21  C   UNL     1      -8.267 -10.130   1.051  0.00  0.00    -0.031 A 
ATOM     22  C   UNL     1      -7.972 -11.059   0.106  0.00  0.00    +0.019 A 
ATOM     23  N   UNL     1      -7.196 -10.752  -0.961  0.00  0.00    -0.326 N 
ATOM     24  C   UNL     1      -6.697  -9.513  -1.124  0.00  0.00    +0.261 A 
ATOM     25  O   UNL     1      -6.005  -9.255  -2.094  0.00  0.00    -0.267 OA
ATOM     26  C   UNL     1      -8.517 -12.457   0.247  0.00  0.00    +0.063 C 
ATOM     27  C   UNL     1      -9.132 -10.503   2.228  0.00  0.00    +0.045 C 
ATOM     28  H   UNL     1      -7.001 -11.436  -1.621  0.00  0.00    +0.169 HD
ENDBRANCH  17  19
ENDBRANCH   9  11
BRANCH   1  29
ATOM     29  C   UNL     1      -0.080  -4.677   1.653  0.00  0.00    +0.271 C 
BRANCH  29  30
ATOM     30  O   UNL     1      -0.006  -4.059   0.367  0.00  0.00    -0.488 OA
BRANCH  30  35
ATOM     31  C   UNL     1      -0.126   1.570   0.225  0.00  0.00    +0.044 C 
ATOM     32  C   UNL     1      -0.093   0.064   0.263  0.00  0.00    -0.050 A 
ATOM     33  C   UNL     1       0.004  -0.654  -0.914  0.00  0.00    +0.007 A 
ATOM     34  C   UNL     1       0.034  -2.035  -0.882  0.00  0.00    +0.046 A 
ATOM     35  C   UNL     1      -0.034  -2.701   0.333  0.00  0.00    +0.121 A 
ATOM     36  C   UNL     1      -0.132  -1.978   1.513  0.00  0.00    +0.046 A 
ATOM     37  C   UNL     1      -0.155  -0.597   1.476  0.00  0.00    +0.007 A 
ENDBRANCH  30  35
ENDBRANCH  29  30
ENDBRANCH   1  29
TORSDOF 5
