REMARK  Name = ZINC35000163
REMARK  12 active torsions:
REMARK  status: ('A' for Active; 'I' for Inactive)
REMARK    1  A    between atoms: C_1  and  C_2
REMARK    2  A    between atoms: C_2  and  C_3
REMARK    3  A    between atoms: C_3  and  C_4
REMARK    4  A    between atoms: C_4  and  N_5
REMARK    5  A    between atoms: C_13  and  C_15
REMARK    6  A    between atoms: C_16  and  C_18
REMARK    7  A    between atoms: C_18  and  C_20
REMARK    8  A    between atoms: C_18  and  N_31
REMARK    9  A    between atoms: C_20  and  C_21
REMARK   10  A    between atoms: C_32  and  C_34
REMARK   11  A    between atoms: C_34  and  O_35
REMARK   12  A    between atoms: O_35  and  C_36
REMARK                            x       y       z     vdW  Elec       q    Type
REMARK                         _______ _______ _______ _____ _____    ______ ____
ROOT
ATOM      1  C   UNL     1       5.894  -4.491   6.988  0.00  0.00    +0.163 C 
ENDROOT
BRANCH   1  12
ATOM      2  N   UNL     1       0.732  -2.658   3.213  0.00  0.00    -0.299 N 
ATOM      3  C   UNL     1       1.018  -3.973   3.289  0.00  0.00    +0.303 C 
ATOM      4  O   UNL     1       0.454  -4.761   2.555  0.00  0.00    -0.253 OA
ATOM      5  N   UNL     1       1.929  -4.414   4.179  0.00  0.00    -0.280 N 
ATOM      6  C   UNL     1       2.533  -3.491   5.151  0.00  0.00    +0.128 C 
ATOM      7  C   UNL     1       4.059  -3.564   5.011  0.00  0.00    +0.127 C 
ATOM      8  N   UNL     1       4.466  -4.976   5.028  0.00  0.00    -0.297 N 
ATOM      9  C   UNL     1       3.861  -5.898   4.056  0.00  0.00    +0.130 C 
ATOM     10  C   UNL     1       2.332  -5.827   4.199  0.00  0.00    +0.092 C 
ATOM     11  C   UNL     1       1.906  -6.464   5.524  0.00  0.00    +0.030 C 
ATOM     12  C   UNL     1       5.377  -5.417   5.917  0.00  0.00    +0.236 C 
ATOM     13  O   UNL     1       5.781  -6.559   5.856  0.00  0.00    -0.274 OA
ATOM     14  H   UNL     1       1.126  -2.038   3.847  0.00  0.00    +0.150 HD
BRANCH   2  15
ATOM     15  C   UNL     1      -0.176  -2.165   2.174  0.00  0.00    +0.106 C 
BRANCH  15  16
ATOM     16  C   UNL     1      -0.329  -0.648   2.309  0.00  0.00    +0.018 C 
BRANCH  16  18
ATOM     17  C   UNL     1      -1.430   1.383   1.359  0.00  0.00    +0.004 C 
ATOM     18  C   UNL     1      -1.277  -0.133   1.224  0.00  0.00    -0.002 C 
ENDBRANCH  16  18
ENDBRANCH  15  16
ENDBRANCH   2  15
ENDBRANCH   1  12
BRANCH   1  19
ATOM     19  N   UNL     1       6.583  -5.272   8.018  0.00  0.00    -0.301 N 
ATOM     20  C   UNL     1       6.684  -4.792   9.273  0.00  0.00    +0.251 C 
ATOM     21  O   UNL     1       6.205  -3.713   9.550  0.00  0.00    -0.272 OA
ATOM     22  H   UNL     1       6.966  -6.136   7.797  0.00  0.00    +0.150 HD
BRANCH  20  23
ATOM     23  C   UNL     1       7.393  -5.596  10.333  0.00  0.00    +0.324 C 
BRANCH  23  24
ATOM     24  O   UNL     1       7.369  -4.880  11.570  0.00  0.00    -0.483 OA
BRANCH  24  25
ATOM     25  C   UNL     1       7.969  -5.471  12.636  0.00  0.00    +0.121 A 
ATOM     26  C   UNL     1       8.575  -6.711  12.494  0.00  0.00    +0.045 A 
ATOM     27  C   UNL     1       9.185  -7.309  13.579  0.00  0.00    +0.004 A 
ATOM     28  C   UNL     1       9.193  -6.673  14.807  0.00  0.00    +0.000 A 
ATOM     29  C   UNL     1       8.589  -5.437  14.951  0.00  0.00    +0.004 A 
ATOM     30  C   UNL     1       7.983  -4.832  13.868  0.00  0.00    +0.045 A 
ENDBRANCH  24  25
ENDBRANCH  23  24
ENDBRANCH  20  23
ENDBRANCH   1  19
BRANCH   1  31
ATOM     31  C   UNL     1       6.871  -3.490   6.369  0.00  0.00    +0.069 C 
BRANCH  31  32
ATOM     32  C   UNL     1       7.342  -2.527   7.428  0.00  0.00    -0.020 A 
ATOM     33  C   UNL     1       6.822  -1.319   7.697  0.00  0.00    +0.087 A 
ATOM     34  N   UNL     1       7.510  -0.733   8.724  0.00  0.00    -0.360 N 
ATOM     35  H   UNL     1       7.318   0.142   9.096  0.00  0.00    +0.165 HD
ATOM     36  C   UNL     1       8.515  -1.571   9.152  0.00  0.00    +0.047 A 
ATOM     37  C   UNL     1       8.450  -2.734   8.363  0.00  0.00    +0.003 A 
ATOM     38  C   UNL     1       9.356  -3.774   8.579  0.00  0.00    +0.010 A 
ATOM     39  C   UNL     1      10.301  -3.658   9.560  0.00  0.00    +0.001 A 
ATOM     40  C   UNL     1      10.367  -2.514  10.344  0.00  0.00    +0.002 A 
ATOM     41  C   UNL     1       9.488  -1.472  10.142  0.00  0.00    +0.026 A 
ENDBRANCH  31  32
ENDBRANCH   1  31
TORSDOF 10
