REMARK  Name = ZINC04867066
REMARK  5 active torsions:
REMARK  status: ('A' for Active; 'I' for Inactive)
REMARK    1  A    between atoms: C_1  and  C_2
REMARK    2  A    between atoms: C_2  and  C_3
REMARK    3  A    between atoms: C_2  and  C_4
REMARK    4  A    between atoms: C_2  and  C_5
REMARK    5  A    between atoms: C_17  and  C_20
REMARK                            x       y       z     vdW  Elec       q    Type
REMARK                         _______ _______ _______ _____ _____    ______ ____
ROOT
ATOM      1  C   UNL     1      -0.504   6.555   7.056  0.00  0.00    -0.000 C 
ATOM      2  C   UNL     1       0.622   7.462   6.551  0.00  0.00    +0.009 C 
ATOM      3  C   UNL     1       1.103   6.980   5.182  0.00  0.00    +0.037 C 
ATOM      4  C   UNL     1      -0.102   6.848   4.257  0.00  0.00    -0.023 A 
ATOM      5  C   UNL     1      -1.355   6.771   4.758  0.00  0.00    -0.004 A 
ATOM      6  S   UNL     1      -2.408   6.630   3.338  0.00  0.00    -0.078 S 
ATOM      7  C   UNL     1      -1.213   6.676   2.113  0.00  0.00    +0.080 A 
ATOM      8  C   UNL     1      -0.000   6.794   2.807  0.00  0.00    +0.068 A 
ATOM      9  C   UNL     1       1.245   6.846   2.007  0.00  0.00    +0.248 C 
ATOM     10  O   UNL     1       2.325   7.058   2.528  0.00  0.00    -0.270 OA
ATOM     11  N   UNL     1       1.133   6.649   0.677  0.00  0.00    -0.289 N 
ATOM     12  C   UNL     1      -0.082   6.158   0.035  0.00  0.00    +0.190 C 
ATOM     13  N   UNL     1      -1.288   6.621   0.745  0.00  0.00    -0.316 N 
ATOM     14  C   UNL     1      -1.755   6.798   6.200  0.00  0.00    +0.046 C 
ATOM     15  H   UNL     1       1.901   6.845   0.118  0.00  0.00    +0.151 HD
ATOM     16  H   UNL     1      -2.094   6.874   0.268  0.00  0.00    +0.149 HD
ENDROOT
BRANCH  12  17
ATOM     17  C   UNL     1      -0.061   4.651   0.027  0.00  0.00    -0.009 A 
ATOM     18  C   UNL     1       1.145   3.977   0.013  0.00  0.00    +0.008 A 
ATOM     19  C   UNL     1       1.165   2.595   0.005  0.00  0.00    +0.015 A 
ATOM     20  C   UNL     1      -0.024   1.887   0.012  0.00  0.00    +0.018 A 
ATOM     21  C   UNL     1      -1.231   2.562   0.022  0.00  0.00    +0.015 A 
ATOM     22  C   UNL     1      -1.249   3.944   0.035  0.00  0.00    +0.008 A 
ATOM     23 BR   UNL     1       0.002  -0.004   0.002  0.00  0.00    -0.050 Br
ENDBRANCH  12  17
BRANCH   1  25
ATOM     24  C   UNL     1      -1.948   5.988   9.015  0.00  0.00    +0.011 C 
ATOM     25  C   UNL     1      -0.810   6.883   8.519  0.00  0.00    -0.035 C 
ATOM     26  C   UNL     1       0.438   6.640   9.369  0.00  0.00    +0.011 C 
ATOM     27  C   UNL     1      -1.228   8.351   8.635  0.00  0.00    +0.011 C 
ENDBRANCH   1  25
TORSDOF 2
