REMARK  Name = ZINC54829309
REMARK  14 active torsions:
REMARK  status: ('A' for Active; 'I' for Inactive)
REMARK    1  A    between atoms: C_1  and  C_2
REMARK    2  A    between atoms: C_2  and  C_4
REMARK    3  A    between atoms: C_2  and  S_14
REMARK    4  A    between atoms: N_9  and  C_10
REMARK    5  A    between atoms: C_10  and  C_11
REMARK    6  A    between atoms: C_11  and  C_12
REMARK    7  A    between atoms: C_11  and  C_13
REMARK    8  A    between atoms: S_14  and  C_15
REMARK    9  A    between atoms: C_18  and  C_21
REMARK   10  A    between atoms: N_19  and  N_20
REMARK   11  A    between atoms: C_24  and  C_27
REMARK   12  A    between atoms: C_27  and  C_28
REMARK   13  A    between atoms: C_27  and  C_29
REMARK   14  A    between atoms: C_27  and  C_30
REMARK                            x       y       z     vdW  Elec       q    Type
REMARK                         _______ _______ _______ _____ _____    ______ ____
ROOT
ATOM      1  C   UNL     1      -0.189  -0.057  -2.809  0.00  0.00    +0.209 A 
ATOM      2  N   UNL     1      -1.313   0.615  -2.693  0.00  0.00    -0.121 NA
ATOM      3  N   UNL     1      -1.815   0.839  -3.855  0.00  0.00    -0.127 NA
ATOM      4  C   UNL     1      -1.044   0.324  -4.783  0.00  0.00    +0.182 A 
ATOM      5  N   UNL     1       0.025  -0.260  -4.142  0.00  0.00    -0.224 N 
ENDROOT
BRANCH   4   6
ATOM      6  C   UNL     1      -1.275   0.369  -6.243  0.00  0.00    +0.021 A 
ATOM      7  C   UNL     1      -0.561  -0.477  -7.092  0.00  0.00    +0.012 A 
ATOM      8  C   UNL     1      -0.782  -0.430  -8.453  0.00  0.00    +0.005 A 
ATOM      9  C   UNL     1      -1.710   0.453  -8.976  0.00  0.00    -0.042 A 
ATOM     10  C   UNL     1      -2.420   1.295  -8.140  0.00  0.00    +0.005 A 
ATOM     11  C   UNL     1      -2.213   1.254  -6.777  0.00  0.00    +0.012 A 
BRANCH   9  12
ATOM     12  C   UNL     1      -1.946   0.499 -10.464  0.00  0.00    -0.013 C 
ATOM     13  C   UNL     1      -2.425  -0.872 -10.947  0.00  0.00    +0.015 C 
ATOM     14  C   UNL     1      -3.011   1.551 -10.779  0.00  0.00    +0.015 C 
ATOM     15  C   UNL     1      -0.642   0.863 -11.177  0.00  0.00    +0.015 C 
ENDBRANCH   9  12
ENDBRANCH   4   6
BRANCH   5  16
ATOM     16  N   UNL     1       1.078  -0.911  -4.720  0.00  0.00    -0.295 N 
ATOM     17  H   UNL     1       0.881  -1.895  -4.825  0.00  0.00    +0.163 HD
ATOM     18  H   UNL     1       1.319  -0.493  -5.606  0.00  0.00    +0.163 HD
ENDBRANCH   5  16
BRANCH   1  19
ATOM     19  S   UNL     1       0.851  -0.589  -1.490  0.00  0.00    -0.072 S 
BRANCH  19  21
ATOM     20  C   UNL     1      -0.019   1.526   0.010  0.00  0.00    +0.029 C 
ATOM     21  C   UNL     1       0.002  -0.004   0.002  0.00  0.00    +0.137 C 
BRANCH  21  22
ATOM     22  C   UNL     1       0.731  -0.503   1.223  0.00  0.00    +0.234 C 
ATOM     23  O   UNL     1       1.911  -0.775   1.156  0.00  0.00    -0.274 OA
ATOM     24  N   UNL     1       0.071  -0.647   2.389  0.00  0.00    -0.239 N 
ATOM     25  C   UNL     1       0.723  -1.094   3.481  0.00  0.00    +0.306 C 
ATOM     26  O   UNL     1       1.906  -1.367   3.414  0.00  0.00    -0.252 OA
ATOM     27  N   UNL     1       0.064  -1.238   4.648  0.00  0.00    -0.299 N 
ATOM     28  H   UNL     1      -0.872  -0.430   2.443  0.00  0.00    +0.159 HD
ATOM     29  H   UNL     1      -0.880  -1.020   4.702  0.00  0.00    +0.150 HD
BRANCH  27  30
ATOM     30  C   UNL     1       0.772  -1.723   5.835  0.00  0.00    +0.108 C 
BRANCH  30  31
ATOM     31  C   UNL     1      -0.199  -1.794   7.015  0.00  0.00    -0.000 C 
ATOM     32  C   UNL     1      -1.274  -2.844   6.728  0.00  0.00    +0.009 C 
ATOM     33  C   UNL     1       0.566  -2.181   8.282  0.00  0.00    +0.009 C 
ENDBRANCH  30  31
ENDBRANCH  27  30
ENDBRANCH  21  22
ENDBRANCH  19  21
ENDBRANCH   1  19
TORSDOF 8
