REMARK  Name = ZINC58848064
REMARK  6 active torsions:
REMARK  status: ('A' for Active; 'I' for Inactive)
REMARK    1  A    between atoms: C_1  and  C_2
REMARK    2  A    between atoms: C_7  and  N_8
REMARK    3  A    between atoms: N_8  and  S_9
REMARK    4  A    between atoms: S_9  and  C_12
REMARK    5  A    between atoms: C_25  and  C_28
REMARK    6  A    between atoms: C_33  and  N_34
REMARK                            x       y       z     vdW  Elec       q    Type
REMARK                         _______ _______ _______ _____ _____    ______ ____
ROOT
ATOM      1  C   UNL     1       2.901  -1.740   2.923  0.00  0.00    +0.109 A 
ATOM      2  C   UNL     1       3.777  -2.577   2.256  0.00  0.00    +0.030 A 
ATOM      3  C   UNL     1       5.107  -2.228   2.144  0.00  0.00    +0.025 A 
ATOM      4  C   UNL     1       5.566  -1.038   2.699  0.00  0.00    +0.031 A 
ATOM      5  C   UNL     1       4.687  -0.191   3.357  0.00  0.00    -0.018 A 
ATOM      6  C   UNL     1       3.352  -0.554   3.466  0.00  0.00    +0.034 A 
ATOM      7  C   UNL     1       5.133   1.111   3.929  0.00  0.00    +0.049 C 
ATOM      8  C   UNL     1       5.273   1.054   5.429  0.00  0.00    -0.023 C 
ATOM      9  C   UNL     1       6.288   1.785   5.817  0.00  0.00    -0.030 C 
ATOM     10  C   UNL     1       6.974   2.430   4.633  0.00  0.00    +0.033 C 
ATOM     11  C   UNL     1       6.492   1.592   3.425  0.00  0.00    +0.029 C 
ATOM     12  C   UNL     1       7.489   0.475   3.198  0.00  0.00    +0.107 C 
ATOM     13  N   UNL     1       6.912  -0.709   2.595  0.00  0.00    -0.336 N 
ATOM     14  H   UNL     1       7.498  -1.313   2.113  0.00  0.00    +0.147 HD
ENDROOT
BRANCH  12  15
ATOM     15  C   UNL     1       8.116   0.115   4.520  0.00  0.00    +0.003 A 
ATOM     16  C   UNL     1       7.551  -0.870   5.308  0.00  0.00    +0.008 A 
ATOM     17  C   UNL     1       8.125  -1.200   6.521  0.00  0.00    +0.000 A 
ATOM     18  C   UNL     1       9.266  -0.544   6.947  0.00  0.00    +0.002 A 
ATOM     19  C   UNL     1       9.831   0.441   6.159  0.00  0.00    +0.033 A 
ATOM     20  C   UNL     1       9.259   0.767   4.943  0.00  0.00    +0.131 A 
BRANCH  20  21
ATOM     21  N   UNL     1       9.867   1.818   4.097  0.00  0.00    +0.057 N 
ATOM     22  O   UNL     1      10.823   2.440   4.500  0.00  0.00    -0.126 OA
ATOM     23  O   UNL     1       9.409   2.055   3.004  0.00  0.00    -0.126 OA
ENDBRANCH  20  21
ENDBRANCH  12  15
BRANCH   1  24
ATOM     24  S   UNL     1       1.203  -2.187   3.076  0.00  0.00    +0.072 S 
ATOM     25  O   UNL     1       0.702  -1.495   4.211  0.00  0.00    -0.150 OA
ATOM     26  O   UNL     1       1.143  -3.602   2.958  0.00  0.00    -0.150 OA
BRANCH  24  27
ATOM     27  N   UNL     1       0.414  -1.569   1.758  0.00  0.00    -0.216 N 
ATOM     28  H   UNL     1      -0.307  -0.932   1.879  0.00  0.00    +0.174 HD
BRANCH  27  35
ATOM     29  C   UNL     1       0.288   0.360  -0.329  0.00  0.00    +0.046 C 
ATOM     30  C   UNL     1       0.741  -1.055  -0.578  0.00  0.00    -0.027 A 
ATOM     31  C   UNL     1       1.116  -1.448  -1.848  0.00  0.00    +0.025 A 
ATOM     32  C   UNL     1       1.533  -2.747  -2.077  0.00  0.00    +0.041 A 
ATOM     33  C   UNL     1       1.575  -3.657  -1.035  0.00  0.00    +0.022 A 
ATOM     34  C   UNL     1       1.200  -3.270   0.237  0.00  0.00    +0.026 A 
ATOM     35  C   UNL     1       0.788  -1.965   0.471  0.00  0.00    +0.051 A 
ATOM     36 CL   UNL     1       2.004  -3.237  -3.675  0.00  0.00    -0.084 Cl
ENDBRANCH  27  35
ENDBRANCH  24  27
ENDBRANCH   1  24
TORSDOF 5
