REMARK  Name = ZINC60098249
REMARK  3 active torsions:
REMARK  status: ('A' for Active; 'I' for Inactive)
REMARK    1  A    between atoms: C_5  and  C_7
REMARK    2  A    between atoms: C_9  and  C_12
REMARK    3  A    between atoms: C_12  and  N_13
REMARK                            x       y       z     vdW  Elec       q    Type
REMARK                         _______ _______ _______ _____ _____    ______ ____
ROOT
ATOM      1  N   UNL     1      -0.641  -5.777   1.341  0.00  0.00    -0.218 N 
ATOM      2  C   UNL     1       0.058  -6.627   2.135  0.00  0.00    +0.247 C 
ATOM      3  O   UNL     1       0.907  -7.388   1.756  0.00  0.00    -0.273 OA
ATOM      4  C   UNL     1      -0.480  -6.348   3.533  0.00  0.00    +0.113 C 
ATOM      5  C   UNL     1       0.438  -5.310   4.199  0.00  0.00    +0.035 C 
ATOM      6  C   UNL     1       1.241  -5.945   5.342  0.00  0.00    +0.003 C 
ATOM      7  C   UNL     1       2.641  -6.356   4.896  0.00  0.00    +0.000 C 
ATOM      8  C   UNL     1       2.545  -7.665   4.096  0.00  0.00    +0.000 C 
ATOM      9  C   UNL     1       1.587  -8.622   4.804  0.00  0.00    +0.000 C 
ATOM     10  C   UNL     1       0.275  -8.728   4.032  0.00  0.00    +0.003 C 
ATOM     11  C   UNL     1      -0.693  -7.599   4.350  0.00  0.00    +0.035 C 
ATOM     12  N   UNL     1      -1.777  -5.699   3.254  0.00  0.00    -0.285 N 
ATOM     13  C   UNL     1      -1.726  -5.308   1.968  0.00  0.00    +0.310 C 
ATOM     14  O   UNL     1      -2.568  -4.611   1.437  0.00  0.00    -0.252 OA
ATOM     15  H   UNL     1      -2.509  -5.581   3.876  0.00  0.00    +0.151 HD
ENDROOT
BRANCH   1  16
ATOM     16  C   UNL     1      -0.265  -5.444  -0.033  0.00  0.00    +0.176 C 
BRANCH  16  19
ATOM     17  C   UNL     1       1.249  -2.160  -0.022  0.00  0.00    +0.229 A 
ATOM     18  N   UNL     1       0.198  -2.946  -0.021  0.00  0.00    -0.212 NA
ATOM     19  C   UNL     1       0.616  -4.221  -0.030  0.00  0.00    +0.098 A 
ATOM     20  C   UNL     1       1.961  -4.214  -0.037  0.00  0.00    +0.222 A 
ATOM     21  O   UNL     1       2.355  -2.925  -0.038  0.00  0.00    -0.443 OA
BRANCH  17  26
ATOM     22  C   UNL     1      -0.017   1.375   0.010  0.00  0.00    +0.001 A 
ATOM     23  C   UNL     1       1.170   2.087   0.002  0.00  0.00    +0.001 A 
ATOM     24  C   UNL     1       2.383   1.422  -0.013  0.00  0.00    +0.021 A 
ATOM     25  C   UNL     1       2.416   0.041  -0.021  0.00  0.00    +0.053 A 
ATOM     26  C   UNL     1       1.222  -0.683  -0.013  0.00  0.00    +0.055 A 
ATOM     27  C   UNL     1       0.002  -0.004   0.002  0.00  0.00    +0.014 A 
ATOM     28 CL   UNL     1       3.939  -0.792  -0.041  0.00  0.00    -0.083 Cl
ENDBRANCH  17  26
ENDBRANCH  16  19
ENDBRANCH   1  16
TORSDOF 3
