REMARK  Name = ZINC38775667
REMARK  5 active torsions:
REMARK  status: ('A' for Active; 'I' for Inactive)
REMARK    1  A    between atoms: C_1  and  C_2
REMARK    2  A    between atoms: C_2  and  C_3
REMARK    3  A    between atoms: C_2  and  C_4
REMARK    4  A    between atoms: C_2  and  C_5
REMARK    5  A    between atoms: C_5  and  C_6
REMARK                            x       y       z     vdW  Elec       q    Type
REMARK                         _______ _______ _______ _____ _____    ______ ____
ROOT
ATOM      1  C   UNL     1       2.316   0.021  -1.142  0.00  0.00    +0.218 C 
ATOM      2  O   UNL     1       2.882   0.663  -0.283  0.00  0.00    -0.275 OA
ATOM      3  N   UNL     1       2.957  -0.285  -2.288  0.00  0.00    -0.285 N 
ATOM      4  C   UNL     1       3.476   0.674  -3.030  0.00  0.00    +0.036 C 
ATOM      5  C   UNL     1       3.250   2.081  -2.675  0.00  0.00    +0.025 C 
ATOM      6  C   UNL     1       3.777   3.066  -3.427  0.00  0.00    +0.032 C 
ATOM      7  C   UNL     1       4.582   2.738  -4.608  0.00  0.00    +0.095 C 
ATOM      8  N   UNL     1       5.214   3.454  -5.519  0.00  0.00    -0.190 NA
ATOM      9  C   UNL     1       5.806   2.630  -6.399  0.00  0.00    +0.369 C 
ATOM     10  O   UNL     1       6.537   3.045  -7.460  0.00  0.00    -0.243 OA
ATOM     11  N   UNL     1       5.587   1.370  -6.101  0.00  0.00    -0.190 NA
ATOM     12  C   UNL     1       4.816   1.328  -4.975  0.00  0.00    +0.097 C 
ATOM     13  C   UNL     1       4.291   0.333  -4.216  0.00  0.00    +0.053 C 
ATOM     14  H   UNL     1       3.036  -1.210  -2.567  0.00  0.00    +0.155 HD
ENDROOT
BRANCH   1  15
ATOM     15  C   UNL     1       0.895  -0.434  -0.929  0.00  0.00    +0.102 C 
BRANCH  15  17
ATOM     16  C   UNL     1       0.468   1.569   0.501  0.00  0.00    +0.011 C 
ATOM     17  C   UNL     1       0.407   0.042   0.441  0.00  0.00    -0.029 C 
ATOM     18  C   UNL     1       1.302  -0.547   1.534  0.00  0.00    +0.011 C 
ATOM     19  C   UNL     1      -1.035  -0.421   0.658  0.00  0.00    +0.011 C 
ENDBRANCH  15  17
ENDBRANCH   1  15
TORSDOF 2
