REMARK  Name = ZINC39666475
REMARK  8 active torsions:
REMARK  status: ('A' for Active; 'I' for Inactive)
REMARK    1  A    between atoms: C_1  and  C_2
REMARK    2  A    between atoms: C_2  and  C_4
REMARK    3  A    between atoms: C_2  and  O_28
REMARK    4  A    between atoms: C_4  and  N_5
REMARK    5  A    between atoms: C_6  and  C_8
REMARK    6  A    between atoms: C_19  and  C_21
REMARK    7  A    between atoms: C_21  and  C_27
REMARK    8  A    between atoms: O_28  and  C_29
REMARK                            x       y       z     vdW  Elec       q    Type
REMARK                         _______ _______ _______ _____ _____    ______ ____
ROOT
ATOM      1  C   UNL     1       2.328  -4.428   1.348  0.00  0.00    +0.100 C 
ATOM      2  C   UNL     1       3.375  -4.770   0.264  0.00  0.00    +0.121 C 
ATOM      3  N   UNL     1       4.602  -5.111   1.023  0.00  0.00    -0.300 N 
ATOM      4  C   UNL     1       4.111  -5.880   2.191  0.00  0.00    +0.115 C 
ATOM      5  C   UNL     1       2.813  -5.162   2.610  0.00  0.00    -0.004 C 
ATOM      6  C   UNL     1       1.769  -6.178   3.064  0.00  0.00    -0.010 C 
ATOM      7  C   UNL     1       2.247  -6.852   4.353  0.00  0.00    -0.082 C 
ATOM      8  N   UNL     1       2.453  -5.836   5.392  0.00  0.00    +0.379 N 
ATOM      9  C   UNL     1       3.524  -4.917   4.987  0.00  0.00    -0.082 C 
ATOM     10  C   UNL     1       3.100  -4.160   3.725  0.00  0.00    -0.010 C 
ATOM     11  C   UNL     1       5.876  -4.793   0.719  0.00  0.00    +0.222 C 
ATOM     12  O   UNL     1       6.113  -4.085  -0.237  0.00  0.00    -0.275 OA
ATOM     13  H   UNL     1       1.599  -5.316   5.526  0.00  0.00    -0.086 HD
ATOM     14  H   UNL     1       2.709  -6.288   6.257  0.00  0.00    -0.086 HD
ENDROOT
BRANCH  11  15
ATOM     15  C   UNL     1       7.006  -5.318   1.567  0.00  0.00    +0.044 C 
ATOM     16  C   UNL     1       6.948  -4.670   2.951  0.00  0.00    +0.016 C 
ATOM     17  C   UNL     1       7.079  -3.152   2.810  0.00  0.00    +0.001 C 
ATOM     18  C   UNL     1       8.415  -2.815   2.144  0.00  0.00    +0.000 C 
ATOM     19  C   UNL     1       8.473  -3.463   0.760  0.00  0.00    +0.001 C 
ATOM     20  C   UNL     1       8.342  -4.981   0.901  0.00  0.00    +0.016 C 
ATOM     21  C   UNL     1       6.875  -6.836   1.708  0.00  0.00    +0.021 C 
ENDBRANCH  11  15
BRANCH   1  23
ATOM     22  N   UNL     1       1.200  -2.379   2.151  0.00  0.00    -0.312 N 
ATOM     23  C   UNL     1       2.288  -2.941   1.588  0.00  0.00    +0.218 C 
ATOM     24  O   UNL     1       3.234  -2.250   1.274  0.00  0.00    -0.275 OA
ATOM     25  H   UNL     1       0.443  -2.932   2.402  0.00  0.00    +0.149 HD
BRANCH  22  26
ATOM     26  C   UNL     1       1.160  -0.933   2.384  0.00  0.00    +0.148 C 
BRANCH  26  28
ATOM     27  C   UNL     1      -0.268   0.965   3.158  0.00  0.00    +0.053 C 
ATOM     28  C   UNL     1      -0.175  -0.557   3.029  0.00  0.00    +0.187 C 
BRANCH  28  29
ATOM     29  O   UNL     1      -0.263  -1.152   4.325  0.00  0.00    -0.486 OA
BRANCH  29  30
ATOM     30  C   UNL     1      -1.509  -1.356   4.827  0.00  0.00    +0.139 A 
ATOM     31  C   UNL     1      -2.625  -1.077   4.052  0.00  0.00    +0.047 A 
ATOM     32  C   UNL     1      -3.891  -1.286   4.565  0.00  0.00    +0.004 A 
ATOM     33  C   UNL     1      -4.047  -1.774   5.849  0.00  0.00    +0.002 A 
ATOM     34  C   UNL     1      -2.937  -2.053   6.625  0.00  0.00    +0.023 A 
ATOM     35  C   UNL     1      -1.667  -1.851   6.115  0.00  0.00    +0.083 A 
ATOM     36 CL   UNL     1      -0.274  -2.209   7.086  0.00  0.00    -0.080 Cl
ENDBRANCH  29  30
ENDBRANCH  28  29
ENDBRANCH  26  28
ENDBRANCH  22  26
ENDBRANCH   1  23
TORSDOF 6
