REMARK  Name = ZINC02363359
REMARK  5 active torsions:
REMARK  status: ('A' for Active; 'I' for Inactive)
REMARK    1  A    between atoms: C_1  and  C_2
REMARK    2  A    between atoms: C_5  and  C_8
REMARK    3  A    between atoms: C_9  and  C_19
REMARK    4  A    between atoms: N_21  and  N_22
REMARK    5  A    between atoms: C_23  and  C_24
REMARK                            x       y       z     vdW  Elec       q    Type
REMARK                         _______ _______ _______ _____ _____    ______ ____
ROOT
ATOM      1  C   UNL     1       8.472   3.595  -0.051  0.00  0.00    +0.109 A 
ATOM      2  C   UNL     1       7.192   4.139  -0.042  0.00  0.00    +0.177 A 
ATOM      3  N   UNL     1       7.307   5.477  -0.035  0.00  0.00    -0.124 NA
ATOM      4  N   UNL     1       8.548   5.814  -0.045  0.00  0.00    -0.058 NA
ATOM      5  N   UNL     1       9.335   4.654  -0.059  0.00  0.00    -0.187 N 
ATOM      6  C   UNL     1      10.732   4.593  -0.073  0.00  0.00    +0.241 A 
ATOM      7  C   UNL     1      11.641   5.743  -0.075  0.00  0.00    +0.206 A 
ATOM      8  N   UNL     1      12.867   5.296  -0.089  0.00  0.00    -0.032 NA
ATOM      9  O   UNL     1      12.813   3.881  -0.095  0.00  0.00    -0.239 OA
ATOM     10  N   UNL     1      11.448   3.504  -0.080  0.00  0.00    -0.027 NA
ATOM     11  N   UNL     1      11.262   7.080  -0.065  0.00  0.00    -0.337 N 
ATOM     12  H   UNL     1      10.322   7.318  -0.055  0.00  0.00    +0.144 HD
ATOM     13  H   UNL     1      11.938   7.776  -0.068  0.00  0.00    +0.144 HD
ENDROOT
BRANCH   1  18
ATOM     14  C   UNL     1       9.852  -1.990  -0.068  0.00  0.00    +0.044 C 
ATOM     15  C   UNL     1       9.491  -0.527  -0.063  0.00  0.00    -0.050 A 
ATOM     16  C   UNL     1       8.508  -0.063   0.793  0.00  0.00    +0.004 A 
ATOM     17  C   UNL     1       8.171   1.275   0.802  0.00  0.00    +0.010 A 
ATOM     18  C   UNL     1       8.826   2.162  -0.055  0.00  0.00    +0.003 A 
ATOM     19  C   UNL     1       9.815   1.686  -0.920  0.00  0.00    +0.010 A 
ATOM     20  C   UNL     1      10.144   0.346  -0.914  0.00  0.00    +0.004 A 
ENDBRANCH   1  18
BRANCH   2  21
ATOM     21  C   UNL     1       5.931   3.380  -0.035  0.00  0.00    +0.286 C 
ATOM     22  O   UNL     1       5.953   2.164  -0.041  0.00  0.00    -0.267 OA
ATOM     23  N   UNL     1       4.752   4.033  -0.020  0.00  0.00    -0.202 N 
ATOM     24  H   UNL     1       4.734   5.003  -0.015  0.00  0.00    +0.178 HD
BRANCH  23  25
ATOM     25  N   UNL     1       3.551   3.311  -0.013  0.00  0.00    -0.187 NA
ATOM     26  C   UNL     1       2.416   3.939   0.001  0.00  0.00    +0.139 C 
BRANCH  26  27
ATOM     27  C   UNL     1       1.153   3.179   0.008  0.00  0.00    +0.013 A 
ATOM     28  C   UNL     1      -0.071   3.852   0.023  0.00  0.00    +0.012 A 
ATOM     29  C   UNL     1      -1.249   3.135   0.031  0.00  0.00    +0.021 A 
ATOM     30  C   UNL     1      -1.222   1.750   0.017  0.00  0.00    +0.042 A 
ATOM     31  C   UNL     1      -0.013   1.076   0.008  0.00  0.00    +0.040 A 
ATOM     32  C   UNL     1       1.174   1.781   0.000  0.00  0.00    +0.051 A 
ATOM     33 CL   UNL     1       2.690   0.934  -0.018  0.00  0.00    -0.083 Cl
ATOM     34 CL   UNL     1      -2.710   0.856   0.020  0.00  0.00    -0.083 Cl
ENDBRANCH  26  27
ENDBRANCH  23  25
ENDBRANCH   2  21
TORSDOF 4
