REMARK  Name = ZINC43233877
REMARK  7 active torsions:
REMARK  status: ('A' for Active; 'I' for Inactive)
REMARK    1  A    between atoms: C_1  and  O_2
REMARK    2  A    between atoms: O_2  and  C_3
REMARK    3  A    between atoms: C_6  and  C_9
REMARK    4  A    between atoms: C_9  and  C_11
REMARK    5  A    between atoms: C_9  and  N_25
REMARK    6  A    between atoms: C_11  and  N_12
REMARK    7  A    between atoms: N_15  and  C_16
REMARK                            x       y       z     vdW  Elec       q    Type
REMARK                         _______ _______ _______ _____ _____    ______ ____
ROOT
ATOM      1  C   UNL     1      -5.277  -2.908   1.549  0.00  0.00    +0.095 C 
ENDROOT
BRANCH   1   2
ATOM      2  N   UNL     1      -5.329  -1.626   2.256  0.00  0.00    -0.300 N 
ATOM      3  C   UNL     1      -5.529  -1.599   3.589  0.00  0.00    +0.304 C 
ATOM      4  O   UNL     1      -5.668  -2.639   4.204  0.00  0.00    -0.253 OA
ATOM      5  N   UNL     1      -5.577  -0.420   4.240  0.00  0.00    -0.267 N 
ATOM      6  H   UNL     1      -5.219  -0.796   1.766  0.00  0.00    +0.150 HD
ATOM      7  H   UNL     1      -5.396   0.405   3.763  0.00  0.00    +0.156 HD
BRANCH   5   8
ATOM      8  C   UNL     1      -5.888  -0.386   5.607  0.00  0.00    +0.073 A 
ATOM      9  C   UNL     1      -5.491  -1.426   6.436  0.00  0.00    +0.029 A 
ATOM     10  C   UNL     1      -5.797  -1.392   7.782  0.00  0.00    +0.043 A 
ATOM     11  C   UNL     1      -6.501  -0.322   8.308  0.00  0.00    +0.161 A 
ATOM     12  C   UNL     1      -6.899   0.719   7.483  0.00  0.00    +0.195 A 
ATOM     13  C   UNL     1      -6.588   0.692   6.134  0.00  0.00    +0.182 A 
ATOM     14  F   UNL     1      -6.971   1.708   5.331  0.00  0.00    -0.200 F 
ATOM     15  F   UNL     1      -7.585   1.763   7.997  0.00  0.00    -0.199 F 
ATOM     16  F   UNL     1      -6.800  -0.292   9.625  0.00  0.00    -0.202 F 
ENDBRANCH   5   8
ENDBRANCH   1   2
BRANCH   1  17
ATOM     17  C   UNL     1      -4.913  -2.666   0.083  0.00  0.00    -0.020 C 
BRANCH  17  21
ATOM     18  C   UNL     1      -0.941  -1.108  -0.160  0.00  0.00    +0.120 A 
ATOM     19  C   UNL     1      -2.030  -0.253  -0.253  0.00  0.00    +0.046 A 
ATOM     20  C   UNL     1      -3.313  -0.759  -0.175  0.00  0.00    +0.005 A 
ATOM     21  C   UNL     1      -3.513  -2.117  -0.003  0.00  0.00    -0.059 A 
ATOM     22  C   UNL     1      -2.429  -2.971   0.090  0.00  0.00    +0.005 A 
ATOM     23  C   UNL     1      -1.144  -2.470   0.006  0.00  0.00    +0.046 A 
BRANCH  18  25
ATOM     24  C   UNL     1       0.455   0.800  -0.409  0.00  0.00    +0.277 C 
ATOM     25  O   UNL     1       0.322  -0.613  -0.237  0.00  0.00    -0.495 OA
ENDBRANCH  18  25
ENDBRANCH  17  21
BRANCH  17  26
ATOM     26  N   UNL     1      -4.988  -3.934  -0.656  0.00  0.00    +0.385 N 
ATOM     27  C   UNL     1      -6.395  -4.405  -0.725  0.00  0.00    -0.078 C 
ATOM     28  C   UNL     1      -6.390  -5.361  -1.944  0.00  0.00    -0.020 C 
ATOM     29  C   UNL     1      -5.431  -4.657  -2.931  0.00  0.00    -0.020 C 
ATOM     30  C   UNL     1      -4.560  -3.734  -2.057  0.00  0.00    -0.078 C 
ATOM     31  H   UNL     1      -4.408  -4.631  -0.211  0.00  0.00    -0.081 HD
ENDBRANCH  17  26
ENDBRANCH   1  17
TORSDOF 6
