REMARK  Name = ZINC00643437
REMARK  7 active torsions:
REMARK  status: ('A' for Active; 'I' for Inactive)
REMARK    1  A    between atoms: C_1  and  C_2
REMARK    2  A    between atoms: C_2  and  C_4
REMARK    3  A    between atoms: C_2  and  N_10
REMARK    4  A    between atoms: C_11  and  C_13
REMARK    5  A    between atoms: C_13  and  S_14
REMARK    6  A    between atoms: S_14  and  C_15
REMARK    7  A    between atoms: N_25  and  N_26
REMARK                            x       y       z     vdW  Elec       q    Type
REMARK                         _______ _______ _______ _____ _____    ______ ____
ROOT
ATOM      1  S   UNL     1      -0.888   1.685  -1.458  0.00  0.00    -0.077 S 
ENDROOT
BRANCH   1   2
ATOM      2  C   UNL     1       0.122   0.990  -2.724  0.00  0.00    +0.190 A 
ATOM      3  N   UNL     1       1.165   0.280  -2.370  0.00  0.00    -0.222 NA
ATOM      4  C   UNL     1       1.978  -0.285  -3.285  0.00  0.00    +0.079 A 
ATOM      5  C   UNL     1       3.089  -1.046  -2.908  0.00  0.00    +0.028 A 
ATOM      6  C   UNL     1       3.889  -1.596  -3.869  0.00  0.00    +0.002 A 
ATOM      7  C   UNL     1       3.617  -1.410  -5.219  0.00  0.00    +0.001 A 
ATOM      8  C   UNL     1       2.538  -0.671  -5.619  0.00  0.00    +0.015 A 
ATOM      9  C   UNL     1       1.704  -0.098  -4.659  0.00  0.00    +0.066 A 
ATOM     10  C   UNL     1       0.532   0.706  -5.030  0.00  0.00    +0.279 A 
ATOM     11  O   UNL     1       0.245   0.903  -6.197  0.00  0.00    -0.265 OA
ATOM     12  N   UNL     1      -0.216   1.220  -4.027  0.00  0.00    -0.209 N 
BRANCH  12  13
ATOM     13  N   UNL     1      -1.316   1.976  -4.319  0.00  0.00    -0.293 N 
ATOM     14  H   UNL     1      -1.441   2.061  -5.316  0.00  0.00    +0.163 HD
ATOM     15  H   UNL     1      -2.142   1.596  -3.881  0.00  0.00    +0.163 HD
ENDBRANCH  12  13
ENDBRANCH   1   2
BRANCH   1  16
ATOM     16  C   UNL     1      -0.013   1.086   0.008  0.00  0.00    +0.173 C 
BRANCH  16  18
ATOM     17  N   UNL     1      -0.242   1.246   2.466  0.00  0.00    -0.308 N 
ATOM     18  C   UNL     1      -0.718   1.572   1.248  0.00  0.00    +0.224 C 
ATOM     19  O   UNL     1      -1.714   2.256   1.150  0.00  0.00    -0.275 OA
ATOM     20  H   UNL     1       0.555   0.699   2.544  0.00  0.00    +0.149 HD
BRANCH  17  22
ATOM     21  C   UNL     1      -0.438   3.126   4.018  0.00  0.00    +0.033 C 
ATOM     22  C   UNL     1      -0.927   1.718   3.671  0.00  0.00    +0.100 C 
BRANCH  22  23
ATOM     23  C   UNL     1      -0.629   0.786   4.817  0.00  0.00    -0.027 A 
ATOM     24  C   UNL     1       0.642   0.263   4.970  0.00  0.00    +0.005 A 
ATOM     25  C   UNL     1       0.917  -0.588   6.023  0.00  0.00    +0.000 A 
ATOM     26  C   UNL     1      -0.081  -0.924   6.919  0.00  0.00    +0.000 A 
ATOM     27  C   UNL     1      -1.353  -0.406   6.763  0.00  0.00    +0.000 A 
ATOM     28  C   UNL     1      -1.627   0.449   5.712  0.00  0.00    +0.005 A 
ENDBRANCH  22  23
ENDBRANCH  17  22
ENDBRANCH  16  18
ENDBRANCH   1  16
TORSDOF 6
