REMARK  Name = ZINC37929168
REMARK  4 active torsions:
REMARK  status: ('A' for Active; 'I' for Inactive)
REMARK    1  A    between atoms: C_6  and  N_7
REMARK    2  A    between atoms: N_7  and  S_8
REMARK    3  A    between atoms: S_8  and  C_11
REMARK    4  A    between atoms: C_16  and  N_17
REMARK                            x       y       z     vdW  Elec       q    Type
REMARK                         _______ _______ _______ _____ _____    ______ ____
ROOT
ATOM      1  S   UNL     1      -2.533  -0.197  -0.910  0.00  0.00    +0.074 S 
ATOM      2  O   UNL     1      -3.676  -1.006  -0.667  0.00  0.00    -0.150 OA
ATOM      3  O   UNL     1      -2.536   1.208  -0.700  0.00  0.00    -0.150 OA
ENDROOT
BRANCH   1   4
ATOM      4  C   UNL     1      -2.085  -0.453  -2.595  0.00  0.00    +0.130 A 
ATOM      5  C   UNL     1      -1.832   0.629  -3.415  0.00  0.00    +0.046 A 
ATOM      6  C   UNL     1      -1.481   0.428  -4.738  0.00  0.00    +0.020 A 
ATOM      7  C   UNL     1      -1.380  -0.856  -5.243  0.00  0.00    +0.017 A 
ATOM      8  C   UNL     1      -1.631  -1.942  -4.428  0.00  0.00    +0.026 A 
ATOM      9  C   UNL     1      -1.979  -1.744  -3.097  0.00  0.00    +0.052 A 
ATOM     10 BR   UNL     1      -1.137   1.913  -5.858  0.00  0.00    -0.050 Br
BRANCH   9  11
ATOM     11  N   UNL     1      -2.227  -2.840  -2.268  0.00  0.00    -0.356 N 
ATOM     12  H   UNL     1      -2.386  -2.706  -1.321  0.00  0.00    +0.142 HD
ATOM     13  H   UNL     1      -2.241  -3.736  -2.640  0.00  0.00    +0.142 HD
ENDBRANCH   9  11
ENDBRANCH   1   4
BRANCH   1  14
ATOM     14  N   UNL     1      -1.310  -0.812   0.021  0.00  0.00    -0.216 N 
ATOM     15  H   UNL     1      -1.484  -1.554   0.622  0.00  0.00    +0.174 HD
BRANCH  14  21
ATOM     16  C   UNL     1       0.141   1.115  -0.053  0.00  0.00    +0.025 A 
ATOM     17  C   UNL     1       1.410   1.651  -0.132  0.00  0.00    +0.006 A 
ATOM     18  C   UNL     1       2.516   0.822  -0.214  0.00  0.00    -0.044 A 
ATOM     19  C   UNL     1       2.351  -0.552  -0.219  0.00  0.00    -0.042 A 
ATOM     20  C   UNL     1       1.081  -1.094  -0.141  0.00  0.00    +0.028 A 
ATOM     21  C   UNL     1      -0.028  -0.264  -0.058  0.00  0.00    +0.048 A 
ATOM     22  C   UNL     1       3.701  -1.229  -0.317  0.00  0.00    +0.036 C 
ATOM     23  C   UNL     1       4.669  -0.132  -0.810  0.00  0.00    +0.009 C 
ATOM     24  C   UNL     1       3.989   1.159  -0.309  0.00  0.00    +0.036 C 
ENDBRANCH  14  21
ENDBRANCH   1  14
TORSDOF 4
