REMARK  Name = ZINC09092239
REMARK  8 active torsions:
REMARK  status: ('A' for Active; 'I' for Inactive)
REMARK    1  A    between atoms: C_1  and  C_2
REMARK    2  A    between atoms: C_2  and  C_4
REMARK    3  A    between atoms: C_2  and  S_17
REMARK    4  A    between atoms: N_6  and  C_7
REMARK    5  A    between atoms: C_9  and  N_14
REMARK    6  A    between atoms: S_17  and  C_18
REMARK    7  A    between atoms: C_21  and  C_24
REMARK    8  A    between atoms: N_22  and  N_23
REMARK                            x       y       z     vdW  Elec       q    Type
REMARK                         _______ _______ _______ _____ _____    ______ ____
ROOT
ATOM      1  C   UNL     1       7.036   5.430   1.946  0.00  0.00    +0.029 C 
ATOM      2  C   UNL     1       6.671   6.424   0.841  0.00  0.00    +0.137 C 
ENDROOT
BRANCH   2   3
ATOM      3  C   UNL     1       7.579   7.624   0.926  0.00  0.00    +0.230 C 
ATOM      4  O   UNL     1       7.223   8.612   1.532  0.00  0.00    -0.274 OA
ATOM      5  N   UNL     1       8.786   7.599   0.327  0.00  0.00    -0.283 N 
ATOM      6  H   UNL     1       9.038   6.843  -0.226  0.00  0.00    +0.155 HD
BRANCH   5   7
ATOM      7  C   UNL     1       9.677   8.665   0.503  0.00  0.00    +0.054 A 
ATOM      8  C   UNL     1       9.522   9.530   1.579  0.00  0.00    +0.057 A 
ATOM      9  C   UNL     1      10.403  10.581   1.750  0.00  0.00    +0.128 A 
ATOM     10  C   UNL     1      11.438  10.771   0.853  0.00  0.00    +0.034 A 
ATOM     11  C   UNL     1      11.594   9.913  -0.219  0.00  0.00    +0.024 A 
ATOM     12  C   UNL     1      10.720   8.856  -0.394  0.00  0.00    +0.062 A 
ATOM     13 CL   UNL     1      10.922   7.774  -1.736  0.00  0.00    -0.082 Cl
BRANCH   9  14
ATOM     14  N   UNL     1      10.238  11.503   2.896  0.00  0.00    +0.056 N 
ATOM     15  O   UNL     1       9.327  11.335   3.687  0.00  0.00    -0.126 OA
ATOM     16  O   UNL     1      11.014  12.429   3.048  0.00  0.00    -0.126 OA
ENDBRANCH   9  14
ENDBRANCH   5   7
ENDBRANCH   2   3
BRANCH   2  17
ATOM     17  S   UNL     1       4.952   6.951   1.047  0.00  0.00    -0.072 S 
BRANCH  17  18
ATOM     18  C   UNL     1       4.126   5.422   0.760  0.00  0.00    +0.209 A 
ATOM     19  N   UNL     1       4.694   4.270   0.480  0.00  0.00    -0.121 NA
ATOM     20  N   UNL     1       3.798   3.361   0.331  0.00  0.00    -0.127 NA
ATOM     21  C   UNL     1       2.603   3.876   0.507  0.00  0.00    +0.183 A 
ATOM     22  N   UNL     1       2.777   5.213   0.781  0.00  0.00    -0.224 N 
BRANCH  21  23
ATOM     23  C   UNL     1       1.315   3.157   0.420  0.00  0.00    +0.035 A 
ATOM     24  C   UNL     1       0.258   3.698  -0.315  0.00  0.00    +0.013 A 
ATOM     25  C   UNL     1      -0.942   3.023  -0.392  0.00  0.00    +0.001 A 
ATOM     26  C   UNL     1      -1.102   1.813   0.262  0.00  0.00    +0.001 A 
ATOM     27  C   UNL     1      -0.058   1.268   0.987  0.00  0.00    +0.016 A 
ATOM     28  C   UNL     1       1.149   1.934   1.072  0.00  0.00    +0.029 A 
ATOM     29 BR   UNL     1       2.573   1.191   2.070  0.00  0.00    -0.050 Br
ENDBRANCH  21  23
BRANCH  22  30
ATOM     30  N   UNL     1       1.802   6.139   1.026  0.00  0.00    -0.295 N 
ATOM     31  H   UNL     1       1.650   6.250   2.017  0.00  0.00    +0.163 HD
ATOM     32  H   UNL     1       2.026   7.022   0.593  0.00  0.00    +0.163 HD
ENDBRANCH  22  30
ENDBRANCH  17  18
ENDBRANCH   2  17
TORSDOF 7
