REMARK  Name = ZINC12445508
REMARK  9 active torsions:
REMARK  status: ('A' for Active; 'I' for Inactive)
REMARK    1  A    between atoms: C_1  and  O_2
REMARK    2  A    between atoms: O_2  and  C_3
REMARK    3  A    between atoms: C_3  and  C_4
REMARK    4  A    between atoms: C_4  and  N_5
REMARK    5  A    between atoms: N_5  and  C_6
REMARK    6  A    between atoms: C_6  and  C_7
REMARK    7  A    between atoms: C_13  and  N_67
REMARK    8  A    between atoms: C_22  and  C_24
REMARK    9  A    between atoms: C_24  and  C_25
REMARK                            x       y       z     vdW  Elec       q    Type
REMARK                         _______ _______ _______ _____ _____    ______ ____
ROOT
ATOM      1  N   UNL     1       2.822   4.257  -0.064  0.00  0.00    -0.299 N 
ATOM      2  C   UNL     1       3.873   4.369   0.772  0.00  0.00    +0.222 C 
ATOM      3  O   UNL     1       3.749   4.083   1.944  0.00  0.00    -0.275 OA
ENDROOT
BRANCH   1   4
ATOM      4  C   UNL     1       2.972   4.603  -1.480  0.00  0.00    +0.135 C 
BRANCH   4   5
ATOM      5  C   UNL     1       2.506   6.042  -1.705  0.00  0.00    +0.178 C 
BRANCH   5   7
ATOM      6  C   UNL     1       3.002   8.314  -1.124  0.00  0.00    +0.194 C 
ATOM      7  O   UNL     1       3.353   6.936  -0.980  0.00  0.00    -0.381 OA
ENDBRANCH   5   7
ENDBRANCH   4   5
ENDBRANCH   1   4
BRANCH   1   8
ATOM      8  C   UNL     1       1.530   3.789   0.443  0.00  0.00    +0.109 C 
BRANCH   8   9
ATOM      9  C   UNL     1       1.396   2.286   0.190  0.00  0.00    -0.010 C 
ATOM     10  C   UNL     1       2.456   1.535   1.000  0.00  0.00    +0.001 C 
ATOM     11  C   UNL     1       2.277   0.029   0.788  0.00  0.00    -0.018 C 
ATOM     12  C   UNL     1       0.861  -0.374   1.202  0.00  0.00    -0.078 C 
ATOM     13  C   UNL     1       0.005   1.817   0.621  0.00  0.00    -0.073 C 
ATOM     14  N   UNL     1      -0.112   0.365   0.369  0.00  0.00    +0.382 N 
ATOM     15  H   UNL     1       0.091   0.181  -0.621  0.00  0.00    -0.081 HD
BRANCH  14  16
ATOM     16  C   UNL     1      -1.484  -0.091   0.670  0.00  0.00    -0.060 C 
ATOM     17  C   UNL     1      -1.674  -1.550   0.204  0.00  0.00    +0.020 C 
ATOM     18  C   UNL     1      -3.100  -1.617  -0.308  0.00  0.00    -0.046 A 
ATOM     19  C   UNL     1      -3.914  -2.710  -0.552  0.00  0.00    +0.004 A 
ATOM     20  C   UNL     1      -5.200  -2.529  -1.022  0.00  0.00    +0.000 A 
ATOM     21  C   UNL     1      -5.677  -1.251  -1.250  0.00  0.00    +0.000 A 
ATOM     22  C   UNL     1      -4.866  -0.159  -1.007  0.00  0.00    +0.004 A 
ATOM     23  C   UNL     1      -3.576  -0.340  -0.536  0.00  0.00    -0.046 A 
ATOM     24  C   UNL     1      -2.505   0.674  -0.198  0.00  0.00    +0.020 C 
ENDBRANCH  14  16
ENDBRANCH   8   9
ENDBRANCH   1   8
BRANCH   2  25
ATOM     25  C   UNL     1       5.203   4.850   0.251  0.00  0.00    +0.153 C 
BRANCH  25  26
ATOM     26  C   UNL     1       6.202   4.885   1.379  0.00  0.00    +0.079 A 
ATOM     27  C   UNL     1       6.467   6.020   2.257  0.00  0.00    +0.023 A 
ATOM     28  C   UNL     1       5.952   7.318   2.353  0.00  0.00    +0.012 A 
ATOM     29  C   UNL     1       6.426   8.163   3.314  0.00  0.00    +0.001 A 
ATOM     30  C   UNL     1       7.414   7.747   4.198  0.00  0.00    +0.002 A 
ATOM     31  C   UNL     1       7.926   6.482   4.130  0.00  0.00    +0.028 A 
ATOM     32  C   UNL     1       7.466   5.599   3.156  0.00  0.00    +0.066 A 
ATOM     33  N   UNL     1       7.776   4.306   2.824  0.00  0.00    -0.277 N 
ATOM     34  H   UNL     1       8.458   3.737   3.283  0.00  0.00    +0.189 HD
ATOM     35  N   UNL     1       6.986   3.910   1.740  0.00  0.00    -0.177 NA
ENDBRANCH  25  26
ENDBRANCH   2  25
TORSDOF 8
