REMARK  Name = ZINC33397116
REMARK  9 active torsions:
REMARK  status: ('A' for Active; 'I' for Inactive)
REMARK    1  A    between atoms: C_4  and  C_7
REMARK    2  A    between atoms: C_8  and  C_9
REMARK    3  A    between atoms: N_11  and  C_12
REMARK    4  A    between atoms: C_12  and  C_14
REMARK    5  A    between atoms: C_12  and  N_18
REMARK    6  A    between atoms: N_18  and  C_19
REMARK    7  A    between atoms: C_19  and  N_21
REMARK    8  A    between atoms: N_21  and  C_22
REMARK    9  A    between atoms: C_26  and  N_28
REMARK                            x       y       z     vdW  Elec       q    Type
REMARK                         _______ _______ _______ _____ _____    ______ ____
ROOT
ATOM      1  C   UNL     1       1.360   7.133  -0.567  0.00  0.00    +0.211 C 
ENDROOT
BRANCH   1   4
ATOM      2  C   UNL     1       2.984   7.701  -2.292  0.00  0.00    +0.238 C 
ATOM      3  O   UNL     1       3.391   6.555  -2.245  0.00  0.00    -0.271 OA
ATOM      4  N   UNL     1       1.971   8.090  -1.492  0.00  0.00    -0.290 N 
ATOM      5  H   UNL     1       1.603   9.126  -1.535  0.00  0.00    +0.151 HD
BRANCH   2   7
ATOM      6  C   UNL     1       4.705   8.318  -3.903  0.00  0.00    +0.013 C 
ATOM      7  C   UNL     1       3.595   8.658  -3.218  0.00  0.00    +0.068 C 
BRANCH   6  11
ATOM      8  C   UNL     1       6.906   4.864  -2.798  0.00  0.00    +0.000 A 
ATOM      9  C   UNL     1       6.675   5.135  -4.136  0.00  0.00    +0.001 A 
ATOM     10  C   UNL     1       5.961   6.255  -4.503  0.00  0.00    +0.008 A 
ATOM     11  C   UNL     1       5.468   7.119  -3.519  0.00  0.00    -0.025 A 
ATOM     12  C   UNL     1       5.710   6.841  -2.170  0.00  0.00    +0.008 A 
ATOM     13  C   UNL     1       6.421   5.713  -1.819  0.00  0.00    +0.001 A 
ENDBRANCH   6  11
ENDBRANCH   2   7
ENDBRANCH   1   4
BRANCH   1  14
ATOM     14  C   UNL     1       1.179   7.792   0.802  0.00  0.00    +0.225 C 
ATOM     15 CL   UNL     1       0.427   6.614   1.942  0.00  0.00    -0.080 Cl
ATOM     16 CL   UNL     1       2.786   8.303   1.440  0.00  0.00    -0.080 Cl
ATOM     17 CL   UNL     1       0.111   9.235   0.638  0.00  0.00    -0.080 Cl
ENDBRANCH   1  14
BRANCH   1  18
ATOM     18  N   UNL     1       0.055   6.717  -1.085  0.00  0.00    -0.305 N 
ATOM     19  H   UNL     1      -0.805   7.401  -1.023  0.00  0.00    +0.150 HD
BRANCH  18  20
ATOM     20  C   UNL     1      -0.093   5.497  -1.638  0.00  0.00    +0.136 C 
ATOM     21  S   UNL     1       1.244   4.433  -1.734  0.00  0.00    -0.019 S 
BRANCH  20  22
ATOM     22  N   UNL     1      -1.295   5.114  -2.115  0.00  0.00    -0.297 N 
ATOM     23  H   UNL     1      -2.135   5.824  -2.122  0.00  0.00    +0.154 HD
BRANCH  22  24
ATOM     24  C   UNL     1      -1.473   3.815  -2.600  0.00  0.00    +0.035 A 
ATOM     25  C   UNL     1      -1.012   2.728  -1.867  0.00  0.00    +0.023 A 
ATOM     26  C   UNL     1      -1.189   1.447  -2.350  0.00  0.00    +0.004 A 
ATOM     27  C   UNL     1      -1.825   1.244  -3.561  0.00  0.00    +0.033 A 
ATOM     28  C   UNL     1      -2.280   2.323  -4.296  0.00  0.00    +0.128 A 
ATOM     29  C   UNL     1      -2.110   3.607  -3.816  0.00  0.00    +0.056 A 
BRANCH  28  30
ATOM     30  N   UNL     1      -2.954   2.102  -5.595  0.00  0.00    +0.056 N 
ATOM     31  O   UNL     1      -3.108   0.969  -6.016  0.00  0.00    -0.126 OA
ATOM     32  O   UNL     1      -3.355   3.052  -6.242  0.00  0.00    -0.126 OA
ENDBRANCH  28  30
ENDBRANCH  22  24
ENDBRANCH  20  22
ENDBRANCH  18  20
ENDBRANCH   1  18
TORSDOF 9
