REMARK  Name = ZINC30977762
REMARK  14 active torsions:
REMARK  status: ('A' for Active; 'I' for Inactive)
REMARK    1  A    between atoms: C_1  and  C_2
REMARK    2  A    between atoms: C_2  and  C_3
REMARK    3  A    between atoms: C_2  and  C_4
REMARK    4  A    between atoms: C_4  and  C_5
REMARK    5  A    between atoms: C_5  and  C_7
REMARK    6  A    between atoms: C_5  and  N_13
REMARK    7  A    between atoms: C_14  and  C_16
REMARK    8  A    between atoms: N_19  and  C_22
REMARK    9  A    between atoms: C_22  and  C_23
REMARK   10  A    between atoms: C_25  and  C_28
REMARK   11  A    between atoms: C_31  and  C_34
REMARK   12  A    between atoms: C_34  and  C_35
REMARK   13  A    between atoms: C_34  and  C_36
REMARK   14  A    between atoms: C_34  and  C_37
REMARK                            x       y       z     vdW  Elec       q    Type
REMARK                         _______ _______ _______ _____ _____    ______ ____
ROOT
ATOM      1  C   UNL     1       3.689   2.553   2.579  0.00  0.00    +0.071 C 
ATOM      2  C   UNL     1       3.444   4.053   2.393  0.00  0.00    -0.006 C 
ATOM      3  C   UNL     1       4.726   4.819   2.728  0.00  0.00    -0.077 C 
ATOM      4  N   UNL     1       5.811   4.370   1.846  0.00  0.00    +0.386 N 
ATOM      5  C   UNL     1       6.096   2.942   2.041  0.00  0.00    -0.077 C 
ATOM      6  C   UNL     1       4.855   2.120   1.686  0.00  0.00    -0.006 C 
ATOM      7  H   UNL     1       5.476   4.506   0.807  0.00  0.00    -0.081 HD
ENDROOT
BRANCH   1   9
ATOM      8  N   UNL     1       1.291   2.007   2.849  0.00  0.00    -0.308 N 
ATOM      9  C   UNL     1       2.449   1.788   2.193  0.00  0.00    +0.216 C 
ATOM     10  O   UNL     1       2.491   0.977   1.293  0.00  0.00    -0.276 OA
ATOM     11  H   UNL     1       1.231   2.801   3.608  0.00  0.00    +0.149 HD
BRANCH   8  12
ATOM     12  C   UNL     1       0.115   1.187   2.551  0.00  0.00    +0.103 C 
BRANCH  12  13
ATOM     13  C   UNL     1      -0.770   1.116   3.770  0.00  0.00    -0.027 A 
ATOM     14  C   UNL     1      -0.957   2.238   4.554  0.00  0.00    +0.005 A 
ATOM     15  C   UNL     1      -1.771   2.174   5.669  0.00  0.00    +0.000 A 
ATOM     16  C   UNL     1      -2.391   0.985   6.005  0.00  0.00    +0.000 A 
ATOM     17  C   UNL     1      -2.200  -0.139   5.223  0.00  0.00    +0.000 A 
ATOM     18  C   UNL     1      -1.389  -0.073   4.106  0.00  0.00    +0.005 A 
ENDBRANCH  12  13
BRANCH  12  19
ATOM     19  C   UNL     1      -0.663   1.813   1.392  0.00  0.00    +0.030 C 
BRANCH  19  21
ATOM     20  C   UNL     1      -1.239  -0.418   0.425  0.00  0.00    +0.007 C 
ATOM     21  C   UNL     1      -1.811   0.885   0.988  0.00  0.00    -0.015 C 
ATOM     22  C   UNL     1      -2.667   1.569  -0.080  0.00  0.00    +0.007 C 
ENDBRANCH  19  21
ENDBRANCH  12  19
ENDBRANCH   8  12
ENDBRANCH   1   9
BRANCH   4  23
ATOM     23  C   UNL     1       7.020   5.180   2.045  0.00  0.00    +0.022 C 
BRANCH  23  24
ATOM     24  C   UNL     1       6.754   6.595   1.601  0.00  0.00    +0.211 A 
ATOM     25  N   UNL     1       6.294   7.570   2.346  0.00  0.00    -0.193 NA
ATOM     26  C   UNL     1       6.220   8.646   1.530  0.00  0.00    +0.202 A 
ATOM     27  N   UNL     1       6.635   8.265   0.350  0.00  0.00    -0.056 NA
ATOM     28  O   UNL     1       6.949   7.094   0.377  0.00  0.00    -0.340 OA
BRANCH  26  29
ATOM     29  C   UNL     1       5.754  10.005   1.904  0.00  0.00    +0.022 A 
ATOM     30  C   UNL     1       5.332  10.265   3.206  0.00  0.00    +0.012 A 
ATOM     31  C   UNL     1       4.905  11.532   3.550  0.00  0.00    +0.005 A 
ATOM     32  C   UNL     1       4.884  12.539   2.601  0.00  0.00    -0.042 A 
ATOM     33  C   UNL     1       5.296  12.284   1.306  0.00  0.00    +0.005 A 
ATOM     34  C   UNL     1       5.731  11.022   0.953  0.00  0.00    +0.012 A 
BRANCH  32  35
ATOM     35  C   UNL     1       4.410  13.918   2.981  0.00  0.00    -0.013 C 
ATOM     36  C   UNL     1       3.199  14.294   2.125  0.00  0.00    +0.015 C 
ATOM     37  C   UNL     1       4.015  13.932   4.459  0.00  0.00    +0.015 C 
ATOM     38  C   UNL     1       5.536  14.927   2.744  0.00  0.00    +0.015 C 
ENDBRANCH  32  35
ENDBRANCH  26  29
ENDBRANCH  23  24
ENDBRANCH   4  23
TORSDOF 9
