REMARK  Name = ZINC06269645
REMARK  10 active torsions:
REMARK  status: ('A' for Active; 'I' for Inactive)
REMARK    1  A    between atoms: C_1  and  C_2
REMARK    2  A    between atoms: C_5  and  O_8
REMARK    3  A    between atoms: O_8  and  C_9
REMARK    4  A    between atoms: C_9  and  C_10
REMARK    5  A    between atoms: C_10  and  N_11
REMARK    6  A    between atoms: N_14  and  C_15
REMARK    7  A    between atoms: C_16  and  C_31
REMARK    8  A    between atoms: N_20  and  S_21
REMARK    9  A    between atoms: S_21  and  C_24
REMARK   10  A    between atoms: C_27  and  C_30
REMARK                            x       y       z     vdW  Elec       q    Type
REMARK                         _______ _______ _______ _____ _____    ______ ____
ROOT
ATOM      1  C   UNL     1      -2.341  -2.759   0.010  0.00  0.00    +0.095 A 
ATOM      2  C   UNL     1      -2.552  -4.102  -0.001  0.00  0.00    +0.043 A 
ATOM      3  N   UNL     1      -3.787  -4.571   0.014  0.00  0.00    -0.335 N 
ATOM      4  C   UNL     1      -4.828  -3.758   0.028  0.00  0.00    +0.193 A 
ATOM      5  S   UNL     1      -4.026  -2.160   0.028  0.00  0.00    -0.033 S 
ATOM      6  N   UNL     1      -6.183  -4.063   0.039  0.00  0.00    -0.103 NA
ATOM      7  C   UNL     1      -1.382  -5.052  -0.025  0.00  0.00    +0.066 C 
ATOM      8  H   UNL     1      -3.963  -5.657   0.015  0.00  0.00    +0.168 HD
ENDROOT
BRANCH   1  12
ATOM      9  N   UNL     1       0.002  -0.004   0.002  0.00  0.00    -0.296 N 
ATOM     10  C   UNL     1      -1.156  -0.694   0.009  0.00  0.00    +0.304 C 
ATOM     11  O   UNL     1      -2.217  -0.100   0.023  0.00  0.00    -0.252 OA
ATOM     12  N   UNL     1      -1.137  -2.041   0.002  0.00  0.00    -0.262 N 
ATOM     13  H   UNL     1       0.962  -0.541  -0.010  0.00  0.00    +0.150 HD
ATOM     14  H   UNL     1      -0.177  -2.578  -0.010  0.00  0.00    +0.157 HD
BRANCH   9  15
ATOM     15  C   UNL     1      -0.018   1.461   0.010  0.00  0.00    +0.146 C 
BRANCH  15  16
ATOM     16  C   UNL     1       1.418   1.990  -0.001  0.00  0.00    +0.247 C 
BRANCH  16  17
ATOM     17  O   UNL     1       2.050   1.628  -1.230  0.00  0.00    -0.490 OA
BRANCH  17  22
ATOM     18  C   UNL     1       7.390   3.271  -1.941  0.00  0.00    +0.044 C 
ATOM     19  C   UNL     1       5.961   2.832  -1.751  0.00  0.00    -0.050 A 
ATOM     20  C   UNL     1       5.323   2.111  -2.743  0.00  0.00    +0.007 A 
ATOM     21  C   UNL     1       4.013   1.706  -2.571  0.00  0.00    +0.046 A 
ATOM     22  C   UNL     1       3.338   2.024  -1.401  0.00  0.00    +0.121 A 
ATOM     23  C   UNL     1       3.979   2.752  -0.410  0.00  0.00    +0.046 A 
ATOM     24  C   UNL     1       5.291   3.149  -0.584  0.00  0.00    +0.007 A 
ENDBRANCH  17  22
ENDBRANCH  16  17
ENDBRANCH  15  16
ENDBRANCH   9  15
ENDBRANCH   1  12
BRANCH   6  25
ATOM     25  S   UNL     1      -7.305  -2.846   0.056  0.00  0.00    +0.101 S 
ATOM     26  O   UNL     1      -8.582  -3.470   0.038  0.00  0.00    -0.146 OA
ATOM     27  O   UNL     1      -6.912  -1.945   1.083  0.00  0.00    -0.146 OA
BRANCH  25  28
ATOM     28  C   UNL     1      -7.150  -1.972  -1.466  0.00  0.00    +0.113 A 
ATOM     29  C   UNL     1      -6.291  -0.893  -1.559  0.00  0.00    +0.029 A 
ATOM     30  C   UNL     1      -6.166  -0.211  -2.755  0.00  0.00    +0.005 A 
ATOM     31  C   UNL     1      -6.907  -0.601  -3.855  0.00  0.00    -0.050 A 
ATOM     32  C   UNL     1      -7.769  -1.677  -3.760  0.00  0.00    +0.005 A 
ATOM     33  C   UNL     1      -7.891  -2.363  -2.566  0.00  0.00    +0.029 A 
ATOM     34  C   UNL     1      -6.774   0.146  -5.157  0.00  0.00    +0.044 C 
ENDBRANCH  25  28
ENDBRANCH   6  25
TORSDOF 7
