REMARK  Name = ZINC63280132
REMARK  12 active torsions:
REMARK  status: ('A' for Active; 'I' for Inactive)
REMARK    1  A    between atoms: C_1  and  C_2
REMARK    2  A    between atoms: C_2  and  C_4
REMARK    3  A    between atoms: C_2  and  N_14
REMARK    4  A    between atoms: C_4  and  C_5
REMARK    5  A    between atoms: C_15  and  C_17
REMARK    6  A    between atoms: C_20  and  C_24
REMARK    7  A    between atoms: C_26  and  O_34
REMARK    8  A    between atoms: C_27  and  O_32
REMARK    9  A    between atoms: C_28  and  O_30
REMARK   10  A    between atoms: O_30  and  C_31
REMARK   11  A    between atoms: O_32  and  C_33
REMARK   12  A    between atoms: O_34  and  C_35
REMARK                            x       y       z     vdW  Elec       q    Type
REMARK                         _______ _______ _______ _____ _____    ______ ____
ROOT
ATOM      1  C   UNL     1       2.738  -1.068   2.320  0.00  0.00    +0.086 C 
ATOM      2  C   UNL     1       4.070  -1.275   2.272  0.00  0.00    +0.020 C 
ATOM      3  N   UNL     1       4.811  -0.952   1.192  0.00  0.00    -0.331 N 
ATOM      4  C   UNL     1       6.100  -1.640   0.992  0.00  0.00    +0.160 C 
ATOM      5  S   UNL     1       6.226  -2.679   2.509  0.00  0.00    -0.128 S 
ATOM      6  C   UNL     1       4.841  -1.883   3.438  0.00  0.00    +0.121 C 
ATOM      7  H   UNL     1       4.503  -0.283   0.561  0.00  0.00    +0.147 HD
ENDROOT
BRANCH   4   8
ATOM      8  C   UNL     1       6.065  -2.496  -0.248  0.00  0.00    -0.010 A 
ATOM      9  C   UNL     1       4.871  -3.052  -0.668  0.00  0.00    +0.056 A 
ATOM     10  C   UNL     1       4.835  -3.840  -1.808  0.00  0.00    +0.166 A 
ATOM     11  C   UNL     1       6.000  -4.070  -2.530  0.00  0.00    +0.204 A 
ATOM     12  C   UNL     1       7.198  -3.509  -2.105  0.00  0.00    +0.166 A 
ATOM     13  C   UNL     1       7.226  -2.717  -0.966  0.00  0.00    +0.056 A 
BRANCH  12  14
ATOM     14  O   UNL     1       8.342  -3.731  -2.807  0.00  0.00    -0.491 OA
ATOM     15  C   UNL     1       9.536  -3.122  -2.312  0.00  0.00    +0.277 C 
ENDBRANCH  12  14
BRANCH  11  16
ATOM     16  O   UNL     1       5.969  -4.843  -3.649  0.00  0.00    -0.488 OA
ATOM     17  C   UNL     1       5.720  -4.179  -4.890  0.00  0.00    +0.277 C 
ENDBRANCH  11  16
BRANCH  10  18
ATOM     18  O   UNL     1       3.660  -4.388  -2.220  0.00  0.00    -0.491 OA
ATOM     19  C   UNL     1       2.502  -4.110  -1.430  0.00  0.00    +0.277 C 
ENDBRANCH  10  18
ENDBRANCH   4   8
BRANCH   1  21
ATOM     20  N   UNL     1       0.740  -0.322   1.236  0.00  0.00    -0.309 N 
ATOM     21  C   UNL     1       2.046  -0.645   1.161  0.00  0.00    +0.239 C 
ATOM     22  O   UNL     1       2.631  -0.572   0.095  0.00  0.00    -0.271 OA
ATOM     23  H   UNL     1       0.274  -0.380   2.084  0.00  0.00    +0.149 HD
BRANCH  20  25
ATOM     24  C   UNL     1       0.233   1.620  -0.162  0.00  0.00    +0.028 C 
ATOM     25  C   UNL     1       0.024   0.117   0.035  0.00  0.00    +0.074 C 
BRANCH  25  26
ATOM     26  C   UNL     1      -1.470  -0.173   0.198  0.00  0.00    +0.055 C 
BRANCH  26  27
ATOM     27  C   UNL     1      -1.687  -1.663   0.270  0.00  0.00    -0.040 C 
ATOM     28  C   UNL     1      -1.793  -2.416   1.388  0.00  0.00    -0.001 A 
ATOM     29  C   UNL     1      -1.738  -2.087   2.818  0.00  0.00    +0.010 A 
ATOM     30  C   UNL     1      -1.879  -3.080   3.725  0.00  0.00    +0.001 A 
ATOM     31  C   UNL     1      -2.076  -4.412   3.336  0.00  0.00    +0.002 A 
ATOM     32  C   UNL     1      -2.138  -4.792   2.042  0.00  0.00    +0.026 A 
ATOM     33  C   UNL     1      -2.002  -3.830   1.003  0.00  0.00    +0.043 A 
ATOM     34  N   UNL     1      -2.024  -3.946  -0.302  0.00  0.00    -0.380 N 
ATOM     35  C   UNL     1      -1.838  -2.617  -0.894  0.00  0.00    +0.144 C 
ATOM     36  H   UNL     1      -2.147  -4.773  -0.795  0.00  0.00    +0.160 HD
ENDBRANCH  26  27
ENDBRANCH  25  26
ENDBRANCH  20  25
ENDBRANCH   1  21
TORSDOF 8
