REMARK  Name = ZINC08815955
REMARK  9 active torsions:
REMARK  status: ('A' for Active; 'I' for Inactive)
REMARK    1  A    between atoms: C_1  and  C_2
REMARK    2  A    between atoms: C_5  and  C_30
REMARK    3  A    between atoms: C_6  and  C_8
REMARK    4  A    between atoms: C_10  and  C_26
REMARK    5  A    between atoms: C_11  and  C_16
REMARK    6  A    between atoms: C_16  and  S_17
REMARK    7  A    between atoms: S_17  and  C_18
REMARK    8  A    between atoms: C_26  and  O_28
REMARK    9  A    between atoms: O_28  and  C_29
REMARK                            x       y       z     vdW  Elec       q    Type
REMARK                         _______ _______ _______ _____ _____    ______ ____
ROOT
ATOM      1  C   UNL     1      -1.399  -0.771   0.104  0.00  0.00    +0.144 C 
ATOM      2  C   UNL     1      -1.957  -0.594   1.502  0.00  0.00    +0.079 C 
ATOM      3  C   UNL     1      -2.072  -1.693   2.278  0.00  0.00    +0.034 C 
ATOM      4  N   UNL     1      -1.697  -2.922   1.817  0.00  0.00    -0.272 N 
ATOM      5  C   UNL     1      -1.199  -3.137   0.593  0.00  0.00    +0.304 C 
ATOM      6  O   UNL     1      -0.893  -4.269   0.272  0.00  0.00    -0.252 OA
ATOM      7  N   UNL     1      -1.025  -2.138  -0.296  0.00  0.00    -0.288 N 
ATOM      8  H   UNL     1      -1.797  -3.683   2.410  0.00  0.00    +0.156 HD
ATOM      9  H   UNL     1      -0.663  -2.316  -1.178  0.00  0.00    +0.151 HD
ENDROOT
BRANCH   1  15
ATOM     10  C   UNL     1       2.464   1.609   2.215  0.00  0.00    +0.044 C 
ATOM     11  C   UNL     1       1.672   1.239   0.987  0.00  0.00    -0.050 A 
ATOM     12  C   UNL     1       2.066   1.700  -0.255  0.00  0.00    +0.003 A 
ATOM     13  C   UNL     1       1.338   1.363  -1.380  0.00  0.00    +0.004 A 
ATOM     14  C   UNL     1       0.216   0.563  -1.264  0.00  0.00    -0.045 A 
ATOM     15  C   UNL     1      -0.177   0.101  -0.022  0.00  0.00    -0.019 A 
ATOM     16  C   UNL     1       0.550   0.439   1.103  0.00  0.00    +0.009 A 
ATOM     17  C   UNL     1      -0.573   0.189  -2.492  0.00  0.00    +0.044 C 
ENDBRANCH   1  15
BRANCH   2  18
ATOM     18  C   UNL     1      -2.344   0.680   1.979  0.00  0.00    +0.339 C 
ATOM     19  O   UNL     1      -3.378   1.188   1.587  0.00  0.00    -0.245 OA
BRANCH  18  20
ATOM     20  O   UNL     1      -1.566   1.333   2.868  0.00  0.00    -0.465 OA
ATOM     21  C   UNL     1      -2.071   2.563   3.391  0.00  0.00    +0.280 C 
ENDBRANCH  18  20
ENDBRANCH   2  18
BRANCH   3  22
ATOM     22  C   UNL     1      -2.622  -1.560   3.674  0.00  0.00    +0.125 C 
BRANCH  22  23
ATOM     23  S   UNL     1      -4.326  -2.180   3.714  0.00  0.00    -0.118 S 
BRANCH  23  24
ATOM     24  C   UNL     1      -4.821  -1.960   5.391  0.00  0.00    +0.028 A 
ATOM     25  C   UNL     1      -3.937  -1.412   6.311  0.00  0.00    +0.036 A 
ATOM     26  C   UNL     1      -4.328  -1.241   7.626  0.00  0.00    +0.042 A 
ATOM     27  C   UNL     1      -5.599  -1.615   8.025  0.00  0.00    +0.021 A 
ATOM     28  C   UNL     1      -6.482  -2.161   7.112  0.00  0.00    +0.022 A 
ATOM     29  C   UNL     1      -6.099  -2.329   5.794  0.00  0.00    +0.054 A 
ATOM     30 CL   UNL     1      -7.211  -3.008   4.647  0.00  0.00    -0.082 Cl
ATOM     31 CL   UNL     1      -3.224  -0.556   8.777  0.00  0.00    -0.084 Cl
ENDBRANCH  23  24
ENDBRANCH  22  23
ENDBRANCH   3  22
TORSDOF 6
