REMARK  Name = ZINC09666455
REMARK  9 active torsions:
REMARK  status: ('A' for Active; 'I' for Inactive)
REMARK    1  A    between atoms: C_1  and  C_2
REMARK    2  A    between atoms: C_2  and  N_58
REMARK    3  A    between atoms: C_3  and  C_4
REMARK    4  A    between atoms: C_3  and  N_58
REMARK    5  A    between atoms: C_10  and  C_15
REMARK    6  A    between atoms: C_18  and  C_20
REMARK    7  A    between atoms: C_21  and  C_22
REMARK    8  A    between atoms: C_21  and  N_58
REMARK    9  A    between atoms: N_24  and  C_25
REMARK                            x       y       z     vdW  Elec       q    Type
REMARK                         _______ _______ _______ _____ _____    ______ ____
ROOT
ATOM      1  N   UNL     1       4.621  -4.181  -0.181  0.00  0.00    +0.390 N 
ATOM      2  H   UNL     1       3.784  -4.229   0.412  0.00  0.00    -0.081 HD
ENDROOT
BRANCH   1   4
ATOM      3  C   UNL     1       5.571  -4.824  -2.371  0.00  0.00    -0.017 C 
ATOM      4  C   UNL     1       4.329  -4.827  -1.478  0.00  0.00    -0.081 C 
ENDBRANCH   1   4
BRANCH   1   5
ATOM      5  C   UNL     1       5.730  -4.886   0.496  0.00  0.00    -0.003 C 
BRANCH   5   6
ATOM      6  C   UNL     1       5.215  -6.199   1.027  0.00  0.00    +0.094 A 
ATOM      7  N   UNL     1       6.083  -7.075   1.596  0.00  0.00    -0.312 N 
ATOM      8  H   UNL     1       7.024  -6.843   1.654  0.00  0.00    +0.170 HD
ATOM      9  C   UNL     1       5.664  -8.256   2.087  0.00  0.00    +0.260 A 
ATOM     10  O   UNL     1       6.455  -9.029   2.599  0.00  0.00    -0.267 OA
ATOM     11  C   UNL     1       4.276  -8.592   1.994  0.00  0.00    +0.080 A 
ATOM     12  C   UNL     1       3.587  -9.797   2.441  0.00  0.00    +0.010 A 
ATOM     13  C   UNL     1       2.248  -9.894   2.243  0.00  0.00    +0.057 A 
ATOM     14  S   UNL     1       1.839  -8.357   1.437  0.00  0.00    -0.076 S 
ATOM     15  C   UNL     1       3.456  -7.628   1.385  0.00  0.00    +0.116 A 
ATOM     16  N   UNL     1       3.943  -6.478   0.927  0.00  0.00    -0.229 NA
BRANCH  12  17
ATOM     17  C   UNL     1       4.332 -10.892   3.098  0.00  0.00    +0.021 A 
ATOM     18  C   UNL     1       4.057 -11.538   4.274  0.00  0.00    +0.016 A 
ATOM     19  C   UNL     1       4.904 -12.543   4.691  0.00  0.00    +0.011 A 
ATOM     20  C   UNL     1       5.986 -12.853   3.932  0.00  0.00    -0.013 A 
ATOM     21  S   UNL     1       5.828 -11.710   2.570  0.00  0.00    -0.093 S 
ATOM     22  C   UNL     1       7.047 -13.895   4.176  0.00  0.00    +0.051 C 
ENDBRANCH  12  17
ENDBRANCH   5   6
ENDBRANCH   1   5
BRANCH   1  23
ATOM     23  C   UNL     1       4.979  -2.763  -0.393  0.00  0.00    +0.019 C 
BRANCH  23  24
ATOM     24  C   UNL     1       3.761  -2.021  -0.879  0.00  0.00    +0.201 C 
ATOM     25  O   UNL     1       2.716  -2.615  -1.046  0.00  0.00    -0.278 OA
ATOM     26  N   UNL     1       3.831  -0.698  -1.127  0.00  0.00    -0.287 N 
ATOM     27  H   UNL     1       4.683  -0.238  -1.066  0.00  0.00    +0.155 HD
BRANCH  26  28
ATOM     28  C   UNL     1       2.675   0.012  -1.476  0.00  0.00    +0.037 A 
ATOM     29  C   UNL     1       1.448  -0.353  -0.939  0.00  0.00    +0.027 A 
ATOM     30  C   UNL     1       0.307   0.346  -1.283  0.00  0.00    +0.051 A 
ATOM     31  C   UNL     1       0.384   1.414  -2.164  0.00  0.00    +0.162 A 
ATOM     32  C   UNL     1       1.611   1.784  -2.701  0.00  0.00    +0.164 A 
ATOM     33  C   UNL     1       2.756   1.081  -2.357  0.00  0.00    +0.072 A 
ATOM     34  O   UNL     1       1.708   2.835  -3.561  0.00  0.00    -0.485 OA
ATOM     35  C   UNL     1       0.492   3.279  -4.173  0.00  0.00    +0.270 C 
ATOM     36  C   UNL     1      -0.585   3.382  -3.084  0.00  0.00    +0.270 C 
ATOM     37  O   UNL     1      -0.753   2.086  -2.498  0.00  0.00    -0.485 OA
ENDBRANCH  26  28
ENDBRANCH  23  24
ENDBRANCH   1  23
TORSDOF 7
