REMARK  Name = ZINC38687678
REMARK  6 active torsions:
REMARK  status: ('A' for Active; 'I' for Inactive)
REMARK    1  A    between atoms: C_8  and  C_12
REMARK    2  A    between atoms: C_12  and  O_14
REMARK    3  A    between atoms: O_14  and  C_15
REMARK    4  A    between atoms: C_22  and  N_35
REMARK    5  A    between atoms: C_23  and  C_33
REMARK    6  A    between atoms: C_24  and  C_26
REMARK                            x       y       z     vdW  Elec       q    Type
REMARK                         _______ _______ _______ _____ _____    ______ ____
ROOT
ATOM      1  C   UNL     1       3.804  -6.107   0.467  0.00  0.00    +0.135 A 
ATOM      2  C   UNL     1       2.619  -6.778   0.198  0.00  0.00    +0.047 A 
ATOM      3  C   UNL     1       2.599  -8.159   0.171  0.00  0.00    +0.012 A 
ATOM      4  C   UNL     1       3.756  -8.878   0.411  0.00  0.00    +0.008 A 
ATOM      5  C   UNL     1       4.942  -8.214   0.680  0.00  0.00    +0.138 A 
ATOM      6  C   UNL     1       4.966  -6.825   0.702  0.00  0.00    +0.093 A 
ATOM      7  O   UNL     1       6.086  -8.901   0.918  0.00  0.00    -0.441 OA
ATOM      8  C   UNL     1       6.191 -10.183   0.529  0.00  0.00    +0.199 C 
ATOM      9  C   UNL     1       5.103 -10.940   0.256  0.00  0.00    +0.098 C 
ATOM     10  C   UNL     1       3.712 -10.383   0.378  0.00  0.00    +0.098 C 
ENDROOT
BRANCH  10  11
ATOM     11  C   UNL     1       3.079 -10.892   1.646  0.00  0.00    -0.033 A 
ATOM     12  C   UNL     1       3.648 -10.595   2.871  0.00  0.00    +0.004 A 
ATOM     13  C   UNL     1       3.067 -11.062   4.035  0.00  0.00    +0.002 A 
ATOM     14  C   UNL     1       1.917 -11.827   3.976  0.00  0.00    +0.020 A 
ATOM     15  C   UNL     1       1.347 -12.124   2.751  0.00  0.00    +0.041 A 
ATOM     16  C   UNL     1       1.925 -11.652   1.586  0.00  0.00    +0.024 A 
ATOM     17 CL   UNL     1      -0.097 -13.085   2.676  0.00  0.00    -0.084 Cl
ENDBRANCH  10  11
BRANCH   8  18
ATOM     18  N   UNL     1       7.439 -10.740   0.405  0.00  0.00    -0.328 N 
ATOM     19  H   UNL     1       8.229 -10.210   0.597  0.00  0.00    +0.145 HD
ATOM     20  H   UNL     1       7.532 -11.665   0.125  0.00  0.00    +0.145 HD
ENDBRANCH   8  18
BRANCH   9  21
ATOM     21  C   UNL     1       5.280 -12.300  -0.155  0.00  0.00    +0.101 C 
ATOM     22  N   UNL     1       5.421 -13.379  -0.482  0.00  0.00    -0.191 NA
ENDBRANCH   9  21
BRANCH   1  23
ATOM     23  O   UNL     1       3.826  -4.749   0.493  0.00  0.00    -0.422 OA
BRANCH  23  24
ATOM     24  C   UNL     1       4.341  -4.103  -0.572  0.00  0.00    +0.351 C 
ATOM     25  O   UNL     1       4.849  -4.735  -1.479  0.00  0.00    -0.244 OA
BRANCH  24  33
ATOM     26  C   UNL     1       4.950   1.579  -2.826  0.00  0.00    +0.001 A 
ATOM     27  C   UNL     1       4.535   2.235  -1.676  0.00  0.00    +0.004 A 
ATOM     28  C   UNL     1       4.242   1.526  -0.529  0.00  0.00    +0.047 A 
ATOM     29  C   UNL     1       4.358   0.142  -0.525  0.00  0.00    +0.139 A 
ATOM     30  C   UNL     1       4.752  -0.524  -1.700  0.00  0.00    +0.018 A 
ATOM     31  C   UNL     1       5.066   0.219  -2.848  0.00  0.00    +0.011 A 
ATOM     32  C   UNL     1       4.811  -1.942  -1.723  0.00  0.00    +0.033 A 
ATOM     33  C   UNL     1       4.289  -2.635  -0.638  0.00  0.00    +0.144 A 
ATOM     34  C   UNL     1       3.680  -1.840   0.444  0.00  0.00    +0.351 A 
ATOM     35  O   UNL     1       2.828  -2.315   1.171  0.00  0.00    -0.244 OA
ATOM     36  O   UNL     1       4.101  -0.564   0.603  0.00  0.00    -0.422 OA
ENDBRANCH  24  33
ENDBRANCH  23  24
ENDBRANCH   1  23
TORSDOF 6
