REMARK  Name = ZINC39639164
REMARK  10 active torsions:
REMARK  status: ('A' for Active; 'I' for Inactive)
REMARK    1  A    between atoms: C_1  and  O_2
REMARK    2  A    between atoms: O_2  and  C_3
REMARK    3  A    between atoms: C_5  and  O_35
REMARK    4  A    between atoms: C_6  and  C_11
REMARK    5  A    between atoms: C_7  and  O_9
REMARK    6  A    between atoms: O_9  and  C_10
REMARK    7  A    between atoms: C_11  and  N_12
REMARK    8  A    between atoms: C_13  and  C_15
REMARK    9  A    between atoms: C_26  and  C_28
REMARK   10  A    between atoms: O_35  and  C_36
REMARK                            x       y       z     vdW  Elec       q    Type
REMARK                         _______ _______ _______ _____ _____    ______ ____
ROOT
ATOM      1  C   UNL     1       5.790  -3.710  -4.829  0.00  0.00    +0.100 C 
ATOM      2  C   UNL     1       6.562  -4.476  -3.731  0.00  0.00    +0.121 C 
ATOM      3  N   UNL     1       6.792  -5.822  -4.307  0.00  0.00    -0.300 N 
ATOM      4  C   UNL     1       7.108  -5.565  -5.732  0.00  0.00    +0.115 C 
ATOM      5  C   UNL     1       6.154  -4.425  -6.140  0.00  0.00    -0.004 C 
ATOM      6  C   UNL     1       6.859  -3.461  -7.090  0.00  0.00    -0.010 C 
ATOM      7  C   UNL     1       7.159  -4.178  -8.409  0.00  0.00    -0.082 C 
ATOM      8  N   UNL     1       5.905  -4.654  -9.005  0.00  0.00    +0.379 N 
ATOM      9  C   UNL     1       5.280  -5.651  -8.127  0.00  0.00    -0.082 C 
ATOM     10  C   UNL     1       4.901  -4.996  -6.796  0.00  0.00    -0.010 C 
ATOM     11  C   UNL     1       6.729  -7.012  -3.676  0.00  0.00    +0.219 C 
ATOM     12  O   UNL     1       6.379  -7.066  -2.517  0.00  0.00    -0.275 OA
ATOM     13  H   UNL     1       5.276  -3.875  -9.129  0.00  0.00    -0.086 HD
ATOM     14  H   UNL     1       6.098  -5.072  -9.903  0.00  0.00    -0.086 HD
ENDROOT
BRANCH  11  15
ATOM     15  C   UNL     1       7.094  -8.275  -4.413  0.00  0.00    +0.079 C 
ATOM     16  C   UNL     1       6.415  -9.477  -3.744  0.00  0.00    +0.017 C 
ATOM     17  C   UNL     1       6.656 -10.714  -4.611  0.00  0.00    +0.027 C 
ATOM     18  C   UNL     1       8.112 -10.828  -4.956  0.00  0.00    -0.031 C 
ATOM     19  C   UNL     1       8.961  -9.856  -4.850  0.00  0.00    -0.030 C 
ATOM     20  C   UNL     1       8.610  -8.480  -4.362  0.00  0.00    +0.039 C 
ENDBRANCH  11  15
BRANCH   1  22
ATOM     21  N   UNL     1       3.499  -2.788  -4.981  0.00  0.00    -0.311 N 
ATOM     22  C   UNL     1       4.306  -3.792  -4.581  0.00  0.00    +0.218 C 
ATOM     23  O   UNL     1       3.837  -4.760  -4.021  0.00  0.00    -0.275 OA
ATOM     24  H   UNL     1       3.863  -2.048  -5.491  0.00  0.00    +0.149 HD
BRANCH  21  25
ATOM     25  C   UNL     1       2.074  -2.816  -4.645  0.00  0.00    +0.147 C 
BRANCH  25  29
ATOM     26  C   UNL     1       0.230   0.824  -5.936  0.00  0.00    +0.127 A 
ATOM     27  C   UNL     1       0.363  -0.236  -6.819  0.00  0.00    +0.091 A 
ATOM     28  C   UNL     1       0.961  -1.416  -6.401  0.00  0.00    +0.132 A 
ATOM     29  C   UNL     1       1.425  -1.534  -5.100  0.00  0.00    +0.053 A 
ATOM     30  C   UNL     1       1.292  -0.473  -4.217  0.00  0.00    +0.132 A 
ATOM     31  C   UNL     1       0.699   0.708  -4.637  0.00  0.00    +0.091 A 
BRANCH  26  33
ATOM     32  C   UNL     1      -0.815   2.030  -7.699  0.00  0.00    +0.277 C 
ATOM     33  O   UNL     1      -0.355   1.980  -6.346  0.00  0.00    -0.495 OA
ENDBRANCH  26  33
BRANCH  30  34
ATOM     34  O   UNL     1       1.747  -0.589  -2.942  0.00  0.00    -0.495 OA
ATOM     35  C   UNL     1       1.512   0.515  -2.066  0.00  0.00    +0.277 C 
ENDBRANCH  30  34
BRANCH  28  36
ATOM     36  O   UNL     1       1.091  -2.456  -7.266  0.00  0.00    -0.495 OA
ATOM     37  C   UNL     1       0.591  -2.264  -8.591  0.00  0.00    +0.277 C 
ENDBRANCH  28  36
ENDBRANCH  25  29
ENDBRANCH  21  25
ENDBRANCH   1  22
TORSDOF 7
