REMARK  Name = ZINC36700526
REMARK  13 active torsions:
REMARK  status: ('A' for Active; 'I' for Inactive)
REMARK    1  A    between atoms: C_1  and  C_2
REMARK    2  A    between atoms: C_2  and  C_3
REMARK    3  A    between atoms: C_2  and  C_4
REMARK    4  A    between atoms: C_4  and  C_6
REMARK    5  A    between atoms: C_4  and  N_22
REMARK    6  A    between atoms: N_8  and  C_9
REMARK    7  A    between atoms: C_9  and  C_10
REMARK    8  A    between atoms: C_10  and  C_12
REMARK    9  A    between atoms: C_10  and  N_19
REMARK   10  A    between atoms: N_19  and  C_20
REMARK   11  A    between atoms: N_19  and  C_21
REMARK   12  A    between atoms: N_22  and  S_23
REMARK   13  A    between atoms: S_23  and  C_26
REMARK                            x       y       z     vdW  Elec       q    Type
REMARK                         _______ _______ _______ _____ _____    ______ ____
ROOT
ATOM      1  C   UNL     1      -1.461  -1.074  -1.901  0.00  0.00    +0.232 C 
ATOM      2  O   UNL     1      -1.690  -1.630  -2.954  0.00  0.00    -0.274 OA
ATOM      3  N   UNL     1      -1.791   0.222  -1.737  0.00  0.00    -0.315 N 
ATOM      4  H   UNL     1      -1.546   0.686  -0.920  0.00  0.00    +0.149 HD
ENDROOT
BRANCH   1   5
ATOM      5  C   UNL     1      -0.809  -1.834  -0.774  0.00  0.00    +0.165 C 
BRANCH   5   7
ATOM      6  C   UNL     1       1.303  -2.139   0.525  0.00  0.00    +0.009 C 
ATOM      7  C   UNL     1       0.653  -1.402  -0.647  0.00  0.00    +0.010 C 
ATOM      8  C   UNL     1       1.399  -1.741  -1.940  0.00  0.00    +0.009 C 
ENDBRANCH   5   7
BRANCH   5   9
ATOM      9  N   UNL     1      -0.871  -3.271  -1.054  0.00  0.00    -0.178 NA
ATOM     10  H   UNL     1      -0.213  -3.680  -1.637  0.00  0.00    +0.149 HD
BRANCH   9  11
ATOM     11  S   UNL     1      -2.066  -4.195  -0.374  0.00  0.00    +0.062 S 
ATOM     12  O   UNL     1      -1.844  -5.529  -0.810  0.00  0.00    -0.153 OA
ATOM     13  O   UNL     1      -2.119  -3.842   1.001  0.00  0.00    -0.153 OA
BRANCH  11  14
ATOM     14  C   UNL     1      -3.592  -3.680  -1.086  0.00  0.00    +0.140 A 
ATOM     15  C   UNL     1      -4.277  -4.524  -1.940  0.00  0.00    +0.031 A 
ATOM     16  C   UNL     1      -5.475  -4.120  -2.499  0.00  0.00    +0.002 A 
ATOM     17  C   UNL     1      -5.990  -2.871  -2.204  0.00  0.00    +0.003 A 
ATOM     18  C   UNL     1      -5.308  -2.025  -1.351  0.00  0.00    +0.040 A 
ATOM     19  C   UNL     1      -4.110  -2.431  -0.786  0.00  0.00    +0.150 A 
ATOM     20  F   UNL     1      -3.444  -1.607   0.053  0.00  0.00    -0.203 F 
ENDBRANCH  11  14
ENDBRANCH   9  11
ENDBRANCH   5   9
ENDBRANCH   1   5
BRANCH   3  21
ATOM     21  C   UNL     1      -2.519   0.932  -2.792  0.00  0.00    +0.093 C 
BRANCH  21  22
ATOM     22  C   UNL     1      -2.653   2.408  -2.414  0.00  0.00    -0.020 C 
BRANCH  22  23
ATOM     23  C   UNL     1      -3.532   2.537  -1.196  0.00  0.00    -0.041 A 
ATOM     24  C   UNL     1      -2.962   2.718   0.050  0.00  0.00    +0.003 A 
ATOM     25  C   UNL     1      -3.768   2.836   1.167  0.00  0.00    +0.000 A 
ATOM     26  C   UNL     1      -5.143   2.774   1.039  0.00  0.00    +0.001 A 
ATOM     27  C   UNL     1      -5.713   2.594  -0.207  0.00  0.00    +0.020 A 
ATOM     28  C   UNL     1      -4.908   2.481  -1.327  0.00  0.00    +0.043 A 
ATOM     29 CL   UNL     1      -5.623   2.261  -2.893  0.00  0.00    -0.083 Cl
ENDBRANCH  22  23
BRANCH  22  30
ATOM     30  N   UNL     1      -1.325   2.962  -2.121  0.00  0.00    +0.382 N 
ATOM     31  C   UNL     1      -0.432   2.725  -3.263  0.00  0.00    -0.096 C 
ATOM     32  C   UNL     1      -1.438   4.406  -1.879  0.00  0.00    -0.096 C 
ATOM     33  H   UNL     1      -0.947   2.512  -1.300  0.00  0.00    -0.082 HD
ENDBRANCH  22  30
ENDBRANCH  21  22
ENDBRANCH   3  21
TORSDOF 9
