REMARK  Name = ZINC12191634
REMARK  11 active torsions:
REMARK  status: ('A' for Active; 'I' for Inactive)
REMARK    1  A    between atoms: C_1  and  C_2
REMARK    2  A    between atoms: C_2  and  C_4
REMARK    3  A    between atoms: C_2  and  N_66
REMARK    4  A    between atoms: C_4  and  C_5
REMARK    5  A    between atoms: C_8  and  O_13
REMARK    6  A    between atoms: C_9  and  O_11
REMARK    7  A    between atoms: O_11  and  C_12
REMARK    8  A    between atoms: C_16  and  C_19
REMARK    9  A    between atoms: C_19  and  C_34
REMARK   10  A    between atoms: N_22  and  C_26
REMARK   11  A    between atoms: C_26  and  C_27
REMARK                            x       y       z     vdW  Elec       q    Type
REMARK                         _______ _______ _______ _____ _____    ______ ____
ROOT
ATOM      1  C   UNL     1       1.344   2.014   0.000  0.00  0.00    -0.078 C 
ATOM      2  C   UNL     1       2.086   1.565   1.261  0.00  0.00    -0.013 C 
ATOM      3  C   UNL     1       2.133   0.035   1.302  0.00  0.00    +0.018 C 
ATOM      4  C   UNL     1       0.704  -0.513   1.263  0.00  0.00    -0.013 C 
ATOM      5  C   UNL     1       0.002  -0.004   0.002  0.00  0.00    -0.078 C 
ATOM      6  N   UNL     1      -0.032   1.474   0.035  0.00  0.00    +0.382 N 
ATOM      7  H   UNL     1      -0.487   1.777   0.904  0.00  0.00    -0.081 HD
ENDROOT
BRANCH   3   8
ATOM      8  C   UNL     1       2.821  -0.422   2.591  0.00  0.00    +0.112 C 
ATOM      9  C   UNL     1       4.221   0.151   2.679  0.00  0.00    +0.247 C 
ATOM     10  O   UNL     1       5.141  -0.041   1.913  0.00  0.00    -0.273 OA
ATOM     11  N   UNL     1       4.227   0.920   3.791  0.00  0.00    -0.220 N 
ATOM     12  C   UNL     1       3.039   0.908   4.406  0.00  0.00    +0.310 C 
ATOM     13  O   UNL     1       2.802   1.523   5.427  0.00  0.00    -0.252 OA
ATOM     14  N   UNL     1       2.138   0.139   3.769  0.00  0.00    -0.285 N 
ATOM     15  C   UNL     1       2.858  -1.949   2.666  0.00  0.00    +0.042 C 
ATOM     16  H   UNL     1       1.218  -0.016   4.035  0.00  0.00    +0.151 HD
BRANCH  11  17
ATOM     17  C   UNL     1       5.392   1.672   4.264  0.00  0.00    +0.153 C 
BRANCH  17  18
ATOM     18  C   UNL     1       6.202   0.809   5.197  0.00  0.00    -0.029 A 
ATOM     19  C   UNL     1       5.938   0.823   6.554  0.00  0.00    +0.008 A 
ATOM     20  C   UNL     1       6.677   0.028   7.409  0.00  0.00    +0.038 A 
ATOM     21  C   UNL     1       7.689  -0.774   6.909  0.00  0.00    +0.123 A 
ATOM     22  C   UNL     1       7.955  -0.782   5.550  0.00  0.00    +0.038 A 
ATOM     23  C   UNL     1       7.212   0.009   4.695  0.00  0.00    +0.008 A 
ATOM     24  F   UNL     1       8.415  -1.547   7.745  0.00  0.00    -0.205 F 
ENDBRANCH  17  18
ENDBRANCH  11  17
ENDBRANCH   3   8
BRANCH   6  26
ATOM     25  C   UNL     1      -0.119   1.616  -2.432  0.00  0.00    -0.013 C 
ATOM     26  C   UNL     1      -0.804   1.986  -1.115  0.00  0.00    -0.067 C 
BRANCH  26  27
ATOM     27  C   UNL     1      -0.906   3.509  -1.004  0.00  0.00    +0.020 C 
BRANCH  27  28
ATOM     28  C   UNL     1      -1.690   3.870   0.232  0.00  0.00    -0.045 A 
ATOM     29  C   UNL     1      -1.034   4.057   1.435  0.00  0.00    +0.007 A 
ATOM     30  C   UNL     1      -1.748   4.390   2.571  0.00  0.00    +0.049 A 
ATOM     31  C   UNL     1      -3.124   4.536   2.506  0.00  0.00    +0.158 A 
ATOM     32  C   UNL     1      -3.784   4.348   1.296  0.00  0.00    +0.162 A 
ATOM     33  C   UNL     1      -3.062   4.020   0.160  0.00  0.00    +0.053 A 
BRANCH  32  34
ATOM     34  O   UNL     1      -5.135   4.491   1.227  0.00  0.00    -0.491 OA
ATOM     35  C   UNL     1      -5.745   4.282  -0.048  0.00  0.00    +0.277 C 
ENDBRANCH  32  34
BRANCH  31  36
ATOM     36  O   UNL     1      -3.828   4.864   3.623  0.00  0.00    -0.503 OA
ATOM     37  H   UNL     1      -3.931   5.816   3.757  0.00  0.00    +0.292 HD
ENDBRANCH  31  36
ENDBRANCH  27  28
ENDBRANCH  26  27
ENDBRANCH   6  26
TORSDOF 8
