REMARK  Name = ZINC21808241
REMARK  5 active torsions:
REMARK  status: ('A' for Active; 'I' for Inactive)
REMARK    1  A    between atoms: C_1  and  C_2
REMARK    2  A    between atoms: C_2  and  C_25
REMARK    3  A    between atoms: N_14  and  C_15
REMARK    4  A    between atoms: C_15  and  C_16
REMARK    5  A    between atoms: N_27  and  C_28
REMARK                            x       y       z     vdW  Elec       q    Type
REMARK                         _______ _______ _______ _____ _____    ______ ____
ROOT
ATOM      1  C   UNL     1      -2.157   1.928  -1.207  0.00  0.00    +0.043 C 
ATOM      2  C   UNL     1      -1.466   1.921   0.157  0.00  0.00    +0.129 C 
ATOM      3  C   UNL     1      -1.121   3.360   0.544  0.00  0.00    +0.157 C 
ATOM      4  N   UNL     1      -0.735   3.398   1.954  0.00  0.00    -0.333 N 
ATOM      5  C   UNL     1       0.127   4.268   2.597  0.00  0.00    +0.057 A 
ATOM      6  C   UNL     1       0.954   5.357   2.288  0.00  0.00    +0.034 A 
ATOM      7  C   UNL     1       1.667   5.965   3.259  0.00  0.00    +0.048 A 
ATOM      8  S   UNL     1       1.223   5.031   4.713  0.00  0.00    -0.095 S 
ATOM      9  C   UNL     1       0.111   3.881   3.946  0.00  0.00    +0.038 A 
ATOM     10  C   UNL     1      -0.740   2.795   4.108  0.00  0.00    +0.048 A 
ATOM     11  C   UNL     1      -1.246   2.493   2.879  0.00  0.00    +0.106 A 
ATOM     12  C   UNL     1      -2.186   1.446   2.462  0.00  0.00    +0.264 C 
ATOM     13  O   UNL     1      -2.791   0.766   3.270  0.00  0.00    -0.268 OA
ATOM     14  N   UNL     1      -2.343   1.277   1.127  0.00  0.00    -0.276 N 
ENDROOT
BRANCH   2  15
ATOM     15  C   UNL     1      -0.190   1.126   0.052  0.00  0.00    +0.238 C 
ATOM     16  O   UNL     1       0.860   1.690  -0.173  0.00  0.00    -0.273 OA
ATOM     17  N   UNL     1      -0.216  -0.213   0.202  0.00  0.00    -0.311 N 
ATOM     18  H   UNL     1      -1.151  -0.717   0.488  0.00  0.00    +0.149 HD
BRANCH  17  19
ATOM     19  C   UNL     1       1.002  -0.999  -0.015  0.00  0.00    +0.073 C 
ATOM     20  C   UNL     1       1.145  -1.316  -1.505  0.00  0.00    +0.022 C 
ATOM     21  C   UNL     1       2.417  -2.136  -1.732  0.00  0.00    +0.002 C 
ATOM     22  C   UNL     1       2.329  -3.442  -0.939  0.00  0.00    +0.000 C 
ATOM     23  C   UNL     1       2.186  -3.124   0.551  0.00  0.00    +0.002 C 
ATOM     24  C   UNL     1       0.915  -2.304   0.778  0.00  0.00    +0.022 C 
ENDBRANCH  17  19
ENDBRANCH   2  15
BRANCH  14  25
ATOM     25  C   UNL     1      -3.429   0.420   0.643  0.00  0.00    +0.144 C 
BRANCH  25  26
ATOM     26  C   UNL     1      -4.706   1.217   0.577  0.00  0.00    -0.026 A 
ATOM     27  C   UNL     1      -5.107   1.780  -0.620  0.00  0.00    +0.009 A 
ATOM     28  C   UNL     1      -6.278   2.511  -0.686  0.00  0.00    +0.050 A 
ATOM     29  C   UNL     1      -7.053   2.682   0.449  0.00  0.00    +0.166 A 
ATOM     30  C   UNL     1      -6.649   2.116   1.656  0.00  0.00    +0.167 A 
ATOM     31  C   UNL     1      -5.478   1.378   1.713  0.00  0.00    +0.054 A 
ATOM     32  O   UNL     1      -7.572   2.423   2.613  0.00  0.00    -0.453 OA
ATOM     33  C   UNL     1      -8.749   2.837   1.894  0.00  0.00    +0.466 C 
ATOM     34  O   UNL     1      -8.229   3.345   0.651  0.00  0.00    -0.453 OA
ENDBRANCH  25  26
ENDBRANCH  14  25
TORSDOF 4
