REMARK  Name = ZINC10803433
REMARK  6 active torsions:
REMARK  status: ('A' for Active; 'I' for Inactive)
REMARK    1  A    between atoms: C_1  and  C_2
REMARK    2  A    between atoms: C_5  and  C_8
REMARK    3  A    between atoms: C_8  and  C_9
REMARK    4  A    between atoms: N_11  and  N_12
REMARK    5  A    between atoms: C_15  and  C_19
REMARK    6  A    between atoms: C_15  and  C_20
REMARK                            x       y       z     vdW  Elec       q    Type
REMARK                         _______ _______ _______ _____ _____    ______ ____
ROOT
ATOM      1  N   UNL     1      -0.868   6.587  -1.715  0.00  0.00    -0.137 N 
ATOM      2  C   UNL     1      -1.313   5.867  -0.665  0.00  0.00    +0.267 C 
ATOM      3  O   UNL     1      -2.466   5.675  -0.345  0.00  0.00    -0.271 OA
ATOM      4  C   UNL     1      -0.070   5.347   0.030  0.00  0.00    +0.137 C 
ATOM      5  N   UNL     1       1.033   5.885  -0.784  0.00  0.00    -0.280 N 
ATOM      6  C   UNL     1       0.468   6.594  -1.778  0.00  0.00    +0.327 C 
ATOM      7  O   UNL     1       1.101   7.176  -2.637  0.00  0.00    -0.251 OA
ATOM      8  C   UNL     1       0.006   5.877   1.463  0.00  0.00    +0.047 C 
ATOM      9  H   UNL     1       1.982   5.753  -0.633  0.00  0.00    +0.152 HD
ENDROOT
BRANCH   4  10
ATOM     10  C   UNL     1      -0.050   3.840   0.022  0.00  0.00    -0.015 A 
ATOM     11  C   UNL     1       1.156   3.165   0.008  0.00  0.00    +0.006 A 
ATOM     12  C   UNL     1       1.175   1.783   0.000  0.00  0.00    +0.000 A 
ATOM     13  C   UNL     1      -0.013   1.076   0.008  0.00  0.00    +0.000 A 
ATOM     14  C   UNL     1      -1.219   1.751   0.017  0.00  0.00    +0.000 A 
ATOM     15  C   UNL     1      -1.238   3.133   0.029  0.00  0.00    +0.006 A 
ENDBRANCH   4  10
BRANCH   1  18
ATOM     16  C   UNL     1      -1.835   8.587  -2.570  0.00  0.00    +0.234 C 
ATOM     17  O   UNL     1      -1.232   9.222  -1.731  0.00  0.00    -0.274 OA
ATOM     18  N   UNL     1      -1.703   7.247  -2.626  0.00  0.00    -0.223 N 
ATOM     19  H   UNL     1      -2.185   6.740  -3.297  0.00  0.00    +0.174 HD
BRANCH  16  20
ATOM     20  C   UNL     1      -2.733   9.297  -3.550  0.00  0.00    +0.132 C 
BRANCH  20  25
ATOM     21  C   UNL     1      -2.624  14.978  -2.495  0.00  0.00    +0.044 C 
ATOM     22  C   UNL     1      -2.653  13.497  -2.771  0.00  0.00    -0.050 A 
ATOM     23  C   UNL     1      -1.744  12.940  -3.652  0.00  0.00    +0.003 A 
ATOM     24  C   UNL     1      -1.770  11.581  -3.904  0.00  0.00    +0.004 A 
ATOM     25  C   UNL     1      -2.704  10.779  -3.275  0.00  0.00    -0.039 A 
ATOM     26  C   UNL     1      -3.616  11.337  -2.399  0.00  0.00    +0.004 A 
ATOM     27  C   UNL     1      -3.588  12.695  -2.143  0.00  0.00    +0.003 A 
ENDBRANCH  20  25
ENDBRANCH  16  20
ENDBRANCH   1  18
TORSDOF 4
