REMARK  Name = ZINC37494863
REMARK  2 active torsions:
REMARK  status: ('A' for Active; 'I' for Inactive)
REMARK    1  A    between atoms: C_9  and  C_12
REMARK    2  A    between atoms: C_15  and  C_17
REMARK                            x       y       z     vdW  Elec       q    Type
REMARK                         _______ _______ _______ _____ _____    ______ ____
ROOT
ATOM      1  C   UNL     1       0.020   1.349   0.293  0.00  0.00    +0.002 A 
ATOM      2  C   UNL     1       1.110   2.105  -0.096  0.00  0.00    +0.004 A 
ATOM      3  C   UNL     1       2.248   1.489  -0.583  0.00  0.00    +0.047 A 
ATOM      4  C   UNL     1       2.300   0.107  -0.683  0.00  0.00    +0.143 A 
ATOM      5  C   UNL     1       1.200  -0.652  -0.293  0.00  0.00    +0.079 A 
ATOM      6  C   UNL     1       0.063  -0.030   0.196  0.00  0.00    +0.027 A 
ATOM      7  N   UNL     1       1.246  -2.052  -0.401  0.00  0.00    -0.259 N 
ATOM      8  C   UNL     1       2.560  -2.679  -0.627  0.00  0.00    +0.168 C 
ATOM      9  C   UNL     1       3.309  -1.824  -1.660  0.00  0.00    +0.276 C 
ATOM     10  O   UNL     1       3.425  -0.491  -1.159  0.00  0.00    -0.476 OA
ATOM     11  C   UNL     1       0.127  -2.796  -0.300  0.00  0.00    +0.267 C 
ATOM     12  O   UNL     1      -0.948  -2.257  -0.112  0.00  0.00    -0.268 OA
ENDROOT
BRANCH  11  13
ATOM     13  C   UNL     1       0.204  -4.256  -0.417  0.00  0.00    +0.103 A 
ATOM     14  C   UNL     1      -0.822  -5.099  -0.790  0.00  0.00    +0.047 A 
ATOM     15  C   UNL     1      -0.312  -6.401  -0.768  0.00  0.00    +0.036 A 
ATOM     16  C   UNL     1       0.988  -6.333  -0.391  0.00  0.00    +0.098 A 
ATOM     17  N   UNL     1       1.315  -5.033  -0.180  0.00  0.00    -0.356 N 
ATOM     18  H   UNL     1       2.186  -4.707   0.094  0.00  0.00    +0.165 HD
ATOM     19 BR   UNL     1      -1.267  -7.978  -1.190  0.00  0.00    -0.049 Br
ENDBRANCH  11  13
BRANCH   9  20
ATOM     20  C   UNL     1       4.682  -2.401  -1.892  0.00  0.00    +0.253 C 
ATOM     21  O   UNL     1       5.667  -1.767  -1.577  0.00  0.00    -0.272 OA
ATOM     22  N   UNL     1       4.816  -3.621  -2.449  0.00  0.00    -0.326 N 
ATOM     23  H   UNL     1       4.028  -4.128  -2.700  0.00  0.00    +0.145 HD
ATOM     24  H   UNL     1       5.699  -3.992  -2.598  0.00  0.00    +0.145 HD
ENDBRANCH   9  20
TORSDOF 2
