REMARK  Name = ZINC38677593
REMARK  12 active torsions:
REMARK  status: ('A' for Active; 'I' for Inactive)
REMARK    1  A    between atoms: C_1  and  C_2
REMARK    2  A    between atoms: C_2  and  C_3
REMARK    3  A    between atoms: C_3  and  O_4
REMARK    4  A    between atoms: O_4  and  C_5
REMARK    5  A    between atoms: C_10  and  C_11
REMARK    6  A    between atoms: C_11  and  O_13
REMARK    7  A    between atoms: O_13  and  C_14
REMARK    8  A    between atoms: C_21  and  N_35
REMARK    9  A    between atoms: C_22  and  C_33
REMARK   10  A    between atoms: C_23  and  C_25
REMARK   11  A    between atoms: C_28  and  C_31
REMARK   12  A    between atoms: C_31  and  C_32
REMARK                            x       y       z     vdW  Elec       q    Type
REMARK                         _______ _______ _______ _____ _____    ______ ____
ROOT
ATOM      1  C   UNL     1       0.308  -6.733   0.265  0.00  0.00    +0.135 A 
ATOM      2  C   UNL     1      -0.228  -5.984  -0.774  0.00  0.00    +0.047 A 
ATOM      3  C   UNL     1      -0.814  -6.618  -1.851  0.00  0.00    +0.012 A 
ATOM      4  C   UNL     1      -0.870  -7.999  -1.901  0.00  0.00    +0.008 A 
ATOM      5  C   UNL     1      -0.337  -8.752  -0.867  0.00  0.00    +0.138 A 
ATOM      6  C   UNL     1       0.259  -8.117   0.215  0.00  0.00    +0.093 A 
ATOM      7  O   UNL     1      -0.382 -10.107  -0.898  0.00  0.00    -0.441 OA
ATOM      8  C   UNL     1      -0.582 -10.745  -2.064  0.00  0.00    +0.199 C 
ATOM      9  C   UNL     1      -1.116 -10.120  -3.140  0.00  0.00    +0.098 C 
ATOM     10  C   UNL     1      -1.514  -8.672  -3.085  0.00  0.00    +0.098 C 
ENDROOT
BRANCH  10  11
ATOM     11  C   UNL     1      -3.013  -8.570  -2.962  0.00  0.00    -0.035 A 
ATOM     12  C   UNL     1      -3.655  -9.119  -1.868  0.00  0.00    +0.005 A 
ATOM     13  C   UNL     1      -5.029  -9.026  -1.755  0.00  0.00    +0.004 A 
ATOM     14  C   UNL     1      -5.762  -8.385  -2.736  0.00  0.00    -0.048 A 
ATOM     15  C   UNL     1      -5.119  -7.835  -3.830  0.00  0.00    +0.004 A 
ATOM     16  C   UNL     1      -3.744  -7.924  -3.941  0.00  0.00    +0.005 A 
BRANCH  14  17
ATOM     17  C   UNL     1      -7.260  -8.284  -2.614  0.00  0.00    +0.032 C 
ATOM     18  C   UNL     1      -7.626  -7.003  -1.862  0.00  0.00    +0.009 C 
ENDBRANCH  14  17
ENDBRANCH  10  11
BRANCH   8  19
ATOM     19  N   UNL     1      -0.236 -12.069  -2.167  0.00  0.00    -0.328 N 
ATOM     20  H   UNL     1       0.147 -12.530  -1.405  0.00  0.00    +0.145 HD
ATOM     21  H   UNL     1      -0.374 -12.543  -3.002  0.00  0.00    +0.145 HD
ENDBRANCH   8  19
BRANCH   9  22
ATOM     22  C   UNL     1      -1.304 -10.853  -4.355  0.00  0.00    +0.101 C 
ATOM     23  N   UNL     1      -1.454 -11.435  -5.319  0.00  0.00    -0.191 NA
ENDBRANCH   9  22
BRANCH   1  24
ATOM     24  O   UNL     1       0.885  -6.110   1.326  0.00  0.00    -0.422 OA
BRANCH  24  25
ATOM     25  C   UNL     1       2.231  -6.077   1.384  0.00  0.00    +0.348 C 
ATOM     26  O   UNL     1       2.891  -6.669   0.553  0.00  0.00    -0.244 OA
BRANCH  25  32
ATOM     27  C   UNL     1       4.304  -5.283   2.521  0.00  0.00    +0.134 A 
ATOM     28  C   UNL     1       4.926  -4.563   3.530  0.00  0.00    +0.046 A 
ATOM     29  C   UNL     1       4.168  -3.893   4.470  0.00  0.00    +0.004 A 
ATOM     30  C   UNL     1       2.784  -3.933   4.413  0.00  0.00    +0.001 A 
ATOM     31  C   UNL     1       2.150  -4.642   3.418  0.00  0.00    +0.018 A 
ATOM     32  C   UNL     1       2.904  -5.321   2.456  0.00  0.00    +0.101 A 
BRANCH  27  33
ATOM     33  O   UNL     1       5.047  -5.942   1.597  0.00  0.00    -0.491 OA
BRANCH  33  34
ATOM     34  C   UNL     1       6.467  -5.858   1.727  0.00  0.00    +0.229 C 
BRANCH  34  36
ATOM     35  C   UNL     1       8.651  -6.567   0.742  0.00  0.00    +0.007 C 
ATOM     36  C   UNL     1       7.130  -6.657   0.603  0.00  0.00    +0.038 C 
ENDBRANCH  34  36
ENDBRANCH  33  34
ENDBRANCH  27  33
ENDBRANCH  25  32
ENDBRANCH  24  25
ENDBRANCH   1  24
TORSDOF 10
