REMARK  Name = ZINC05324841
REMARK  4 active torsions:
REMARK  status: ('A' for Active; 'I' for Inactive)
REMARK    1  A    between atoms: C_6  and  C_7
REMARK    2  A    between atoms: C_9  and  C_13
REMARK    3  A    between atoms: N_15  and  N_16
REMARK    4  A    between atoms: C_17  and  C_18
REMARK                            x       y       z     vdW  Elec       q    Type
REMARK                         _______ _______ _______ _____ _____    ______ ____
ROOT
ATOM      1  C   UNL     1      -1.272  -0.766   0.011  0.00  0.00    +0.093 A 
ATOM      2  C   UNL     1      -1.403  -2.167   0.010  0.00  0.00    +0.062 A 
ATOM      3  C   UNL     1      -2.764  -2.406   0.020  0.00  0.00    +0.122 A 
ATOM      4  N   UNL     1      -3.372  -1.182   0.026  0.00  0.00    -0.272 N 
ATOM      5  H   UNL     1      -4.331  -1.036   0.033  0.00  0.00    +0.189 HD
ATOM      6  N   UNL     1      -2.484  -0.254   0.026  0.00  0.00    -0.173 NA
ENDROOT
BRANCH   1  12
ATOM      7  C   UNL     1      -0.017   1.389   0.010  0.00  0.00    +0.011 A 
ATOM      8  C   UNL     1       1.170   2.093   0.002  0.00  0.00    +0.022 A 
ATOM      9  C   UNL     1       2.378   1.419  -0.013  0.00  0.00    +0.059 A 
ATOM     10  C   UNL     1       2.403   0.033  -0.021  0.00  0.00    +0.060 A 
ATOM     11  C   UNL     1       1.220  -0.680  -0.014  0.00  0.00    +0.031 A 
ATOM     12  C   UNL     1       0.002  -0.004   0.002  0.00  0.00    +0.004 A 
ATOM     13 CL   UNL     1       3.922  -0.807  -0.041  0.00  0.00    -0.082 Cl
ATOM     14 CL   UNL     1       3.868   2.311  -0.022  0.00  0.00    -0.082 Cl
ENDBRANCH   1  12
BRANCH   3  15
ATOM     15  C   UNL     1      -3.428  -3.719   0.023  0.00  0.00    +0.281 C 
ATOM     16  O   UNL     1      -2.762  -4.737   0.016  0.00  0.00    -0.267 OA
ATOM     17  N   UNL     1      -4.773  -3.794   0.033  0.00  0.00    -0.202 N 
ATOM     18  H   UNL     1      -5.304  -2.982   0.038  0.00  0.00    +0.178 HD
BRANCH  17  19
ATOM     19  N   UNL     1      -5.405  -5.044   0.036  0.00  0.00    -0.187 NA
ATOM     20  C   UNL     1      -6.701  -5.116   0.045  0.00  0.00    +0.139 C 
BRANCH  20  21
ATOM     21  C   UNL     1      -7.366  -6.432   0.048  0.00  0.00    +0.013 A 
ATOM     22  C   UNL     1      -8.761  -6.513   0.052  0.00  0.00    +0.012 A 
ATOM     23  C   UNL     1      -9.377  -7.747   0.055  0.00  0.00    +0.021 A 
ATOM     24  C   UNL     1      -8.617  -8.905   0.053  0.00  0.00    +0.042 A 
ATOM     25  C   UNL     1      -7.234  -8.833   0.049  0.00  0.00    +0.040 A 
ATOM     26  C   UNL     1      -6.604  -7.604   0.041  0.00  0.00    +0.051 A 
ATOM     27 CL   UNL     1      -4.871  -7.515   0.028  0.00  0.00    -0.083 Cl
ATOM     28 CL   UNL     1      -9.401 -10.454   0.057  0.00  0.00    -0.083 Cl
ENDBRANCH  20  21
ENDBRANCH  17  19
ENDBRANCH   3  15
TORSDOF 4
