REMARK  Name = ZINC08230811
REMARK  6 active torsions:
REMARK  status: ('A' for Active; 'I' for Inactive)
REMARK    1  A    between atoms: C_1  and  C_2
REMARK    2  A    between atoms: C_2  and  C_4
REMARK    3  A    between atoms: C_2  and  S_17
REMARK    4  A    between atoms: N_6  and  C_7
REMARK    5  A    between atoms: S_17  and  C_18
REMARK    6  A    between atoms: C_20  and  C_24
REMARK                            x       y       z     vdW  Elec       q    Type
REMARK                         _______ _______ _______ _____ _____    ______ ____
ROOT
ATOM      1  C   UNL     1      -0.019   1.526   0.010  0.00  0.00    +0.029 C 
ATOM      2  C   UNL     1       0.002  -0.004   0.002  0.00  0.00    +0.137 C 
ENDROOT
BRANCH   2   3
ATOM      3  C   UNL     1      -1.412  -0.526   0.013  0.00  0.00    +0.227 C 
ATOM      4  O   UNL     1      -1.939  -0.827   1.062  0.00  0.00    -0.275 OA
ATOM      5  N   UNL     1      -2.090  -0.657  -1.144  0.00  0.00    -0.309 N 
ATOM      6  H   UNL     1      -1.669  -0.416  -1.984  0.00  0.00    +0.149 HD
BRANCH   5   7
ATOM      7  C   UNL     1      -3.465  -1.164  -1.134  0.00  0.00    +0.035 C 
ATOM      8  C   UNL     1      -4.344  -0.237  -0.293  0.00  0.00    +0.029 C 
ATOM      9  C   UNL     1      -5.779  -0.766  -0.282  0.00  0.00    -0.008 C 
ATOM     10  C   UNL     1      -6.315  -0.817  -1.714  0.00  0.00    +0.007 C 
ATOM     11  C   UNL     1      -5.436  -1.745  -2.555  0.00  0.00    -0.008 C 
ATOM     12  C   UNL     1      -4.000  -1.215  -2.566  0.00  0.00    +0.029 C 
ATOM     13  C   UNL     1      -5.456  -3.151  -1.953  0.00  0.00    +0.007 C 
ATOM     14  C   UNL     1      -4.920  -3.100  -0.521  0.00  0.00    -0.008 C 
ATOM     15  C   UNL     1      -5.800  -2.173   0.320  0.00  0.00    +0.007 C 
ATOM     16  C   UNL     1      -3.485  -2.571  -0.532  0.00  0.00    +0.029 C 
ENDBRANCH   5   7
ENDBRANCH   2   3
BRANCH   2  17
ATOM     17  S   UNL     1       0.879  -0.605   1.472  0.00  0.00    -0.074 S 
BRANCH  17  18
ATOM     18  C   UNL     1       2.533  -0.042   1.241  0.00  0.00    +0.185 A 
ATOM     19  N   UNL     1       2.976   0.653   0.216  0.00  0.00    -0.200 NA
ATOM     20  C   UNL     1       4.285   0.906   0.375  0.00  0.00    +0.189 A 
ATOM     21  N   UNL     1       4.687   0.370   1.507  0.00  0.00    -0.151 NA
ATOM     22  H   UNL     1       3.539  -0.723   2.932  0.00  0.00    +0.191 HD
ATOM     23  N   UNL     1       3.566  -0.245   2.089  0.00  0.00    -0.253 N 
BRANCH  20  24
ATOM     24  C   UNL     1       5.136   1.661  -0.569  0.00  0.00    +0.058 A 
ATOM     25  C   UNL     1       6.470   1.955  -0.483  0.00  0.00    +0.019 A 
ATOM     26  C   UNL     1       7.056   2.682  -1.496  0.00  0.00    +0.008 A 
ATOM     27  C   UNL     1       6.295   3.084  -2.546  0.00  0.00    +0.046 A 
ATOM     28  S   UNL     1       4.692   2.422  -2.122  0.00  0.00    -0.093 S 
ENDBRANCH  20  24
ENDBRANCH  17  18
ENDBRANCH   2  17
TORSDOF 5
