REMARK  Name = ZINC39678596
REMARK  8 active torsions:
REMARK  status: ('A' for Active; 'I' for Inactive)
REMARK    1  A    between atoms: C_1  and  C_2
REMARK    2  A    between atoms: C_6  and  C_8
REMARK    3  A    between atoms: C_8  and  C_9
REMARK    4  A    between atoms: C_13  and  C_22
REMARK    5  A    between atoms: N_24  and  C_25
REMARK    6  A    between atoms: C_25  and  C_26
REMARK    7  A    between atoms: C_30  and  O_32
REMARK    8  A    between atoms: O_32  and  C_33
REMARK                            x       y       z     vdW  Elec       q    Type
REMARK                         _______ _______ _______ _____ _____    ______ ____
ROOT
ATOM      1  C   UNL     1       1.640  -3.057   2.948  0.00  0.00    +0.220 C 
ATOM      2  O   UNL     1       2.572  -2.707   2.256  0.00  0.00    -0.275 OA
ATOM      3  N   UNL     1       1.865  -3.756   4.078  0.00  0.00    -0.300 N 
ATOM      4  C   UNL     1       0.864  -4.273   5.041  0.00  0.00    +0.121 C 
ATOM      5  C   UNL     1       1.397  -5.665   5.449  0.00  0.00    +0.100 C 
ATOM      6  C   UNL     1       2.911  -5.598   5.185  0.00  0.00    -0.004 C 
ATOM      7  C   UNL     1       3.169  -4.188   4.636  0.00  0.00    +0.115 C 
ATOM      8  C   UNL     1       3.313  -6.643   4.149  0.00  0.00    -0.010 C 
ATOM      9  C   UNL     1       4.830  -6.596   3.945  0.00  0.00    -0.082 C 
ATOM     10  N   UNL     1       5.505  -6.858   5.222  0.00  0.00    +0.379 N 
ATOM     11  C   UNL     1       5.186  -5.797   6.184  0.00  0.00    -0.082 C 
ATOM     12  C   UNL     1       3.684  -5.811   6.483  0.00  0.00    -0.010 C 
ATOM     13  H   UNL     1       5.196  -7.746   5.588  0.00  0.00    -0.086 HD
ATOM     14  H   UNL     1       6.503  -6.887   5.073  0.00  0.00    -0.086 HD
ENDROOT
BRANCH   5  15
ATOM     15  C   UNL     1       1.128  -5.922   6.910  0.00  0.00    +0.218 C 
ATOM     16  O   UNL     1       1.099  -4.996   7.693  0.00  0.00    -0.275 OA
ATOM     17  N   UNL     1       0.920  -7.180   7.345  0.00  0.00    -0.311 N 
ATOM     18  H   UNL     1       0.943  -7.920   6.719  0.00  0.00    +0.149 HD
BRANCH  17  19
ATOM     19  C   UNL     1       0.658  -7.430   8.765  0.00  0.00    +0.139 C 
BRANCH  19  20
ATOM     20  C   UNL     1       0.461  -8.908   8.987  0.00  0.00    -0.027 A 
ATOM     21  C   UNL     1      -0.804  -9.458   8.889  0.00  0.00    +0.005 A 
ATOM     22  C   UNL     1      -0.988 -10.813   9.092  0.00  0.00    +0.004 A 
ATOM     23  C   UNL     1       0.092 -11.621   9.394  0.00  0.00    +0.046 A 
ATOM     24  C   UNL     1       1.362 -11.071   9.492  0.00  0.00    +0.127 A 
ATOM     25  C   UNL     1       1.545  -9.711   9.282  0.00  0.00    +0.051 A 
BRANCH  24  26
ATOM     26  O   UNL     1       2.425 -11.863   9.789  0.00  0.00    -0.434 OA
BRANCH  26  27
ATOM     27  C   UNL     1       2.163 -13.254   9.987  0.00  0.00    +0.541 C 
ATOM     28  F   UNL     1       1.268 -13.413  11.050  0.00  0.00    -0.166 F 
ATOM     29  F   UNL     1       1.606 -13.793   8.823  0.00  0.00    -0.166 F 
ENDBRANCH  26  27
ENDBRANCH  24  26
ENDBRANCH  19  20
ENDBRANCH  17  19
ENDBRANCH   5  15
BRANCH   1  30
ATOM     30  C   UNL     1       0.230  -2.711   2.544  0.00  0.00    +0.131 C 
BRANCH  30  36
ATOM     31  C   UNL     1       0.450   1.664   0.125  0.00  0.00    +0.044 C 
ATOM     32  C   UNL     1       0.358   0.160   0.097  0.00  0.00    -0.050 A 
ATOM     33  C   UNL     1       0.296  -0.506  -1.113  0.00  0.00    +0.003 A 
ATOM     34  C   UNL     1       0.212  -1.885  -1.139  0.00  0.00    +0.001 A 
ATOM     35  C   UNL     1       0.191  -2.599   0.044  0.00  0.00    +0.004 A 
ATOM     36  C   UNL     1       0.254  -1.933   1.254  0.00  0.00    -0.038 A 
ATOM     37  C   UNL     1       0.342  -0.553   1.280  0.00  0.00    +0.007 A 
ENDBRANCH  30  36
ENDBRANCH   1  30
TORSDOF 7
