REMARK  Name = ZINC11563515
REMARK  8 active torsions:
REMARK  status: ('A' for Active; 'I' for Inactive)
REMARK    1  A    between atoms: C_1  and  N_49
REMARK    2  A    between atoms: C_2  and  N_49
REMARK    3  A    between atoms: C_3  and  C_5
REMARK    4  A    between atoms: C_3  and  C_23
REMARK    5  A    between atoms: C_3  and  N_49
REMARK    6  A    between atoms: C_5  and  N_6
REMARK    7  A    between atoms: C_7  and  C_9
REMARK    8  A    between atoms: C_9  and  C_10
REMARK                            x       y       z     vdW  Elec       q    Type
REMARK                         _______ _______ _______ _____ _____    ______ ____
ROOT
ATOM      1  N   UNL     1      -2.929  -0.777   1.688  0.00  0.00    -0.316 N 
ATOM      2  C   UNL     1      -3.493  -0.427   2.861  0.00  0.00    +0.215 C 
ATOM      3  O   UNL     1      -2.882   0.271   3.643  0.00  0.00    -0.276 OA
ATOM      4  H   UNL     1      -3.417  -1.335   1.063  0.00  0.00    +0.149 HD
ENDROOT
BRANCH   1   5
ATOM      5  C   UNL     1      -1.578  -0.316   1.358  0.00  0.00    +0.093 C 
BRANCH   5   6
ATOM      6  C   UNL     1      -1.220  -0.761  -0.061  0.00  0.00    -0.020 C 
BRANCH   6   7
ATOM      7  C   UNL     1      -1.129  -2.264  -0.109  0.00  0.00    -0.041 A 
ATOM      8  C   UNL     1      -2.186  -3.006  -0.603  0.00  0.00    +0.003 A 
ATOM      9  C   UNL     1      -2.102  -4.385  -0.647  0.00  0.00    +0.000 A 
ATOM     10  C   UNL     1      -0.962  -5.023  -0.197  0.00  0.00    +0.001 A 
ATOM     11  C   UNL     1       0.096  -4.283   0.297  0.00  0.00    +0.020 A 
ATOM     12  C   UNL     1       0.013  -2.903   0.342  0.00  0.00    +0.043 A 
ATOM     13 CL   UNL     1       1.343  -1.972   0.956  0.00  0.00    -0.083 Cl
ENDBRANCH   6   7
BRANCH   6  16
ATOM     14  C   UNL     1      -2.538   1.127  -0.811  0.00  0.00    -0.096 C 
ATOM     15  C   UNL     1      -1.882  -0.593  -2.384  0.00  0.00    -0.096 C 
ATOM     16  N   UNL     1      -2.283  -0.318  -0.989  0.00  0.00    +0.382 N 
ATOM     17  H   UNL     1      -3.144  -0.837  -0.781  0.00  0.00    -0.082 HD
ENDBRANCH   6  16
ENDBRANCH   5   6
ENDBRANCH   1   5
BRANCH   2  18
ATOM     18  C   UNL     1      -4.882  -0.901   3.201  0.00  0.00    +0.119 C 
BRANCH  18  19
ATOM     19  C   UNL     1      -5.281  -0.366   4.578  0.00  0.00    +0.146 C 
ATOM     20  C   UNL     1      -6.705  -0.757   4.880  0.00  0.00    +0.231 C 
ATOM     21  O   UNL     1      -7.580   0.060   4.689  0.00  0.00    -0.274 OA
ATOM     22  N   UNL     1      -7.047  -1.954   5.345  0.00  0.00    -0.284 N 
ATOM     23  C   UNL     1      -6.181  -2.972   5.732  0.00  0.00    +0.048 A 
ATOM     24  C   UNL     1      -6.671  -4.269   5.855  0.00  0.00    +0.044 A 
ATOM     25  C   UNL     1      -5.830  -5.299   6.227  0.00  0.00    +0.043 A 
ATOM     26  C   UNL     1      -4.492  -5.055   6.481  0.00  0.00    +0.021 A 
ATOM     27  C   UNL     1      -3.992  -3.770   6.366  0.00  0.00    +0.018 A 
ATOM     28  C   UNL     1      -4.833  -2.734   5.995  0.00  0.00    +0.030 A 
ATOM     29  S   UNL     1      -4.203  -1.090   5.851  0.00  0.00    -0.110 S 
ATOM     30 CL   UNL     1      -6.455  -6.912   6.376  0.00  0.00    -0.083 Cl
ATOM     31  H   UNL     1      -7.997  -2.135   5.423  0.00  0.00    +0.155 HD
ENDBRANCH  18  19
ENDBRANCH   2  18
TORSDOF 6
