REMARK  Name = ZINC17191390
REMARK  6 active torsions:
REMARK  status: ('A' for Active; 'I' for Inactive)
REMARK    1  A    between atoms: C_4  and  S_7
REMARK    2  A    between atoms: S_7  and  N_10
REMARK    3  A    between atoms: C_11  and  N_26
REMARK    4  A    between atoms: C_13  and  O_15
REMARK    5  A    between atoms: O_15  and  C_16
REMARK    6  A    between atoms: C_16  and  C_18
REMARK                            x       y       z     vdW  Elec       q    Type
REMARK                         _______ _______ _______ _____ _____    ______ ____
ROOT
ATOM      1  N   UNL     1      -2.461   1.081   0.020  0.00  0.00    -0.112 N 
ATOM      2  C   UNL     1      -1.226   1.645   0.017  0.00  0.00    +0.143 A 
ATOM      3  C   UNL     1      -1.392   2.996   0.031  0.00  0.00    +0.114 A 
ATOM      4  C   UNL     1      -2.768   3.259   0.034  0.00  0.00    +0.246 A 
ATOM      5  N   UNL     1      -3.407   2.114   0.030  0.00  0.00    -0.110 NA
ENDROOT
BRANCH   1   6
ATOM      6  S   UNL     1      -2.791  -0.542   0.011  0.00  0.00    +0.101 S 
ATOM      7  O   UNL     1      -4.095  -0.689  -0.534  0.00  0.00    -0.146 OA
ATOM      8  O   UNL     1      -1.654  -1.185  -0.549  0.00  0.00    -0.146 OA
BRANCH   6  12
ATOM      9  C   UNL     1      -3.036  -1.881   4.329  0.00  0.00    +0.000 A 
ATOM     10  C   UNL     1      -4.171  -1.438   3.677  0.00  0.00    +0.002 A 
ATOM     11  C   UNL     1      -4.096  -1.029   2.358  0.00  0.00    +0.029 A 
ATOM     12  C   UNL     1      -2.886  -1.063   1.692  0.00  0.00    +0.113 A 
ATOM     13  C   UNL     1      -1.751  -1.511   2.342  0.00  0.00    +0.029 A 
ATOM     14  C   UNL     1      -1.825  -1.915   3.662  0.00  0.00    +0.002 A 
ENDBRANCH   6  12
ENDBRANCH   1   6
BRANCH   2  15
ATOM     15  N   UNL     1      -0.011   0.966   0.007  0.00  0.00    -0.342 N 
ATOM     16  H   UNL     1       0.002  -0.004   0.002  0.00  0.00    +0.144 HD
ATOM     17  H   UNL     1       0.822   1.462   0.002  0.00  0.00    +0.144 HD
ENDBRANCH   2  15
BRANCH   4  18
ATOM     18  O   UNL     1      -3.344   4.491   0.044  0.00  0.00    -0.402 OA
BRANCH  18  19
ATOM     19  C   UNL     1      -4.690   4.538   0.051  0.00  0.00    +0.347 C 
ATOM     20  O   UNL     1      -5.334   3.507   0.049  0.00  0.00    -0.244 OA
BRANCH  19  21
ATOM     21  C   UNL     1      -5.384   5.840   0.062  0.00  0.00    +0.078 A 
ATOM     22  C   UNL     1      -4.647   7.027   0.065  0.00  0.00    +0.018 A 
ATOM     23  C   UNL     1      -5.300   8.241   0.075  0.00  0.00    +0.021 A 
ATOM     24  C   UNL     1      -6.685   8.286   0.082  0.00  0.00    +0.042 A 
ATOM     25  C   UNL     1      -7.422   7.114   0.080  0.00  0.00    +0.040 A 
ATOM     26  C   UNL     1      -6.781   5.892   0.064  0.00  0.00    +0.056 A 
ATOM     27 CL   UNL     1      -7.706   4.423   0.054  0.00  0.00    -0.083 Cl
ATOM     28 CL   UNL     1      -7.500   9.819   0.094  0.00  0.00    -0.083 Cl
ENDBRANCH  19  21
ENDBRANCH  18  19
ENDBRANCH   4  18
TORSDOF 6
