REMARK  Name = ZINC14986375
REMARK  7 active torsions:
REMARK  status: ('A' for Active; 'I' for Inactive)
REMARK    1  A    between atoms: C_2  and  C_11
REMARK    2  A    between atoms: C_11  and  N_63
REMARK    3  A    between atoms: C_12  and  C_13
REMARK    4  A    between atoms: C_12  and  N_63
REMARK    5  A    between atoms: C_13  and  C_14
REMARK    6  A    between atoms: N_20  and  C_21
REMARK    7  A    between atoms: C_21  and  C_22
REMARK                            x       y       z     vdW  Elec       q    Type
REMARK                         _______ _______ _______ _____ _____    ______ ____
ROOT
ATOM      1  C   UNL     1      -5.383  -0.934  -2.947  0.00  0.00    +0.075 C 
ATOM      2  C   UNL     1      -5.495  -1.620  -4.327  0.00  0.00    +0.031 C 
ATOM      3  C   UNL     1      -7.025  -1.618  -4.556  0.00  0.00    +0.098 C 
ATOM      4  C   UNL     1      -7.525  -0.465  -3.713  0.00  0.00    +0.216 C 
ATOM      5  O   UNL     1      -8.616   0.053  -3.822  0.00  0.00    -0.276 OA
ATOM      6  N   UNL     1      -6.584  -0.100  -2.825  0.00  0.00    -0.298 N 
ENDROOT
BRANCH   1   7
ATOM      7  C   UNL     1      -4.126  -0.064  -2.889  0.00  0.00    +0.003 C 
BRANCH   7   8
ATOM      8  C   UNL     1      -2.886  -0.949  -3.027  0.00  0.00    -0.080 C 
BRANCH   8   9
ATOM      9  N   UNL     1      -1.678  -0.121  -2.848  0.00  0.00    +0.382 N 
ATOM     10  H   UNL     1      -1.703   0.662  -3.511  0.00  0.00    -0.085 HD
ATOM     11  H   UNL     1      -1.657   0.243  -1.889  0.00  0.00    -0.085 HD
BRANCH   9  12
ATOM     12  C   UNL     1      -0.465  -0.925  -3.090  0.00  0.00    -0.045 C 
BRANCH  12  14
ATOM     13  C   UNL     1       1.572  -0.074  -1.911  0.00  0.00    +0.052 A 
ATOM     14  C   UNL     1       0.744  -0.029  -3.018  0.00  0.00    -0.042 A 
ATOM     15  C   UNL     1       1.027   0.833  -4.062  0.00  0.00    +0.046 A 
ATOM     16  C   UNL     1       2.133   1.662  -3.997  0.00  0.00    +0.069 A 
ATOM     17  C   UNL     1       2.963   1.625  -2.889  0.00  0.00    +0.168 A 
ATOM     18  C   UNL     1       2.680   0.752  -1.840  0.00  0.00    +0.167 A 
ATOM     19  O   UNL     1       3.635   0.905  -0.877  0.00  0.00    -0.453 OA
ATOM     20  C   UNL     1       4.271   2.165  -1.161  0.00  0.00    +0.466 C 
ATOM     21  O   UNL     1       4.094   2.324  -2.582  0.00  0.00    -0.453 OA
ATOM     22 CL   UNL     1      -0.012   0.881  -5.452  0.00  0.00    -0.083 Cl
ENDBRANCH  12  14
ENDBRANCH   9  12
ENDBRANCH   8   9
ENDBRANCH   7   8
ENDBRANCH   1   7
BRANCH   6  23
ATOM     23  C   UNL     1      -6.738   0.992  -1.860  0.00  0.00    +0.110 C 
BRANCH  23  24
ATOM     24  C   UNL     1      -7.213   0.425  -0.521  0.00  0.00    -0.007 C 
ATOM     25  C   UNL     1      -8.606  -0.184  -0.692  0.00  0.00    +0.002 C 
ATOM     26  C   UNL     1      -9.577   0.924  -1.115  0.00  0.00    -0.018 C 
ATOM     27  C   UNL     1      -9.577   2.014  -0.044  0.00  0.00    -0.078 C 
ATOM     28  C   UNL     1      -7.263   1.549   0.519  0.00  0.00    -0.064 C 
ATOM     29  C   UNL     1      -5.859   2.158   0.626  0.00  0.00    -0.015 C 
ATOM     30  C   UNL     1      -5.871   3.317   1.624  0.00  0.00    -0.003 C 
ATOM     31  C   UNL     1      -6.894   4.357   1.158  0.00  0.00    -0.019 C 
ATOM     32  C   UNL     1      -8.267   3.691   1.066  0.00  0.00    -0.078 C 
ATOM     33  N   UNL     1      -8.228   2.589   0.086  0.00  0.00    +0.382 N 
ATOM     34  H   UNL     1      -7.931   2.959  -0.825  0.00  0.00    -0.081 HD
ENDBRANCH  23  24
ENDBRANCH   6  23
TORSDOF 7
