REMARK  Name = ZINC63237032
REMARK  10 active torsions:
REMARK  status: ('A' for Active; 'I' for Inactive)
REMARK    1  A    between atoms: C_1  and  C_2
REMARK    2  A    between atoms: C_2  and  C_3
REMARK    3  A    between atoms: C_2  and  C_4
REMARK    4  A    between atoms: C_4  and  C_5
REMARK    5  A    between atoms: C_5  and  N_6
REMARK    6  A    between atoms: C_15  and  C_18
REMARK    7  A    between atoms: N_20  and  C_21
REMARK    8  A    between atoms: C_21  and  C_22
REMARK    9  A    between atoms: C_22  and  C_24
REMARK   10  A    between atoms: C_22  and  C_31
REMARK                            x       y       z     vdW  Elec       q    Type
REMARK                         _______ _______ _______ _____ _____    ______ ____
ROOT
ATOM      1  C   UNL     1       3.592  -0.696   3.525  0.00  0.00    +0.236 C 
ATOM      2  O   UNL     1       3.058  -0.771   2.439  0.00  0.00    -0.274 OA
ATOM      3  N   UNL     1       4.923  -0.880   3.636  0.00  0.00    -0.313 N 
ATOM      4  H   UNL     1       5.349  -0.820   4.505  0.00  0.00    +0.149 HD
ENDROOT
BRANCH   1  14
ATOM      5  N   UNL     1       0.667  -0.609   3.684  0.00  0.00    -0.232 N 
ATOM      6  C   UNL     1       0.469  -1.879   4.096  0.00  0.00    +0.260 C 
ATOM      7  O   UNL     1      -0.415  -2.560   3.615  0.00  0.00    -0.269 OA
ATOM      8  C   UNL     1       1.358  -2.420   5.147  0.00  0.00    +0.043 A 
ATOM      9  C   UNL     1       1.091  -3.625   5.787  0.00  0.00    +0.013 A 
ATOM     10  C   UNL     1       1.949  -4.076   6.771  0.00  0.00    +0.001 A 
ATOM     11  C   UNL     1       3.063  -3.332   7.118  0.00  0.00    +0.000 A 
ATOM     12  C   UNL     1       3.335  -2.134   6.479  0.00  0.00    +0.006 A 
ATOM     13  C   UNL     1       2.491  -1.677   5.492  0.00  0.00    -0.008 A 
ATOM     14  C   UNL     1       2.768  -0.396   4.751  0.00  0.00    +0.189 C 
ATOM     15  N   UNL     1       1.512   0.229   4.341  0.00  0.00    -0.221 NA
ATOM     16  H   UNL     1       1.053   0.660   5.130  0.00  0.00    +0.146 HD
BRANCH   5  17
ATOM     17  C   UNL     1      -0.042  -0.124   2.497  0.00  0.00    +0.127 C 
BRANCH  17  18
ATOM     18  C   UNL     1       0.742  -0.511   1.242  0.00  0.00    +0.023 C 
BRANCH  18  20
ATOM     19  C   UNL     1      -0.019   1.526   0.010  0.00  0.00    +0.007 C 
ATOM     20  C   UNL     1       0.002  -0.004   0.002  0.00  0.00    -0.016 C 
ATOM     21  C   UNL     1       0.718  -0.497  -1.257  0.00  0.00    +0.007 C 
ENDBRANCH  18  20
ENDBRANCH  17  18
ENDBRANCH   5  17
ENDBRANCH   1  14
BRANCH   3  22
ATOM     22  C   UNL     1       5.724  -1.172   2.445  0.00  0.00    +0.116 C 
BRANCH  22  23
ATOM     23  C   UNL     1       7.191  -1.336   2.845  0.00  0.00    +0.066 C 
BRANCH  23  24
ATOM     24  C   UNL     1       8.033  -1.513   1.607  0.00  0.00    -0.033 C 
ATOM     25  C   UNL     1       9.051  -0.724   1.196  0.00  0.00    -0.000 A 
ATOM     26  C   UNL     1       9.657   0.490   1.756  0.00  0.00    +0.010 A 
ATOM     27  C   UNL     1      10.688   1.071   1.102  0.00  0.00    +0.001 A 
ATOM     28  C   UNL     1      11.192   0.543  -0.095  0.00  0.00    +0.002 A 
ATOM     29  C   UNL     1      10.688  -0.568  -0.671  0.00  0.00    +0.026 A 
ATOM     30  C   UNL     1       9.602  -1.261  -0.069  0.00  0.00    +0.043 A 
ATOM     31  N   UNL     1       8.949  -2.340  -0.426  0.00  0.00    -0.380 N 
ATOM     32  C   UNL     1       7.913  -2.614   0.577  0.00  0.00    +0.145 C 
ATOM     33  H   UNL     1       9.124  -2.872  -1.218  0.00  0.00    +0.160 HD
ENDBRANCH  23  24
BRANCH  23  34
ATOM     34  C   UNL     1       7.339  -2.546   3.730  0.00  0.00    -0.020 A 
ATOM     35  C   UNL     1       6.985  -3.796   3.257  0.00  0.00    +0.006 A 
ATOM     36  C   UNL     1       7.120  -4.906   4.069  0.00  0.00    +0.000 A 
ATOM     37  C   UNL     1       7.609  -4.768   5.355  0.00  0.00    +0.001 A 
ATOM     38  C   UNL     1       7.963  -3.519   5.829  0.00  0.00    +0.020 A 
ATOM     39  C   UNL     1       7.833  -2.408   5.015  0.00  0.00    +0.045 A 
ATOM     40 CL   UNL     1       8.284  -0.840   5.608  0.00  0.00    -0.083 Cl
ENDBRANCH  23  34
ENDBRANCH  22  23
ENDBRANCH   3  22
TORSDOF 8
