REMARK  Name = ZINC39695992
REMARK  7 active torsions:
REMARK  status: ('A' for Active; 'I' for Inactive)
REMARK    1  A    between atoms: C_1  and  C_2
REMARK    2  A    between atoms: C_2  and  C_3
REMARK    3  A    between atoms: C_6  and  C_9
REMARK    4  A    between atoms: C_9  and  C_11
REMARK    5  A    between atoms: C_9  and  N_12
REMARK    6  A    between atoms: C_13  and  C_15
REMARK    7  A    between atoms: C_26  and  C_28
REMARK                            x       y       z     vdW  Elec       q    Type
REMARK                         _______ _______ _______ _____ _____    ______ ____
ROOT
ATOM      1  C   UNL     1       1.169  -5.250   7.020  0.00  0.00    +0.100 C 
ATOM      2  C   UNL     1       0.600  -5.926   5.753  0.00  0.00    +0.121 C 
ATOM      3  N   UNL     1       1.502  -7.074   5.504  0.00  0.00    -0.296 N 
ATOM      4  C   UNL     1       1.798  -7.610   6.854  0.00  0.00    +0.115 C 
ATOM      5  C   UNL     1       1.952  -6.359   7.742  0.00  0.00    -0.004 C 
ATOM      6  C   UNL     1       1.354  -6.615   9.122  0.00  0.00    -0.010 C 
ATOM      7  C   UNL     1       2.184  -7.681   9.843  0.00  0.00    -0.082 C 
ATOM      8  N   UNL     1       3.573  -7.221   9.967  0.00  0.00    +0.379 N 
ATOM      9  C   UNL     1       4.170  -7.067   8.634  0.00  0.00    -0.082 C 
ATOM     10  C   UNL     1       3.423  -5.976   7.862  0.00  0.00    -0.010 C 
ATOM     11  C   UNL     1       1.952  -7.529   4.317  0.00  0.00    +0.247 C 
ATOM     12  O   UNL     1       1.722  -6.905   3.300  0.00  0.00    -0.270 OA
ATOM     13  H   UNL     1       3.591  -6.334  10.447  0.00  0.00    -0.086 HD
ATOM     14  H   UNL     1       4.104  -7.897  10.495  0.00  0.00    -0.086 HD
ENDROOT
BRANCH  11  15
ATOM     15  C   UNL     1       2.727  -8.787   4.254  0.00  0.00    +0.040 A 
ATOM     16  C   UNL     1       2.636  -9.719   5.288  0.00  0.00    +0.033 A 
ATOM     17  C   UNL     1       3.362 -10.892   5.223  0.00  0.00    +0.043 A 
ATOM     18  C   UNL     1       4.178 -11.144   4.134  0.00  0.00    +0.040 A 
ATOM     19  C   UNL     1       4.273 -10.223   3.105  0.00  0.00    +0.043 A 
ATOM     20  C   UNL     1       3.547  -9.050   3.156  0.00  0.00    +0.033 A 
ATOM     21 CL   UNL     1       5.301 -10.548   1.744  0.00  0.00    -0.083 Cl
ATOM     22 CL   UNL     1       3.250 -12.052   6.510  0.00  0.00    -0.083 Cl
ENDBRANCH  11  15
BRANCH   1  24
ATOM     23  N   UNL     1       2.315  -3.114   7.513  0.00  0.00    -0.308 N 
ATOM     24  C   UNL     1       2.090  -4.118   6.643  0.00  0.00    +0.219 C 
ATOM     25  O   UNL     1       2.629  -4.111   5.556  0.00  0.00    -0.275 OA
ATOM     26  H   UNL     1       1.885  -3.119   8.382  0.00  0.00    +0.149 HD
BRANCH  23  27
ATOM     27  C   UNL     1       3.211  -2.014   7.146  0.00  0.00    +0.100 C 
ATOM     28  C   UNL     1       4.657  -2.409   7.455  0.00  0.00    +0.033 C 
BRANCH  27  32
ATOM     29  C   UNL     1       2.176   1.471   9.390  0.00  0.00    -0.048 A 
ATOM     30  C   UNL     1       2.529   1.586   8.058  0.00  0.00    +0.004 A 
ATOM     31  C   UNL     1       2.864   0.458   7.332  0.00  0.00    +0.006 A 
ATOM     32  C   UNL     1       2.846  -0.784   7.938  0.00  0.00    -0.027 A 
ATOM     33  C   UNL     1       2.495  -0.899   9.270  0.00  0.00    +0.006 A 
ATOM     34  C   UNL     1       2.164   0.229   9.997  0.00  0.00    +0.004 A 
BRANCH  29  36
ATOM     35  C   UNL     1       3.070   3.286  10.823  0.00  0.00    +0.009 C 
ATOM     36  C   UNL     1       1.811   2.700  10.181  0.00  0.00    +0.032 C 
ENDBRANCH  29  36
ENDBRANCH  27  32
ENDBRANCH  23  27
ENDBRANCH   1  24
TORSDOF 5
