REMARK  Name = ZINC06869610
REMARK  11 active torsions:
REMARK  status: ('A' for Active; 'I' for Inactive)
REMARK    1  A    between atoms: C_1  and  C_2
REMARK    2  A    between atoms: C_2  and  C_3
REMARK    3  A    between atoms: C_4  and  C_17
REMARK    4  A    between atoms: C_5  and  O_16
REMARK    5  A    between atoms: N_6  and  C_8
REMARK    6  A    between atoms: C_12  and  C_15
REMARK    7  A    between atoms: C_13  and  C_14
REMARK    8  A    between atoms: C_18  and  N_27
REMARK    9  A    between atoms: N_21  and  C_24
REMARK   10  A    between atoms: C_24  and  C_25
REMARK   11  A    between atoms: C_24  and  C_26
REMARK                            x       y       z     vdW  Elec       q    Type
REMARK                         _______ _______ _______ _____ _____    ______ ____
ROOT
ATOM      1  C   UNL     1      -1.324  -0.572  -0.117  0.00  0.00    +0.075 A 
ATOM      2  C   UNL     1      -2.028  -0.926   1.054  0.00  0.00    +0.073 A 
ATOM      3  C   UNL     1      -3.278  -1.381   0.658  0.00  0.00    +0.224 A 
ATOM      4  N   UNL     1      -3.322  -1.301  -0.697  0.00  0.00    -0.200 N 
ATOM      5  N   UNL     1      -2.098  -0.791  -1.145  0.00  0.00    -0.168 NA
ENDROOT
BRANCH   4   6
ATOM      6  C   UNL     1      -4.407  -1.662  -1.506  0.00  0.00    +0.072 A 
ATOM      7  C   UNL     1      -5.049  -2.877  -1.308  0.00  0.00    +0.028 A 
ATOM      8  C   UNL     1      -6.119  -3.230  -2.107  0.00  0.00    +0.002 A 
ATOM      9  C   UNL     1      -6.551  -2.375  -3.104  0.00  0.00    +0.004 A 
ATOM     10  C   UNL     1      -5.913  -1.164  -3.304  0.00  0.00    -0.046 A 
ATOM     11  C   UNL     1      -4.846  -0.803  -2.505  0.00  0.00    -0.022 A 
ATOM     12  C   UNL     1      -4.156   0.519  -2.720  0.00  0.00    +0.046 C 
ATOM     13  C   UNL     1      -6.387  -0.235  -4.393  0.00  0.00    +0.044 C 
ENDBRANCH   4   6
BRANCH   2  14
ATOM     14  C   UNL     1      -1.527  -0.832   2.440  0.00  0.00    +0.077 C 
ATOM     15  C   UNL     1      -1.648   0.238   3.284  0.00  0.00    +0.106 C 
ATOM     16  C   UNL     1      -0.992  -0.150   4.548  0.00  0.00    +0.268 C 
ATOM     17  O   UNL     1      -0.897   0.544   5.541  0.00  0.00    -0.268 OA
ATOM     18  N   UNL     1      -0.518  -1.402   4.417  0.00  0.00    -0.230 N 
ATOM     19  C   UNL     1      -0.802  -1.878   3.193  0.00  0.00    +0.256 C 
ATOM     20  O   UNL     1      -0.510  -2.980   2.775  0.00  0.00    -0.269 OA
BRANCH  15  21
ATOM     21  N   UNL     1      -2.264   1.451   3.006  0.00  0.00    -0.325 N 
ATOM     22  C   UNL     1      -2.915   1.811   1.738  0.00  0.00    +0.105 C 
ATOM     23  C   UNL     1      -3.432   3.258   1.883  0.00  0.00    +0.020 C 
ATOM     24  C   UNL     1      -2.548   3.831   3.021  0.00  0.00    +0.020 C 
ATOM     25  C   UNL     1      -2.379   2.589   3.936  0.00  0.00    +0.105 C 
ENDBRANCH  15  21
BRANCH  18  26
ATOM     26  C   UNL     1       0.199  -2.141   5.460  0.00  0.00    +0.079 C 
ATOM     27  C   UNL     1      -0.572  -3.418   5.801  0.00  0.00    +0.028 C 
ATOM     28  C   UNL     1       1.596  -2.508   4.956  0.00  0.00    +0.028 C 
ENDBRANCH  18  26
ENDBRANCH   2  14
BRANCH   1  30
ATOM     29  C   UNL     1       0.037   1.501  -0.087  0.00  0.00    +0.010 C 
ATOM     30  C   UNL     1       0.080  -0.026  -0.171  0.00  0.00    +0.054 C 
ENDBRANCH   1  30
BRANCH   3  31
ATOM     31  O   UNL     1      -4.269  -1.821   1.472  0.00  0.00    -0.492 OA
ATOM     32  H   UNL     1      -4.874  -1.127   1.767  0.00  0.00    +0.294 HD
ENDBRANCH   3  31
TORSDOF 6
