REMARK  Name = ZINC10042560
REMARK  10 active torsions:
REMARK  status: ('A' for Active; 'I' for Inactive)
REMARK    1  A    between atoms: C_1  and  C_2
REMARK    2  A    between atoms: C_2  and  C_3
REMARK    3  A    between atoms: C_2  and  C_4
REMARK    4  A    between atoms: C_4  and  C_6
REMARK    5  A    between atoms: C_4  and  N_26
REMARK    6  A    between atoms: N_8  and  N_9
REMARK    7  A    between atoms: C_10  and  C_11
REMARK    8  A    between atoms: C_14  and  C_16
REMARK    9  A    between atoms: C_21  and  N_22
REMARK   10  A    between atoms: C_27  and  C_29
REMARK                            x       y       z     vdW  Elec       q    Type
REMARK                         _______ _______ _______ _____ _____    ______ ____
ROOT
ATOM      1  C   UNL     1      -2.620   1.540   0.299  0.00  0.00    +0.253 C 
ATOM      2  O   UNL     1      -3.739   1.994   0.334  0.00  0.00    -0.272 OA
ATOM      3  N   UNL     1      -2.389   0.283   0.727  0.00  0.00    -0.205 N 
ATOM      4  H   UNL     1      -3.107  -0.235   1.123  0.00  0.00    +0.177 HD
ENDROOT
BRANCH   3   5
ATOM      5  N   UNL     1      -1.211  -0.232   0.611  0.00  0.00    -0.185 NA
ATOM      6  C   UNL     1      -1.009  -1.504   0.929  0.00  0.00    +0.176 C 
BRANCH   6   7
ATOM      7  C   UNL     1      -2.088  -2.324   1.232  0.00  0.00    +0.148 A 
ATOM      8  C   UNL     1      -2.008  -3.700   1.742  0.00  0.00    +0.051 A 
ATOM      9  C   UNL     1      -3.285  -4.130   1.904  0.00  0.00    +0.050 A 
ATOM     10  C   UNL     1      -4.157  -3.032   1.488  0.00  0.00    +0.138 A 
ATOM     11  O   UNL     1      -3.391  -1.997   1.103  0.00  0.00    -0.454 OA
BRANCH  10  12
ATOM     12  C   UNL     1      -5.573  -3.056   1.490  0.00  0.00    +0.048 A 
ATOM     13  C   UNL     1      -6.266  -4.056   0.778  0.00  0.00    +0.015 A 
ATOM     14  C   UNL     1      -7.631  -4.074   0.791  0.00  0.00    +0.021 A 
ATOM     15  C   UNL     1      -8.337  -3.103   1.493  0.00  0.00    +0.043 A 
ATOM     16  C   UNL     1      -7.663  -2.110   2.193  0.00  0.00    +0.053 A 
ATOM     17  C   UNL     1      -6.298  -2.078   2.198  0.00  0.00    +0.138 A 
ATOM     18 CL   UNL     1     -10.072  -3.132   1.495  0.00  0.00    -0.083 Cl
BRANCH  17  19
ATOM     19  N   UNL     1      -5.582  -1.018   2.944  0.00  0.00    +0.057 N 
ATOM     20  O   UNL     1      -6.263  -0.087   3.580  0.00  0.00    -0.126 OA
ATOM     21  O   UNL     1      -4.266  -1.008   2.973  0.00  0.00    -0.126 OA
ENDBRANCH  17  19
ENDBRANCH  10  12
ENDBRANCH   6   7
ENDBRANCH   3   5
BRANCH   1  22
ATOM     22  C   UNL     1      -1.483   2.379  -0.225  0.00  0.00    +0.163 C 
BRANCH  22  23
ATOM     23  N   UNL     1      -1.803   3.798  -0.052  0.00  0.00    -0.300 N 
ATOM     24  C   UNL     1      -0.812   4.706   0.040  0.00  0.00    +0.245 C 
ATOM     25  O   UNL     1       0.348   4.348  -0.021  0.00  0.00    -0.270 OA
ATOM     26  H   UNL     1      -2.729   4.083  -0.004  0.00  0.00    +0.150 HD
BRANCH  24  27
ATOM     27  C   UNL     1      -1.135   6.138   0.213  0.00  0.00    +0.037 A 
ATOM     28  C   UNL     1      -2.467   6.553   0.277  0.00  0.00    +0.014 A 
ATOM     29  C   UNL     1      -2.762   7.889   0.446  0.00  0.00    +0.021 A 
ATOM     30  C   UNL     1      -1.741   8.820   0.540  0.00  0.00    +0.041 A 
ATOM     31  C   UNL     1      -0.418   8.415   0.471  0.00  0.00    +0.021 A 
ATOM     32  C   UNL     1      -0.110   7.081   0.309  0.00  0.00    +0.014 A 
ATOM     33 CL   UNL     1      -2.121  10.502   0.745  0.00  0.00    -0.084 Cl
ENDBRANCH  24  27
ENDBRANCH  22  23
BRANCH  22  35
ATOM     34  C   UNL     1      -0.881   0.611  -1.885  0.00  0.00    +0.009 C 
ATOM     35  C   UNL     1      -1.270   2.080  -1.710  0.00  0.00    +0.012 C 
ATOM     36  C   UNL     1      -0.153   2.973  -2.255  0.00  0.00    +0.009 C 
ENDBRANCH  22  35
ENDBRANCH   1  22
TORSDOF 8
