REMARK  Name = ZINC08790134
REMARK  11 active torsions:
REMARK  status: ('A' for Active; 'I' for Inactive)
REMARK    1  A    between atoms: C_1  and  C_2
REMARK    2  A    between atoms: C_16  and  C_18
REMARK    3  A    between atoms: C_18  and  C_19
REMARK    4  A    between atoms: C_19  and  C_20
REMARK    5  A    between atoms: N_25  and  C_28
REMARK    6  A    between atoms: C_28  and  C_29
REMARK    7  A    between atoms: C_29  and  C_30
REMARK    8  A    between atoms: C_33  and  O_38
REMARK    9  A    between atoms: C_34  and  O_36
REMARK   10  A    between atoms: O_36  and  C_37
REMARK   11  A    between atoms: O_38  and  C_39
REMARK                            x       y       z     vdW  Elec       q    Type
REMARK                         _______ _______ _______ _____ _____    ______ ____
ROOT
ATOM      1  C   UNL     1       7.606   6.046  -4.071  0.00  0.00    +0.045 C 
ATOM      2  C   UNL     1       6.950   4.689  -4.042  0.00  0.00    -0.029 A 
ATOM      3  C   UNL     1       6.853   3.947  -5.201  0.00  0.00    +0.005 A 
ATOM      4  C   UNL     1       6.253   2.702  -5.184  0.00  0.00    +0.001 A 
ATOM      5  C   UNL     1       5.747   2.197  -3.999  0.00  0.00    +0.004 A 
ATOM      6  C   UNL     1       5.841   2.934  -2.840  0.00  0.00    -0.027 A 
ATOM      7  C   UNL     1       6.444   4.189  -2.845  0.00  0.00    +0.039 A 
ATOM      8  N   UNL     1       6.422   4.740  -1.562  0.00  0.00    -0.286 N 
ATOM      9  C   UNL     1       5.830   3.924  -0.668  0.00  0.00    +0.211 C 
ATOM     10  O   UNL     1       5.669   4.140   0.514  0.00  0.00    -0.277 OA
ATOM     11  C   UNL     1       5.409   2.692  -1.422  0.00  0.00    +0.050 C 
ATOM     12  C   UNL     1       6.060   1.431  -0.840  0.00  0.00    +0.088 C 
ATOM     13  C   UNL     1       4.971   0.820   0.085  0.00  0.00    +0.073 C 
ATOM     14  C   UNL     1       3.771   1.784  -0.024  0.00  0.00    -0.057 C 
ATOM     15  C   UNL     1       4.627  -0.485  -0.595  0.00  0.00    +0.224 C 
ATOM     16  O   UNL     1       3.802  -1.283  -0.204  0.00  0.00    -0.275 OA
ATOM     17  N   UNL     1       5.375  -0.624  -1.696  0.00  0.00    -0.241 N 
ATOM     18  C   UNL     1       6.215   0.392  -1.927  0.00  0.00    +0.225 C 
ATOM     19  O   UNL     1       6.981   0.467  -2.864  0.00  0.00    -0.275 OA
ATOM     20  H   UNL     1       6.790   5.609  -1.340  0.00  0.00    +0.155 HD
ATOM     21  N   UNL     1       3.979   2.466  -1.304  0.00  0.00    +0.394 N 
ATOM     22  H   UNL     1       3.648   1.877  -2.078  0.00  0.00    -0.083 HD
ATOM     23  H   UNL     1       3.476   3.360  -1.316  0.00  0.00    -0.083 HD
ENDROOT
BRANCH  14  24
ATOM     24  C   UNL     1       2.457   1.002  -0.016  0.00  0.00    -0.006 C 
BRANCH  24  25
ATOM     25  C   UNL     1       1.280   1.980   0.001  0.00  0.00    +0.094 C 
BRANCH  25  26
ATOM     26  C   UNL     1      -0.014   1.209   0.009  0.00  0.00    +0.210 C 
ATOM     27  O   UNL     1       0.002  -0.004   0.002  0.00  0.00    -0.276 OA
ATOM     28  N   UNL     1      -1.191   1.867   0.018  0.00  0.00    -0.329 N 
ATOM     29  H   UNL     1      -2.024   1.370   0.019  0.00  0.00    +0.145 HD
ATOM     30  H   UNL     1      -1.204   2.837   0.023  0.00  0.00    +0.145 HD
ENDBRANCH  25  26
ENDBRANCH  24  25
ENDBRANCH  14  24
BRANCH  17  31
ATOM     31  C   UNL     1       5.282  -1.792  -2.575  0.00  0.00    +0.121 C 
BRANCH  31  32
ATOM     32  C   UNL     1       4.232  -1.534  -3.657  0.00  0.00    +0.054 C 
BRANCH  32  33
ATOM     33  C   UNL     1       4.137  -2.735  -4.561  0.00  0.00    -0.042 A 
ATOM     34  C   UNL     1       4.934  -2.816  -5.688  0.00  0.00    +0.007 A 
ATOM     35  C   UNL     1       4.854  -3.919  -6.517  0.00  0.00    +0.049 A 
ATOM     36  C   UNL     1       3.965  -4.941  -6.227  0.00  0.00    +0.161 A 
ATOM     37  C   UNL     1       3.158  -4.857  -5.096  0.00  0.00    +0.162 A 
ATOM     38  C   UNL     1       3.247  -3.752  -4.266  0.00  0.00    +0.053 A 
BRANCH  37  39
ATOM     39  O   UNL     1       2.285  -5.858  -4.807  0.00  0.00    -0.491 OA
ATOM     40  C   UNL     1       1.488  -5.705  -3.631  0.00  0.00    +0.277 C 
ENDBRANCH  37  39
BRANCH  36  41
ATOM     41  O   UNL     1       3.882  -6.024  -7.045  0.00  0.00    -0.491 OA
ATOM     42  C   UNL     1       4.741  -6.042  -8.187  0.00  0.00    +0.277 C 
ENDBRANCH  36  41
ENDBRANCH  32  33
ENDBRANCH  31  32
ENDBRANCH  17  31
TORSDOF 8
