REMARK  Name = ZINC63350049
REMARK  9 active torsions:
REMARK  status: ('A' for Active; 'I' for Inactive)
REMARK    1  A    between atoms: C_1  and  O_2
REMARK    2  A    between atoms: O_2  and  C_3
REMARK    3  A    between atoms: C_6  and  C_18
REMARK    4  A    between atoms: C_8  and  C_9
REMARK    5  A    between atoms: C_9  and  O_10
REMARK    6  A    between atoms: O_10  and  C_11
REMARK    7  A    between atoms: C_25  and  O_30
REMARK    8  A    between atoms: O_30  and  C_31
REMARK    9  A    between atoms: C_31  and  C_32
REMARK                            x       y       z     vdW  Elec       q    Type
REMARK                         _______ _______ _______ _____ _____    ______ ____
ROOT
ATOM      1  C   UNL     1       2.506  -2.503  -4.381  0.00  0.00    +0.111 C 
ATOM      2  C   UNL     1       4.023  -2.489  -4.185  0.00  0.00    +0.128 C 
ATOM      3  C   UNL     1       4.625  -3.023  -5.480  0.00  0.00    -0.035 C 
ATOM      4  C   UNL     1       5.419  -4.027  -5.138  0.00  0.00    +0.003 A 
ATOM      5  C   UNL     1       6.329  -4.875  -5.924  0.00  0.00    +0.055 A 
ATOM      6  C   UNL     1       6.999  -5.846  -5.245  0.00  0.00    +0.122 A 
ATOM      7  C   UNL     1       6.868  -6.072  -3.867  0.00  0.00    +0.048 A 
ATOM      8  C   UNL     1       6.063  -5.348  -3.048  0.00  0.00    +0.029 A 
ATOM      9  C   UNL     1       5.290  -4.263  -3.666  0.00  0.00    +0.043 A 
ATOM     10  N   UNL     1       4.462  -3.393  -3.123  0.00  0.00    -0.376 N 
ATOM     11  C   UNL     1       4.218  -2.476  -6.827  0.00  0.00    +0.048 C 
ATOM     12  C   UNL     1       2.679  -2.436  -6.827  0.00  0.00    +0.086 C 
ATOM     13  N   UNL     1       2.191  -1.769  -5.617  0.00  0.00    -0.307 NA
ATOM     14  H   UNL     1       1.202  -1.579  -5.682  0.00  0.00    +0.123 HD
ATOM     15  H   UNL     1       4.186  -3.355  -2.194  0.00  0.00    +0.160 HD
ENDROOT
BRANCH   1  19
ATOM     16  C   UNL     1       0.606  -0.607  -1.056  0.00  0.00    +0.126 A 
ATOM     17  C   UNL     1       1.173   0.161  -2.063  0.00  0.00    +0.046 A 
ATOM     18  C   UNL     1       1.786  -0.455  -3.136  0.00  0.00    +0.009 A 
ATOM     19  C   UNL     1       1.836  -1.835  -3.208  0.00  0.00    -0.028 A 
ATOM     20  C   UNL     1       1.271  -2.602  -2.207  0.00  0.00    +0.015 A 
ATOM     21  C   UNL     1       0.661  -1.991  -1.128  0.00  0.00    +0.032 A 
BRANCH  16  23
ATOM     22  C   UNL     1      -0.017   1.425   0.010  0.00  0.00    +0.277 C 
ATOM     23  O   UNL     1       0.002  -0.004   0.002  0.00  0.00    -0.495 OA
ENDBRANCH  16  23
BRANCH  21  24
ATOM     24  C   UNL     1       0.051  -2.828  -0.033  0.00  0.00    +0.268 C 
BRANCH  24  25
ATOM     25  O   UNL     1       0.235  -4.213  -0.334  0.00  0.00    -0.487 OA
BRANCH  25  26
ATOM     26  C   UNL     1      -0.261  -5.110   0.560  0.00  0.00    +0.121 A 
ATOM     27  C   UNL     1      -0.916  -4.665   1.699  0.00  0.00    +0.048 A 
ATOM     28  C   UNL     1      -1.419  -5.577   2.606  0.00  0.00    +0.042 A 
ATOM     29  C   UNL     1      -1.269  -6.935   2.379  0.00  0.00    +0.124 A 
ATOM     30  C   UNL     1      -0.615  -7.380   1.243  0.00  0.00    +0.042 A 
ATOM     31  C   UNL     1      -0.117  -6.470   0.331  0.00  0.00    +0.048 A 
ATOM     32  F   UNL     1      -1.762  -7.826   3.267  0.00  0.00    -0.205 F 
ENDBRANCH  25  26
ENDBRANCH  24  25
ENDBRANCH  21  24
ENDBRANCH   1  19
BRANCH   6  33
ATOM     33  O   UNL     1       7.846  -6.646  -5.945  0.00  0.00    -0.487 OA
BRANCH  33  34
ATOM     34  C   UNL     1       8.538  -7.658  -5.211  0.00  0.00    +0.264 C 
BRANCH  34  35
ATOM     35  C   UNL     1       9.425  -8.439  -6.146  0.00  0.00    -0.010 A 
ATOM     36  C   UNL     1       8.934  -9.559  -6.790  0.00  0.00    +0.007 A 
ATOM     37  C   UNL     1       9.748 -10.276  -7.648  0.00  0.00    +0.000 A 
ATOM     38  C   UNL     1      11.052  -9.872  -7.862  0.00  0.00    +0.000 A 
ATOM     39  C   UNL     1      11.543  -8.751  -7.219  0.00  0.00    +0.000 A 
ATOM     40  C   UNL     1      10.728  -8.032  -6.365  0.00  0.00    +0.007 A 
ENDBRANCH  34  35
ENDBRANCH  33  34
ENDBRANCH   6  33
TORSDOF 8
