REMARK  Name = ZINC15945027
REMARK  3 active torsions:
REMARK  status: ('A' for Active; 'I' for Inactive)
REMARK    1  A    between atoms: C_4  and  C_7
REMARK    2  A    between atoms: C_7  and  N_51
REMARK    3  A    between atoms: C_18  and  C_21
REMARK                            x       y       z     vdW  Elec       q    Type
REMARK                         _______ _______ _______ _____ _____    ______ ____
ROOT
ATOM      1  C   UNL     1      -1.131   2.031  -1.080  0.00  0.00    -0.073 C 
ATOM      2  C   UNL     1      -0.308   1.444   0.070  0.00  0.00    +0.018 C 
ATOM      3  C   UNL     1      -0.968   1.847   1.384  0.00  0.00    -0.027 A 
ATOM      4  C   UNL     1      -1.855   2.869   1.408  0.00  0.00    -0.021 A 
ATOM      5  S   UNL     1      -2.367   2.989   3.100  0.00  0.00    -0.080 S 
ATOM      6  C   UNL     1      -1.426   1.716   3.755  0.00  0.00    +0.080 A 
ATOM      7  C   UNL     1      -0.719   1.199   2.659  0.00  0.00    +0.068 A 
ATOM      8  C   UNL     1       0.196   0.061   2.910  0.00  0.00    +0.248 C 
ATOM      9  O   UNL     1       0.927  -0.369   2.036  0.00  0.00    -0.270 OA
ATOM     10  N   UNL     1       0.185  -0.479   4.146  0.00  0.00    -0.289 N 
ATOM     11  C   UNL     1      -0.826  -0.170   5.151  0.00  0.00    +0.191 C 
ATOM     12  N   UNL     1      -1.297   1.221   5.027  0.00  0.00    -0.316 N 
ATOM     13  C   UNL     1      -2.288   3.699   0.241  0.00  0.00    -0.035 C 
ATOM     14  H   UNL     1       0.888  -1.106   4.379  0.00  0.00    +0.151 HD
ATOM     15  H   UNL     1      -1.504   1.760   5.806  0.00  0.00    +0.149 HD
ATOM     16  N   UNL     1      -1.318   3.479  -0.858  0.00  0.00    +0.386 N 
ATOM     17  H   UNL     1      -0.417   3.897  -0.598  0.00  0.00    -0.081 HD
ENDROOT
BRANCH  11  18
ATOM     18  C   UNL     1      -1.996  -1.104   4.978  0.00  0.00    +0.008 A 
ATOM     19  C   UNL     1      -2.242  -1.680   3.745  0.00  0.00    +0.057 A 
ATOM     20  C   UNL     1      -3.314  -2.543   3.584  0.00  0.00    +0.167 A 
ATOM     21  C   UNL     1      -4.149  -2.820   4.664  0.00  0.00    +0.167 A 
ATOM     22  C   UNL     1      -3.900  -2.236   5.895  0.00  0.00    +0.065 A 
ATOM     23  C   UNL     1      -2.825  -1.379   6.050  0.00  0.00    +0.028 A 
ATOM     24 BR   UNL     1      -2.487  -0.583   7.732  0.00  0.00    -0.050 Br
ATOM     25  O   UNL     1      -5.123  -3.682   4.252  0.00  0.00    -0.453 OA
ATOM     26  C   UNL     1      -4.639  -4.249   3.020  0.00  0.00    +0.466 C 
ATOM     27  O   UNL     1      -3.765  -3.232   2.495  0.00  0.00    -0.453 OA
ENDBRANCH  11  18
BRANCH  16  28
ATOM     28  C   UNL     1      -1.805   4.122  -2.098  0.00  0.00    -0.043 C 
BRANCH  28  32
ATOM     29  C   UNL     1      -1.719   8.362  -1.583  0.00  0.00    +0.000 A 
ATOM     30  C   UNL     1      -0.608   7.703  -2.074  0.00  0.00    +0.000 A 
ATOM     31  C   UNL     1      -0.635   6.331  -2.241  0.00  0.00    +0.002 A 
ATOM     32  C   UNL     1      -1.774   5.618  -1.916  0.00  0.00    -0.064 A 
ATOM     33  C   UNL     1      -2.887   6.278  -1.430  0.00  0.00    +0.002 A 
ATOM     34  C   UNL     1      -2.858   7.649  -1.258  0.00  0.00    +0.000 A 
ENDBRANCH  28  32
ENDBRANCH  16  28
TORSDOF 3
