REMARK  Name = ZINC14270357
REMARK  7 active torsions:
REMARK  status: ('A' for Active; 'I' for Inactive)
REMARK    1  A    between atoms: C_3  and  C_10
REMARK    2  A    between atoms: C_5  and  N_7
REMARK    3  A    between atoms: C_13  and  C_15
REMARK    4  A    between atoms: N_17  and  C_18
REMARK    5  A    between atoms: C_18  and  N_20
REMARK    6  A    between atoms: N_20  and  C_21
REMARK    7  A    between atoms: C_26  and  O_27
REMARK                            x       y       z     vdW  Elec       q    Type
REMARK                         _______ _______ _______ _____ _____    ______ ____
ROOT
ATOM      1  C   UNL     1       1.543   8.496  -0.442  0.00  0.00    +0.285 C 
ATOM      2  O   UNL     1       1.068   9.594  -0.668  0.00  0.00    -0.266 OA
ATOM      3  N   UNL     1       2.864   8.369  -0.209  0.00  0.00    -0.261 N 
ATOM      4  H   UNL     1       3.243   7.494  -0.029  0.00  0.00    +0.157 HD
ENDROOT
BRANCH   1   8
ATOM      5  C   UNL     1       0.012   5.228  -0.249  0.00  0.00    +0.136 A 
ATOM      6  C   UNL     1      -1.097   5.973  -0.531  0.00  0.00    +0.050 A 
ATOM      7  C   UNL     1      -0.682   7.303  -0.644  0.00  0.00    +0.055 A 
ATOM      8  C   UNL     1       0.679   7.315  -0.423  0.00  0.00    +0.190 A 
ATOM      9  O   UNL     1       1.075   6.047  -0.180  0.00  0.00    -0.450 OA
BRANCH   5  12
ATOM     10  C   UNL     1      -1.109   1.657   0.049  0.00  0.00    +0.003 A 
ATOM     11  C   UNL     1      -1.141   3.024  -0.137  0.00  0.00    +0.012 A 
ATOM     12  C   UNL     1       0.038   3.765  -0.046  0.00  0.00    +0.019 A 
ATOM     13  C   UNL     1       1.243   3.118   0.239  0.00  0.00    +0.044 A 
ATOM     14  C   UNL     1       1.260   1.752   0.428  0.00  0.00    +0.127 A 
ATOM     15  C   UNL     1       0.087   1.023   0.336  0.00  0.00    +0.033 A 
BRANCH  14  16
ATOM     16  N   UNL     1       2.535   1.064   0.730  0.00  0.00    +0.056 N 
ATOM     17  O   UNL     1       2.552  -0.142   0.897  0.00  0.00    -0.126 OA
ATOM     18  O   UNL     1       3.568   1.705   0.811  0.00  0.00    -0.126 OA
ENDBRANCH  14  16
ENDBRANCH   5  12
ENDBRANCH   1   8
BRANCH   3  19
ATOM     19  C   UNL     1       3.660   9.457  -0.227  0.00  0.00    +0.141 C 
ATOM     20  S   UNL     1       2.991  11.001  -0.545  0.00  0.00    -0.018 S 
BRANCH  19  21
ATOM     21  N   UNL     1       4.981   9.330   0.006  0.00  0.00    -0.294 N 
ATOM     22  H   UNL     1       5.350   8.466   0.248  0.00  0.00    +0.154 HD
BRANCH  21  23
ATOM     23  C   UNL     1       5.822  10.445  -0.101  0.00  0.00    +0.077 A 
ATOM     24  C   UNL     1       5.466  11.644   0.500  0.00  0.00    +0.047 A 
ATOM     25  C   UNL     1       6.298  12.744   0.393  0.00  0.00    +0.044 A 
ATOM     26  C   UNL     1       7.485  12.652  -0.312  0.00  0.00    +0.043 A 
ATOM     27  C   UNL     1       7.845  11.460  -0.914  0.00  0.00    +0.086 A 
ATOM     28  C   UNL     1       7.019  10.351  -0.806  0.00  0.00    +0.156 A 
ATOM     29 CL   UNL     1       9.335  11.349  -1.798  0.00  0.00    -0.080 Cl
ATOM     30 CL   UNL     1       5.852  14.243   1.146  0.00  0.00    -0.083 Cl
BRANCH  28  31
ATOM     31  O   UNL     1       7.375   9.176  -1.391  0.00  0.00    -0.504 OA
ATOM     32  H   UNL     1       7.061   9.079  -2.301  0.00  0.00    +0.292 HD
ENDBRANCH  28  31
ENDBRANCH  21  23
ENDBRANCH  19  21
ENDBRANCH   3  19
TORSDOF 7
