REMARK  Name = ZINC39923147
REMARK  6 active torsions:
REMARK  status: ('A' for Active; 'I' for Inactive)
REMARK    1  A    between atoms: C_1  and  C_2
REMARK    2  A    between atoms: C_2  and  C_21
REMARK    3  A    between atoms: N_3  and  N_4
REMARK    4  A    between atoms: C_5  and  C_7
REMARK    5  A    between atoms: C_10  and  C_13
REMARK    6  A    between atoms: C_24  and  N_27
REMARK                            x       y       z     vdW  Elec       q    Type
REMARK                         _______ _______ _______ _____ _____    ______ ____
ROOT
ATOM      1  N   UNL     1      -1.028  -1.642   1.344  0.00  0.00    -0.205 N 
ATOM      2  C   UNL     1      -1.521  -1.998   2.546  0.00  0.00    +0.263 C 
ATOM      3  O   UNL     1      -1.410  -1.249   3.494  0.00  0.00    -0.271 OA
ATOM      4  H   UNL     1      -1.117  -2.241   0.586  0.00  0.00    +0.177 HD
ENDROOT
BRANCH   2   5
ATOM      5  C   UNL     1      -2.209  -3.328   2.715  0.00  0.00    +0.240 C 
ATOM      6  C   UNL     1      -1.192  -4.437   2.919  0.00  0.00    +0.041 C 
ATOM      7  C   UNL     1      -1.483  -4.920   4.142  0.00  0.00    +0.092 C 
ATOM      8  N   UNL     1      -2.532  -4.246   4.681  0.00  0.00    -0.153 NA
ATOM      9  N   UNL     1      -2.994  -3.354   3.960  0.00  0.00    -0.170 NA
BRANCH   7  10
ATOM     10  C   UNL     1      -0.760  -6.033   4.806  0.00  0.00    +0.003 A 
ATOM     11  C   UNL     1       0.310  -6.653   4.164  0.00  0.00    +0.011 A 
ATOM     12  C   UNL     1       0.980  -7.687   4.786  0.00  0.00    +0.022 A 
ATOM     13  C   UNL     1       0.592  -8.108   6.046  0.00  0.00    +0.059 A 
ATOM     14  C   UNL     1      -0.471  -7.495   6.689  0.00  0.00    +0.060 A 
ATOM     15  C   UNL     1      -1.144  -6.456   6.077  0.00  0.00    +0.031 A 
ATOM     16 CL   UNL     1      -0.953  -8.029   8.269  0.00  0.00    -0.082 Cl
ATOM     17 CL   UNL     1       1.439  -9.410   6.822  0.00  0.00    -0.082 Cl
ENDBRANCH   7  10
ENDBRANCH   2   5
BRANCH   1  20
ATOM     18  C   UNL     1       0.815   1.237  -0.141  0.00  0.00    +0.068 C 
ATOM     19  C   UNL     1      -0.010  -0.015   0.009  0.00  0.00    +0.063 C 
ATOM     20  N   UNL     1      -0.388  -0.405   1.187  0.00  0.00    -0.184 NA
BRANCH  19  21
ATOM     21  C   UNL     1      -0.386  -0.797  -1.183  0.00  0.00    -0.002 A 
ATOM     22  C   UNL     1      -1.654  -1.377  -1.270  0.00  0.00    +0.012 A 
ATOM     23  C   UNL     1      -2.000  -2.107  -2.389  0.00  0.00    +0.033 A 
ATOM     24  C   UNL     1      -1.094  -2.265  -3.422  0.00  0.00    +0.126 A 
ATOM     25  C   UNL     1       0.164  -1.694  -3.343  0.00  0.00    +0.033 A 
ATOM     26  C   UNL     1       0.521  -0.957  -2.233  0.00  0.00    +0.012 A 
BRANCH  24  27
ATOM     27  N   UNL     1      -1.472  -3.051  -4.619  0.00  0.00    +0.056 N 
ATOM     28  O   UNL     1      -2.570  -3.552  -4.691  0.00  0.00    -0.126 OA
ATOM     29  O   UNL     1      -0.682  -3.191  -5.524  0.00  0.00    -0.126 OA
ENDBRANCH  24  27
ENDBRANCH  19  21
ENDBRANCH   1  20
TORSDOF 5
