REMARK  Name = ZINC08856489
REMARK  7 active torsions:
REMARK  status: ('A' for Active; 'I' for Inactive)
REMARK    1  A    between atoms: C_1  and  O_2
REMARK    2  A    between atoms: O_2  and  C_3
REMARK    3  A    between atoms: C_3  and  C_5
REMARK    4  A    between atoms: C_8  and  N_11
REMARK    5  A    between atoms: C_16  and  C_30
REMARK    6  A    between atoms: N_18  and  C_24
REMARK    7  A    between atoms: C_35  and  O_36
REMARK                            x       y       z     vdW  Elec       q    Type
REMARK                         _______ _______ _______ _____ _____    ______ ____
ROOT
ATOM      1  N   UNL     1       0.823  -6.234  -1.335  0.00  0.00    -0.208 N 
ATOM      2  C   UNL     1       1.325  -6.886  -2.390  0.00  0.00    +0.235 C 
ATOM      3  O   UNL     1       1.772  -6.363  -3.389  0.00  0.00    -0.274 OA
ATOM      4  C   UNL     1       1.249  -8.374  -2.143  0.00  0.00    +0.146 C 
ATOM      5  C   UNL     1       0.221  -9.003  -3.111  0.00  0.00    +0.160 C 
ATOM      6  N   UNL     1      -0.604  -9.845  -2.210  0.00  0.00    -0.244 N 
ATOM      7  O   UNL     1      -0.733  -9.073  -1.015  0.00  0.00    -0.257 OA
ATOM      8  C   UNL     1       0.570  -8.475  -0.750  0.00  0.00    +0.249 C 
ATOM      9  C   UNL     1       0.383  -7.027  -0.351  0.00  0.00    +0.259 C 
ATOM     10  O   UNL     1      -0.094  -6.645   0.697  0.00  0.00    -0.272 OA
ENDROOT
BRANCH   1  14
ATOM     11  C   UNL     1       0.658  -2.074  -1.123  0.00  0.00    +0.059 A 
ATOM     12  C   UNL     1       1.893  -2.727  -1.116  0.00  0.00    +0.017 A 
ATOM     13  C   UNL     1       1.944  -4.102  -1.186  0.00  0.00    +0.025 A 
ATOM     14  C   UNL     1       0.767  -4.839  -1.264  0.00  0.00    +0.044 A 
ATOM     15  C   UNL     1      -0.464  -4.193  -1.271  0.00  0.00    +0.025 A 
ATOM     16  C   UNL     1      -0.522  -2.819  -1.196  0.00  0.00    +0.017 A 
BRANCH  11  17
ATOM     17  C   UNL     1       0.599  -0.602  -1.049  0.00  0.00    +0.339 C 
ATOM     18  O   UNL     1      -0.476  -0.036  -1.050  0.00  0.00    -0.245 OA
BRANCH  17  20
ATOM     19  C   UNL     1       1.607   1.536  -0.909  0.00  0.00    +0.280 C 
ATOM     20  O   UNL     1       1.738   0.115  -0.979  0.00  0.00    -0.464 OA
ENDBRANCH  17  20
ENDBRANCH  11  17
ENDBRANCH   1  14
BRANCH   6  21
ATOM     21  C   UNL     1      -1.134 -11.110  -2.471  0.00  0.00    +0.065 A 
ATOM     22  C   UNL     1      -0.903 -11.723  -3.697  0.00  0.00    +0.028 A 
ATOM     23  C   UNL     1      -1.429 -12.974  -3.952  0.00  0.00    +0.002 A 
ATOM     24  C   UNL     1      -2.186 -13.617  -2.989  0.00  0.00    +0.000 A 
ATOM     25  C   UNL     1      -2.418 -13.010  -1.768  0.00  0.00    +0.002 A 
ATOM     26  C   UNL     1      -1.890 -11.761  -1.505  0.00  0.00    +0.028 A 
ENDBRANCH   6  21
BRANCH   5  27
ATOM     27  C   UNL     1      -0.617  -7.935  -3.766  0.00  0.00    +0.020 A 
ATOM     28  C   UNL     1      -1.842  -7.590  -3.228  0.00  0.00    +0.009 A 
ATOM     29  C   UNL     1      -2.612  -6.612  -3.829  0.00  0.00    +0.001 A 
ATOM     30  C   UNL     1      -2.158  -5.975  -4.969  0.00  0.00    +0.004 A 
ATOM     31  C   UNL     1      -0.934  -6.316  -5.511  0.00  0.00    +0.046 A 
ATOM     32  C   UNL     1      -0.157  -7.295  -4.907  0.00  0.00    +0.122 A 
BRANCH  32  33
ATOM     33  O   UNL     1       1.050  -7.628  -5.435  0.00  0.00    -0.506 OA
ATOM     34  H   UNL     1       1.010  -8.339  -6.090  0.00  0.00    +0.292 HD
ENDBRANCH  32  33
ENDBRANCH   5  27
TORSDOF 6
