REMARK  Name = ZINC64436138
REMARK  6 active torsions:
REMARK  status: ('A' for Active; 'I' for Inactive)
REMARK    1  A    between atoms: C_6  and  C_7
REMARK    2  A    between atoms: N_12  and  C_14
REMARK    3  A    between atoms: C_14  and  C_15
REMARK    4  A    between atoms: N_17  and  C_18
REMARK    5  A    between atoms: C_18  and  C_19
REMARK    6  A    between atoms: C_19  and  C_20
REMARK                            x       y       z     vdW  Elec       q    Type
REMARK                         _______ _______ _______ _____ _____    ______ ____
ROOT
ATOM      1  C   UNL     1      -2.144  -4.430   2.226  0.00  0.00    +0.232 C 
ATOM      2  O   UNL     1      -2.142  -3.441   2.928  0.00  0.00    -0.274 OA
ATOM      3  N   UNL     1      -2.029  -5.652   2.784  0.00  0.00    -0.314 N 
ATOM      4  H   UNL     1      -2.031  -6.443   2.223  0.00  0.00    +0.149 HD
ENDROOT
BRANCH   1   5
ATOM      5  C   UNL     1      -2.275  -4.294   0.731  0.00  0.00    +0.226 C 
BRANCH   5  11
ATOM      6  C   UNL     1      -1.269  -0.765   0.011  0.00  0.00    +0.048 C 
ATOM      7  C   UNL     1      -2.425  -0.112   0.020  0.00  0.00    +0.007 C 
ATOM      8  C   UNL     1      -3.744  -0.827   0.023  0.00  0.00    +0.126 C 
ATOM      9  C   UNL     1      -3.582  -2.268   0.410  0.00  0.00    +0.236 C 
ATOM     10  O   UNL     1      -4.556  -2.900   0.759  0.00  0.00    -0.274 OA
ATOM     11  N   UNL     1      -2.384  -2.876   0.378  0.00  0.00    -0.213 N 
ATOM     12  N   UNL     1      -1.238  -2.159   0.003  0.00  0.00    -0.261 N 
ATOM     13  H   UNL     1      -0.430  -2.628  -0.257  0.00  0.00    +0.170 HD
BRANCH   6  19
ATOM     14  C   UNL     1      -0.017   1.390   0.010  0.00  0.00    +0.011 A 
ATOM     15  C   UNL     1       1.170   2.094   0.002  0.00  0.00    +0.020 A 
ATOM     16  C   UNL     1       2.378   1.418  -0.013  0.00  0.00    +0.041 A 
ATOM     17  C   UNL     1       2.403   0.034  -0.021  0.00  0.00    +0.020 A 
ATOM     18  C   UNL     1       1.222  -0.680  -0.014  0.00  0.00    +0.011 A 
ATOM     19  C   UNL     1       0.002  -0.004   0.002  0.00  0.00    -0.003 A 
ATOM     20 CL   UNL     1       3.868   2.309  -0.022  0.00  0.00    -0.084 Cl
ENDBRANCH   6  19
ENDBRANCH   5  11
ENDBRANCH   1   5
BRANCH   3  21
ATOM     21  C   UNL     1      -1.902  -5.785   4.237  0.00  0.00    +0.108 C 
BRANCH  21  22
ATOM     22  C   UNL     1      -1.788  -7.265   4.606  0.00  0.00    +0.052 C 
BRANCH  22  23
ATOM     23  C   UNL     1      -1.657  -7.402   6.101  0.00  0.00    -0.040 C 
ATOM     24  C   UNL     1      -2.653  -7.635   6.986  0.00  0.00    +0.000 A 
ATOM     25  C   UNL     1      -4.100  -7.823   6.828  0.00  0.00    +0.030 A 
ATOM     26  C   UNL     1      -4.857  -8.044   7.928  0.00  0.00    +0.042 A 
ATOM     27  C   UNL     1      -4.294  -8.097   9.212  0.00  0.00    +0.022 A 
ATOM     28  C   UNL     1      -2.973  -7.934   9.436  0.00  0.00    +0.027 A 
ATOM     29  C   UNL     1      -2.084  -7.696   8.351  0.00  0.00    +0.043 A 
ATOM     30  N   UNL     1      -0.787  -7.508   8.312  0.00  0.00    -0.380 N 
ATOM     31  C   UNL     1      -0.385  -7.313   6.914  0.00  0.00    +0.144 C 
ATOM     32 CL   UNL     1      -6.569  -8.267   7.745  0.00  0.00    -0.084 Cl
ATOM     33  H   UNL     1      -0.192  -7.503   9.078  0.00  0.00    +0.160 HD
ENDBRANCH  22  23
ENDBRANCH  21  22
ENDBRANCH   3  21
TORSDOF 6
