REMARK  Name = ZINC20884777
REMARK  5 active torsions:
REMARK  status: ('A' for Active; 'I' for Inactive)
REMARK    1  A    between atoms: C_1  and  O_2
REMARK    2  A    between atoms: O_2  and  C_3
REMARK    3  A    between atoms: C_8  and  C_9
REMARK    4  A    between atoms: C_14  and  C_24
REMARK    5  A    between atoms: C_29  and  O_30
REMARK                            x       y       z     vdW  Elec       q    Type
REMARK                         _______ _______ _______ _____ _____    ______ ____
ROOT
ATOM      1  C   UNL     1      -0.144  -2.780   0.051  0.00  0.00    +0.035 C 
ATOM      2  C   UNL     1      -1.204  -3.726   0.611  0.00  0.00    +0.060 C 
ATOM      3  C   UNL     1      -1.766  -4.595  -0.503  0.00  0.00    +0.017 C 
ATOM      4  C   UNL     1      -0.991  -4.958  -1.538  0.00  0.00    +0.037 C 
ATOM      5  C   UNL     1      -1.420  -5.808  -2.711  0.00  0.00    +0.139 C 
ATOM      6  N   UNL     1      -2.702  -6.458  -2.540  0.00  0.00    -0.331 N 
ATOM      7  C   UNL     1      -3.873  -5.714  -2.428  0.00  0.00    +0.049 A 
ATOM      8  C   UNL     1      -4.860  -5.772  -3.400  0.00  0.00    +0.025 A 
ATOM      9  C   UNL     1      -5.987  -4.980  -3.275  0.00  0.00    +0.002 A 
ATOM     10  C   UNL     1      -6.131  -4.132  -2.192  0.00  0.00    +0.002 A 
ATOM     11  C   UNL     1      -5.157  -4.084  -1.210  0.00  0.00    +0.025 A 
ATOM     12  C   UNL     1      -4.041  -4.894  -1.323  0.00  0.00    +0.052 A 
ATOM     13  N   UNL     1      -3.064  -4.958  -0.335  0.00  0.00    -0.316 N 
ATOM     14  C   UNL     1       0.355  -4.529  -1.607  0.00  0.00    +0.163 C 
ATOM     15  O   UNL     1       1.041  -4.897  -2.541  0.00  0.00    -0.292 OA
ATOM     16  C   UNL     1       0.967  -3.638  -0.568  0.00  0.00    +0.088 C 
ATOM     17  H   UNL     1      -2.761  -7.556  -2.496  0.00  0.00    +0.147 HD
ATOM     18  H   UNL     1      -3.408  -5.334   0.639  0.00  0.00    +0.152 HD
ENDROOT
BRANCH   1  24
ATOM     19  C   UNL     1       0.314  -0.552   1.106  0.00  0.00    +0.124 A 
ATOM     20  C   UNL     1       0.842   0.225   2.127  0.00  0.00    +0.046 A 
ATOM     21  C   UNL     1       1.465  -0.380   3.201  0.00  0.00    +0.004 A 
ATOM     22  C   UNL     1       1.572  -1.758   3.255  0.00  0.00    +0.001 A 
ATOM     23  C   UNL     1       1.052  -2.533   2.235  0.00  0.00    +0.007 A 
ATOM     24  C   UNL     1       0.423  -1.934   1.161  0.00  0.00    -0.002 A 
BRANCH  19  26
ATOM     25  C   UNL     1      -0.380   1.467   0.060  0.00  0.00    +0.277 C 
ATOM     26  O   UNL     1      -0.304   0.040   0.050  0.00  0.00    -0.495 OA
ENDBRANCH  19  26
ENDBRANCH   1  24
BRANCH   5  27
ATOM     27  C   UNL     1      -1.487  -4.934  -3.937  0.00  0.00    +0.019 A 
ATOM     28  C   UNL     1      -1.532  -3.560  -3.804  0.00  0.00    +0.009 A 
ATOM     29  C   UNL     1      -1.589  -2.757  -4.929  0.00  0.00    +0.001 A 
ATOM     30  C   UNL     1      -1.611  -3.328  -6.188  0.00  0.00    +0.004 A 
ATOM     31  C   UNL     1      -1.572  -4.702  -6.326  0.00  0.00    +0.046 A 
ATOM     32  C   UNL     1      -1.510  -5.509  -5.199  0.00  0.00    +0.122 A 
BRANCH  32  33
ATOM     33  O   UNL     1      -1.471  -6.861  -5.332  0.00  0.00    -0.506 OA
ATOM     34  H   UNL     1      -1.489  -7.316  -6.333  0.00  0.00    +0.292 HD
ENDBRANCH  32  33
ENDBRANCH   5  27
TORSDOF 4
