REMARK  Name = ZINC50588009
REMARK  5 active torsions:
REMARK  status: ('A' for Active; 'I' for Inactive)
REMARK    1  A    between atoms: C_4  and  C_7
REMARK    2  A    between atoms: C_9  and  C_13
REMARK    3  A    between atoms: C_18  and  N_19
REMARK    4  A    between atoms: C_20  and  C_22
REMARK    5  A    between atoms: C_23  and  C_24
REMARK                            x       y       z     vdW  Elec       q    Type
REMARK                         _______ _______ _______ _____ _____    ______ ____
ROOT
ATOM      1  C   UNL     1       5.703  -3.692  -0.095  0.00  0.00    +0.040 A 
ATOM      2  C   UNL     1       7.080  -3.878  -0.213  0.00  0.00    +0.013 A 
ATOM      3  C   UNL     1       7.603  -5.154  -0.229  0.00  0.00    +0.001 A 
ATOM      4  C   UNL     1       6.767  -6.253  -0.128  0.00  0.00    +0.002 A 
ATOM      5  C   UNL     1       5.401  -6.083  -0.011  0.00  0.00    +0.024 A 
ATOM      6  C   UNL     1       4.859  -4.806   0.012  0.00  0.00    +0.044 A 
ENDROOT
BRANCH   1   9
ATOM      7  C   UNL     1       3.711  -0.690  -0.046  0.00  0.00    +0.182 A 
ATOM      8  N   UNL     1       3.856  -2.020  -0.058  0.00  0.00    -0.207 NA
ATOM      9  C   UNL     1       5.136  -2.327  -0.078  0.00  0.00    +0.158 A 
ATOM     10  N   UNL     1       5.843  -1.172  -0.078  0.00  0.00    -0.258 N 
ATOM     11  H   UNL     1       6.809  -1.081  -0.090  0.00  0.00    +0.191 HD
ATOM     12  N   UNL     1       4.901  -0.130  -0.063  0.00  0.00    -0.152 NA
BRANCH   7  16
ATOM     13  C   UNL     1       0.003   1.390   0.018  0.00  0.00    +0.000 A 
ATOM     14  C   UNL     1       1.190   2.099   0.003  0.00  0.00    +0.001 A 
ATOM     15  C   UNL     1       2.397   1.429  -0.018  0.00  0.00    +0.011 A 
ATOM     16  C   UNL     1       2.417   0.036  -0.023  0.00  0.00    +0.021 A 
ATOM     17  C   UNL     1       1.218  -0.673  -0.007  0.00  0.00    +0.011 A 
ATOM     18  C   UNL     1       0.017   0.007   0.013  0.00  0.00    +0.001 A 
ENDBRANCH   7  16
ENDBRANCH   1   9
BRANCH   6  19
ATOM     19  N   UNL     1       3.481  -4.632   0.136  0.00  0.00    -0.281 N 
ATOM     20  C   UNL     1       2.759  -5.486   0.888  0.00  0.00    +0.241 C 
ATOM     21  O   UNL     1       3.320  -6.350   1.537  0.00  0.00    -0.270 OA
ATOM     22  H   UNL     1       3.042  -3.896  -0.319  0.00  0.00    +0.155 HD
BRANCH  20  23
ATOM     23  C   UNL     1       1.347  -5.379   0.922  0.00  0.00    +0.069 C 
ATOM     24  C   UNL     1       0.622  -6.236   1.677  0.00  0.00    +0.033 C 
BRANCH  24  25
ATOM     25  C   UNL     1      -0.841  -6.125   1.713  0.00  0.00    +0.071 A 
ATOM     26  C   UNL     1      -1.624  -6.974   2.473  0.00  0.00    +0.074 A 
ATOM     27  S   UNL     1      -3.175  -6.415   2.151  0.00  0.00    -0.083 S 
ATOM     28  C   UNL     1      -2.803  -5.163   1.098  0.00  0.00    +0.156 A 
ATOM     29  N   UNL     1      -1.501  -5.193   1.017  0.00  0.00    -0.248 NA
ENDBRANCH  24  25
ENDBRANCH  20  23
ENDBRANCH   6  19
TORSDOF 5
