REMARK  Name = ZINC17341601
REMARK  11 active torsions:
REMARK  status: ('A' for Active; 'I' for Inactive)
REMARK    1  A    between atoms: C_1  and  C_2
REMARK    2  A    between atoms: C_2  and  C_3
REMARK    3  A    between atoms: C_3  and  C_4
REMARK    4  A    between atoms: C_4  and  N_5
REMARK    5  A    between atoms: C_6  and  N_30
REMARK    6  A    between atoms: C_7  and  N_14
REMARK    7  A    between atoms: N_14  and  C_15
REMARK    8  A    between atoms: C_15  and  C_16
REMARK    9  A    between atoms: C_16  and  C_17
REMARK   10  A    between atoms: C_17  and  C_18
REMARK   11  A    between atoms: C_19  and  C_21
REMARK                            x       y       z     vdW  Elec       q    Type
REMARK                         _______ _______ _______ _____ _____    ______ ____
ROOT
ATOM      1  N   UNL     1      -0.369   1.591  -0.019  0.00  0.00    -0.280 N 
ATOM      2  C   UNL     1       0.883   2.146   0.109  0.00  0.00    +0.127 A 
ATOM      3  C   UNL     1       1.267   3.148  -0.759  0.00  0.00    +0.140 A 
ATOM      4  C   UNL     1       0.363   3.570  -1.752  0.00  0.00    +0.277 A 
ATOM      5  O   UNL     1       0.676   4.453  -2.532  0.00  0.00    -0.266 OA
ATOM      6  N   UNL     1      -0.852   2.992  -1.834  0.00  0.00    -0.273 N 
ATOM      7  H   UNL     1      -1.494   3.289  -2.541  0.00  0.00    +0.173 HD
ATOM      8  C   UNL     1      -1.211   2.021  -0.976  0.00  0.00    +0.331 A 
ATOM      9  O   UNL     1      -2.315   1.520  -1.069  0.00  0.00    -0.246 OA
ENDROOT
BRANCH   3  10
ATOM     10  N   UNL     1       2.544   3.737  -0.654  0.00  0.00    -0.260 N 
ATOM     11  C   UNL     1       2.659   5.067  -0.466  0.00  0.00    +0.253 C 
ATOM     12  O   UNL     1       3.760   5.578  -0.393  0.00  0.00    -0.270 OA
BRANCH  11  13
ATOM     13  C   UNL     1       1.447   5.904  -0.347  0.00  0.00    +0.058 A 
ATOM     14  C   UNL     1       0.244   5.338   0.080  0.00  0.00    +0.054 A 
ATOM     15  C   UNL     1      -0.884   6.126   0.194  0.00  0.00    +0.142 A 
ATOM     16  C   UNL     1      -0.825   7.475  -0.126  0.00  0.00    +0.077 A 
ATOM     17  C   UNL     1       0.363   8.040  -0.556  0.00  0.00    +0.043 A 
ATOM     18  C   UNL     1       1.499   7.262  -0.668  0.00  0.00    +0.055 A 
ATOM     19 CL   UNL     1       2.988   7.972  -1.207  0.00  0.00    -0.083 Cl
ATOM     20 CL   UNL     1      -2.249   8.459   0.013  0.00  0.00    -0.081 Cl
ATOM     21  F   UNL     1      -2.047   5.582   0.613  0.00  0.00    -0.204 F 
ENDBRANCH  11  13
BRANCH  10  22
ATOM     22  C   UNL     1       3.745   2.905  -0.750  0.00  0.00    +0.114 C 
BRANCH  22  23
ATOM     23  C   UNL     1       4.192   2.821  -2.211  0.00  0.00    +0.019 C 
BRANCH  23  24
ATOM     24  C   UNL     1       5.447   1.951  -2.311  0.00  0.00    -0.002 C 
ATOM     25  C   UNL     1       5.894   1.867  -3.772  0.00  0.00    +0.004 C 
ENDBRANCH  23  24
ENDBRANCH  22  23
ENDBRANCH  10  22
ENDBRANCH   3  10
BRANCH   2  26
ATOM     26  N   UNL     1       1.741   1.710   1.090  0.00  0.00    -0.343 N 
ATOM     27  H   UNL     1       2.557   2.200   1.274  0.00  0.00    +0.144 HD
ATOM     28  H   UNL     1       1.530   0.910   1.598  0.00  0.00    +0.144 HD
ENDBRANCH   2  26
BRANCH   1  29
ATOM     29  C   UNL     1      -0.790   0.527   0.896  0.00  0.00    +0.128 C 
BRANCH  29  30
ATOM     30  C   UNL     1      -1.469   1.145   2.120  0.00  0.00    +0.021 C 
BRANCH  30  32
ATOM     31  C   UNL     1      -2.587   0.653   4.300  0.00  0.00    +0.004 C 
ATOM     32  C   UNL     1      -1.908   0.035   3.076  0.00  0.00    -0.002 C 
ENDBRANCH  30  32
ENDBRANCH  29  30
ENDBRANCH   1  29
TORSDOF 9
