REMARK  Name = ZINC22936792
REMARK  10 active torsions:
REMARK  status: ('A' for Active; 'I' for Inactive)
REMARK    1  A    between atoms: C_4  and  C_7
REMARK    2  A    between atoms: C_7  and  N_8
REMARK    3  A    between atoms: C_9  and  C_11
REMARK    4  A    between atoms: C_11  and  C_12
REMARK    5  A    between atoms: C_12  and  C_13
REMARK    6  A    between atoms: C_23  and  N_26
REMARK    7  A    between atoms: N_26  and  C_27
REMARK    8  A    between atoms: C_27  and  C_28
REMARK    9  A    between atoms: C_31  and  C_33
REMARK   10  A    between atoms: C_33  and  O_34
REMARK                            x       y       z     vdW  Elec       q    Type
REMARK                         _______ _______ _______ _____ _____    ______ ____
ROOT
ATOM      1  C   UNL     1       7.634  -2.946   4.357  0.00  0.00    -0.050 C 
ATOM      2  C   UNL     1       9.046  -3.539   4.240  0.00  0.00    +0.089 C 
ATOM      3  N   UNL     1       9.424  -4.293   5.429  0.00  0.00    -0.318 N 
ATOM      4  C   UNL     1       8.578  -4.612   6.429  0.00  0.00    +0.200 C 
ATOM      5  O   UNL     1       8.940  -5.332   7.336  0.00  0.00    -0.278 OA
ATOM      6  C   UNL     1       7.188  -4.065   6.402  0.00  0.00    +0.021 C 
ATOM      7  N   UNL     1       6.788  -3.952   4.974  0.00  0.00    +0.391 N 
ATOM      8  C   UNL     1       5.348  -3.710   5.001  0.00  0.00    -0.059 C 
ATOM      9  C   UNL     1       4.826  -4.447   6.262  0.00  0.00    +0.036 C 
ATOM     10  C   UNL     1       6.106  -4.987   6.983  0.00  0.00    +0.010 C 
ATOM     11  H   UNL     1      10.345  -4.585   5.506  0.00  0.00    +0.149 HD
ATOM     12  H   UNL     1       6.948  -4.840   4.522  0.00  0.00    -0.080 HD
ENDROOT
BRANCH   9  13
ATOM     13  N   UNL     1       3.940  -5.553   5.876  0.00  0.00    -0.308 NA
ATOM     14  H   UNL     1       3.450  -5.343   5.020  0.00  0.00    +0.123 HD
BRANCH  13  15
ATOM     15  C   UNL     1       2.998  -5.875   6.957  0.00  0.00    +0.156 C 
BRANCH  15  16
ATOM     16  C   UNL     1       2.108  -7.012   6.526  0.00  0.00    +0.119 A 
ATOM     17  C   UNL     1       2.356  -8.320   6.716  0.00  0.00    +0.046 A 
ATOM     18  C   UNL     1       1.266  -9.029   6.159  0.00  0.00    +0.047 A 
ATOM     19  C   UNL     1       0.418  -8.111   5.662  0.00  0.00    +0.131 A 
ATOM     20  O   UNL     1       0.930  -6.891   5.892  0.00  0.00    -0.461 OA
BRANCH  19  21
ATOM     21  C   UNL     1      -0.888  -8.402   4.968  0.00  0.00    +0.230 C 
BRANCH  21  22
ATOM     22  O   UNL     1      -1.941  -8.443   5.934  0.00  0.00    -0.387 OA
ATOM     23  H   UNL     1      -2.812  -8.626   5.558  0.00  0.00    +0.210 HD
ENDBRANCH  21  22
ENDBRANCH  19  21
ENDBRANCH  15  16
ENDBRANCH  13  15
ENDBRANCH   9  13
BRANCH   1  24
ATOM     24  C   UNL     1       7.099  -2.600   2.966  0.00  0.00    -0.005 C 
BRANCH  24  25
ATOM     25  C   UNL     1       7.917  -1.448   2.378  0.00  0.00    +0.094 C 
BRANCH  25  27
ATOM     26  N   UNL     1       7.875  -0.022   0.357  0.00  0.00    -0.311 N 
ATOM     27  C   UNL     1       7.317  -1.027   1.061  0.00  0.00    +0.213 C 
ATOM     28  O   UNL     1       6.332  -1.592   0.635  0.00  0.00    -0.276 OA
ATOM     29  H   UNL     1       8.662   0.430   0.698  0.00  0.00    +0.149 HD
BRANCH  26  30
ATOM     30  C   UNL     1       7.291   0.387  -0.923  0.00  0.00    +0.139 C 
BRANCH  30  34
ATOM     31  C   UNL     1       9.573   3.602  -2.567  0.00  0.00    +0.000 A 
ATOM     32  C   UNL     1       9.903   2.295  -2.870  0.00  0.00    +0.000 A 
ATOM     33  C   UNL     1       9.165   1.254  -2.338  0.00  0.00    +0.005 A 
ATOM     34  C   UNL     1       8.097   1.522  -1.502  0.00  0.00    -0.030 A 
ATOM     35  C   UNL     1       7.767   2.829  -1.198  0.00  0.00    +0.005 A 
ATOM     36  C   UNL     1       8.505   3.870  -1.731  0.00  0.00    +0.000 A 
ENDBRANCH  30  34
ENDBRANCH  26  30
ENDBRANCH  25  27
ENDBRANCH  24  25
ENDBRANCH   1  24
TORSDOF 10
