REMARK  Name = ZINC39912384
REMARK  12 active torsions:
REMARK  status: ('A' for Active; 'I' for Inactive)
REMARK    1  A    between atoms: C_1  and  C_2
REMARK    2  A    between atoms: C_2  and  C_3
REMARK    3  A    between atoms: C_3  and  O_4
REMARK    4  A    between atoms: O_4  and  C_5
REMARK    5  A    between atoms: C_9  and  C_11
REMARK    6  A    between atoms: C_14  and  C_30
REMARK    7  A    between atoms: N_21  and  C_22
REMARK    8  A    between atoms: C_22  and  C_23
REMARK    9  A    between atoms: C_26  and  C_29
REMARK   10  A    between atoms: C_32  and  C_38
REMARK   11  A    between atoms: C_34  and  C_37
REMARK   12  A    between atoms: C_35  and  O_36
REMARK                            x       y       z     vdW  Elec       q    Type
REMARK                         _______ _______ _______ _____ _____    ______ ____
ROOT
ATOM      1  C   UNL     1       2.075  -5.996  -3.569  0.00  0.00    +0.142 C 
ATOM      2  C   UNL     1       3.458  -6.499  -3.255  0.00  0.00    +0.035 A 
ATOM      3  C   UNL     1       4.498  -6.587  -2.323  0.00  0.00    +0.102 A 
ATOM      4  N   UNL     1       5.475  -7.270  -2.886  0.00  0.00    -0.173 NA
ATOM      5  N   UNL     1       5.155  -7.622  -4.080  0.00  0.00    -0.272 N 
ATOM      6  H   UNL     1       5.721  -8.133  -4.681  0.00  0.00    +0.189 HD
ATOM      7  C   UNL     1       3.901  -7.171  -4.378  0.00  0.00    +0.126 A 
ATOM      8  C   UNL     1       2.849  -7.115  -5.400  0.00  0.00    +0.266 C 
ATOM      9  O   UNL     1       2.930  -7.614  -6.506  0.00  0.00    -0.268 OA
ATOM     10  N   UNL     1       1.783  -6.435  -4.939  0.00  0.00    -0.281 N 
ENDROOT
BRANCH   3  11
ATOM     11  C   UNL     1       4.500  -6.016  -0.953  0.00  0.00    +0.044 A 
ATOM     12  C   UNL     1       3.349  -5.424  -0.440  0.00  0.00    +0.017 A 
ATOM     13  C   UNL     1       3.357  -4.894   0.834  0.00  0.00    -0.049 A 
ATOM     14  C   UNL     1       4.505  -4.949   1.605  0.00  0.00    +0.010 A 
ATOM     15  C   UNL     1       5.652  -5.534   1.105  0.00  0.00    -0.008 A 
ATOM     16  C   UNL     1       5.657  -6.075  -0.171  0.00  0.00    +0.129 A 
ATOM     17  C   UNL     1       6.899  -5.590   1.951  0.00  0.00    +0.047 C 
ATOM     18  C   UNL     1       2.110  -4.253   1.388  0.00  0.00    +0.044 C 
BRANCH  16  19
ATOM     19  O   UNL     1       6.782  -6.657  -0.661  0.00  0.00    -0.506 OA
ATOM     20  H   UNL     1       7.369  -6.046  -1.128  0.00  0.00    +0.292 HD
ENDBRANCH  16  19
ENDBRANCH   3  11
BRANCH   1  25
ATOM     21  C   UNL     1       1.228  -2.486  -2.456  0.00  0.00    +0.121 A 
ATOM     22  C   UNL     1       1.980  -1.728  -3.343  0.00  0.00    +0.045 A 
ATOM     23  C   UNL     1       2.757  -2.353  -4.297  0.00  0.00    +0.004 A 
ATOM     24  C   UNL     1       2.788  -3.734  -4.369  0.00  0.00    +0.006 A 
ATOM     25  C   UNL     1       2.040  -4.491  -3.487  0.00  0.00    -0.019 A 
ATOM     26  C   UNL     1       1.265  -3.870  -2.527  0.00  0.00    +0.051 A 
BRANCH  21  27
ATOM     27  O   UNL     1       0.462  -1.872  -1.516  0.00  0.00    -0.492 OA
BRANCH  27  28
ATOM     28  C   UNL     1       0.473  -0.443  -1.501  0.00  0.00    +0.229 C 
BRANCH  28  30
ATOM     29  C   UNL     1      -0.429   1.593  -0.368  0.00  0.00    +0.007 C 
ATOM     30  C   UNL     1      -0.441   0.063  -0.384  0.00  0.00    +0.038 C 
ENDBRANCH  28  30
ENDBRANCH  27  28
ENDBRANCH  21  27
ENDBRANCH   1  25
BRANCH  10  31
ATOM     31  C   UNL     1       0.544  -6.176  -5.678  0.00  0.00    +0.144 C 
BRANCH  31  32
ATOM     32  C   UNL     1       0.672  -4.879  -6.435  0.00  0.00    -0.030 A 
ATOM     33  C   UNL     1       0.299  -3.690  -5.838  0.00  0.00    +0.005 A 
ATOM     34  C   UNL     1       0.417  -2.501  -6.533  0.00  0.00    +0.003 A 
ATOM     35  C   UNL     1       0.908  -2.501  -7.825  0.00  0.00    -0.050 A 
ATOM     36  C   UNL     1       1.282  -3.691  -8.422  0.00  0.00    +0.003 A 
ATOM     37  C   UNL     1       1.169  -4.879  -7.725  0.00  0.00    +0.005 A 
ATOM     38  C   UNL     1       1.036  -1.205  -8.583  0.00  0.00    +0.044 C 
ENDBRANCH  31  32
ENDBRANCH  10  31
TORSDOF 8
