REMARK  Name = ZINC39935965
REMARK  10 active torsions:
REMARK  status: ('A' for Active; 'I' for Inactive)
REMARK    1  A    between atoms: C_1  and  C_2
REMARK    2  A    between atoms: C_2  and  C_4
REMARK    3  A    between atoms: C_2  and  N_32
REMARK    4  A    between atoms: C_8  and  S_17
REMARK    5  A    between atoms: N_9  and  C_10
REMARK    6  A    between atoms: S_17  and  C_18
REMARK    7  A    between atoms: C_18  and  C_19
REMARK    8  A    between atoms: C_19  and  C_21
REMARK    9  A    between atoms: N_32  and  C_33
REMARK   10  A    between atoms: N_32  and  C_34
REMARK                            x       y       z     vdW  Elec       q    Type
REMARK                         _______ _______ _______ _____ _____    ______ ____
ROOT
ATOM      1  C   UNL     1       0.735  -0.490   1.229  0.00  0.00    +0.168 C 
ATOM      2  N   UNL     1       0.115   0.028   2.461  0.00  0.00    -0.248 N 
ATOM      3  N   UNL     1       1.107   0.768   3.115  0.00  0.00    -0.162 NA
ATOM      4  C   UNL     1       2.215   0.763   2.453  0.00  0.00    +0.180 C 
ATOM      5  N   UNL     1       2.114   0.024   1.279  0.00  0.00    -0.260 N 
ATOM      6  H   UNL     1      -0.797  -0.115   2.759  0.00  0.00    +0.170 HD
ENDROOT
BRANCH   5   7
ATOM      7  C   UNL     1       3.120  -0.190   0.333  0.00  0.00    +0.037 A 
ATOM      8  C   UNL     1       3.614   0.875  -0.410  0.00  0.00    +0.025 A 
ATOM      9  C   UNL     1       4.608   0.662  -1.345  0.00  0.00    +0.022 A 
ATOM     10  C   UNL     1       5.113  -0.612  -1.541  0.00  0.00    +0.041 A 
ATOM     11  C   UNL     1       4.622  -1.675  -0.802  0.00  0.00    +0.022 A 
ATOM     12  C   UNL     1       3.633  -1.466   0.138  0.00  0.00    +0.025 A 
ATOM     13 CL   UNL     1       6.363  -0.877  -2.716  0.00  0.00    -0.084 Cl
ENDBRANCH   5   7
BRANCH   1  15
ATOM     14  C   UNL     1       0.008   1.577   0.027  0.00  0.00    -0.010 C 
ATOM     15  C   UNL     1       0.006   0.047  -0.005  0.00  0.00    -0.032 C 
BRANCH  15  16
ATOM     16  N   UNL     1      -1.379  -0.441  -0.007  0.00  0.00    +0.380 N 
ATOM     17  C   UNL     1      -2.078   0.074  -1.192  0.00  0.00    -0.096 C 
ATOM     18  C   UNL     1      -1.381  -1.910  -0.038  0.00  0.00    -0.096 C 
ATOM     19  H   UNL     1      -1.849  -0.122   0.827  0.00  0.00    -0.082 HD
ENDBRANCH  15  16
ENDBRANCH   1  15
BRANCH   4  20
ATOM     20  S   UNL     1       3.680   1.591   2.974  0.00  0.00    -0.081 S 
BRANCH  20  21
ATOM     21  C   UNL     1       3.212   2.365   4.546  0.00  0.00    +0.156 C 
BRANCH  21  22
ATOM     22  C   UNL     1       4.392   3.115   5.108  0.00  0.00    +0.173 C 
ATOM     23  O   UNL     1       5.445   3.128   4.506  0.00  0.00    -0.291 OA
BRANCH  22  24
ATOM     24  C   UNL     1       4.266   3.833   6.383  0.00  0.00    +0.022 A 
ATOM     25  C   UNL     1       3.052   3.814   7.082  0.00  0.00    +0.013 A 
ATOM     26  C   UNL     1       2.932   4.481   8.268  0.00  0.00    +0.030 A 
ATOM     27  C   UNL     1       4.014   5.180   8.788  0.00  0.00    +0.087 A 
ATOM     28  C   UNL     1       5.232   5.207   8.102  0.00  0.00    +0.157 A 
ATOM     29  C   UNL     1       5.361   4.530   6.905  0.00  0.00    +0.060 A 
ATOM     30  O   UNL     1       6.091   5.956   8.838  0.00  0.00    -0.408 OA
ATOM     31  C   UNL     1       5.460   6.390   9.940  0.00  0.00    +0.419 A 
ATOM     32  O   UNL     1       5.957   7.086  10.804  0.00  0.00    -0.223 OA
ATOM     33  N   UNL     1       4.192   5.935   9.941  0.00  0.00    -0.288 N 
ATOM     34  H   UNL     1       3.524   6.104  10.624  0.00  0.00    +0.172 HD
ENDBRANCH  22  24
ENDBRANCH  21  22
ENDBRANCH  20  21
ENDBRANCH   4  20
TORSDOF 7
