REMARK  Name = ZINC04459060
REMARK  4 active torsions:
REMARK  status: ('A' for Active; 'I' for Inactive)
REMARK    1  A    between atoms: C_8  and  N_9
REMARK    2  A    between atoms: N_9  and  O_10
REMARK    3  A    between atoms: O_10  and  C_11
REMARK    4  A    between atoms: N_13  and  C_14
REMARK                            x       y       z     vdW  Elec       q    Type
REMARK                         _______ _______ _______ _____ _____    ______ ____
ROOT
ATOM      1  N   UNL     1      -0.527  -3.034   0.430  0.00  0.00    -0.223 N 
ATOM      2  H   UNL     1      -0.915  -2.154   0.550  0.00  0.00    +0.207 HD
ENDROOT
BRANCH   1  10
ATOM      3  C   UNL     1      -0.013   1.370   0.906  0.00  0.00    +0.001 A 
ATOM      4  C   UNL     1       1.174   2.079   1.034  0.00  0.00    +0.002 A 
ATOM      5  C   UNL     1       2.381   1.443   0.985  0.00  0.00    +0.028 A 
ATOM      6  C   UNL     1       2.435   0.056   0.803  0.00  0.00    +0.072 A 
ATOM      7  C   UNL     1       1.226  -0.663   0.674  0.00  0.00    +0.010 A 
ATOM      8  C   UNL     1       0.007   0.004   0.726  0.00  0.00    +0.011 A 
ATOM      9  C   UNL     1       1.630  -2.070   0.500  0.00  0.00    +0.021 C 
ATOM     10  C   UNL     1       0.804  -3.172   0.331  0.00  0.00    +0.130 C 
ATOM     11  C   UNL     1       3.044  -2.052   0.543  0.00  0.00    +0.121 C 
ATOM     12  N   UNL     1       3.459  -0.824   0.717  0.00  0.00    -0.254 NA
ENDBRANCH   1  10
BRANCH   1  13
ATOM     13  O   UNL     1      -1.364  -4.174   0.358  0.00  0.00    -0.325 OA
BRANCH  13  14
ATOM     14  C   UNL     1      -2.675  -3.897   0.471  0.00  0.00    +0.428 C 
ATOM     15  O   UNL     1      -3.043  -2.749   0.620  0.00  0.00    -0.224 OA
ATOM     16  N   UNL     1      -3.580  -4.894   0.420  0.00  0.00    -0.249 N 
ATOM     17  H   UNL     1      -3.284  -5.817   0.377  0.00  0.00    +0.158 HD
BRANCH  16  18
ATOM     18  C   UNL     1      -4.948  -4.598   0.428  0.00  0.00    +0.037 A 
ATOM     19  C   UNL     1      -5.412  -3.438  -0.178  0.00  0.00    +0.025 A 
ATOM     20  C   UNL     1      -6.763  -3.148  -0.169  0.00  0.00    +0.022 A 
ATOM     21  C   UNL     1      -7.653  -4.012   0.444  0.00  0.00    +0.041 A 
ATOM     22  C   UNL     1      -7.193  -5.168   1.049  0.00  0.00    +0.022 A 
ATOM     23  C   UNL     1      -5.845  -5.466   1.037  0.00  0.00    +0.025 A 
ATOM     24 CL   UNL     1      -9.350  -3.644   0.454  0.00  0.00    -0.084 Cl
ENDBRANCH  16  18
ENDBRANCH  13  14
ENDBRANCH   1  13
TORSDOF 4
