REMARK  Name = ZINC59170416
REMARK  8 active torsions:
REMARK  status: ('A' for Active; 'I' for Inactive)
REMARK    1  A    between atoms: C_1  and  C_2
REMARK    2  A    between atoms: C_5  and  N_8
REMARK    3  A    between atoms: C_9  and  C_11
REMARK    4  A    between atoms: C_15  and  N_33
REMARK    5  A    between atoms: N_21  and  N_22
REMARK    6  A    between atoms: N_22  and  S_23
REMARK    7  A    between atoms: S_23  and  C_26
REMARK    8  A    between atoms: C_29  and  C_32
REMARK                            x       y       z     vdW  Elec       q    Type
REMARK                         _______ _______ _______ _____ _____    ______ ____
ROOT
ATOM      1  C   UNL     1       0.575  -6.421   1.364  0.00  0.00    +0.099 A 
ATOM      2  C   UNL     1       0.535  -7.062   2.619  0.00  0.00    +0.030 A 
ATOM      3  C   UNL     1       0.282  -8.440   2.646  0.00  0.00    +0.020 A 
ATOM      4  C   UNL     1       0.223  -9.161   3.854  0.00  0.00    +0.044 A 
ATOM      5  C   UNL     1      -0.026 -10.498   3.823  0.00  0.00    +0.127 A 
ATOM      6  C   UNL     1      -0.224 -11.172   2.620  0.00  0.00    +0.036 A 
ATOM      7  C   UNL     1      -0.177 -10.517   1.411  0.00  0.00    +0.049 A 
ATOM      8  C   UNL     1       0.074  -9.147   1.380  0.00  0.00    +0.138 A 
ATOM      9  O   UNL     1       0.127  -8.471   0.223  0.00  0.00    -0.437 OA
ATOM     10  C   UNL     1       0.363  -7.154   0.198  0.00  0.00    +0.225 A 
ATOM     11  N   UNL     1       0.402  -6.512  -1.005  0.00  0.00    -0.260 N 
ATOM     12  H   UNL     1       0.500  -5.547  -1.037  0.00  0.00    +0.189 HD
ENDROOT
BRANCH   1  14
ATOM     13  N   UNL     1       2.102  -4.503   1.366  0.00  0.00    -0.281 N 
ATOM     14  C   UNL     1       0.838  -4.965   1.284  0.00  0.00    +0.253 C 
ATOM     15  O   UNL     1      -0.085  -4.187   1.146  0.00  0.00    -0.270 OA
ATOM     16  H   UNL     1       2.846  -5.125   1.379  0.00  0.00    +0.155 HD
BRANCH  13  21
ATOM     17  C   UNL     1       3.069   1.079   1.631  0.00  0.00    +0.044 C 
ATOM     18  C   UNL     1       2.812  -0.404   1.560  0.00  0.00    -0.050 A 
ATOM     19  C   UNL     1       3.806  -1.294   1.925  0.00  0.00    +0.005 A 
ATOM     20  C   UNL     1       3.574  -2.654   1.861  0.00  0.00    +0.023 A 
ATOM     21  C   UNL     1       2.340  -3.127   1.431  0.00  0.00    +0.034 A 
ATOM     22  C   UNL     1       1.344  -2.230   1.067  0.00  0.00    +0.023 A 
ATOM     23  C   UNL     1       1.581  -0.871   1.137  0.00  0.00    +0.005 A 
ENDBRANCH  13  21
ENDBRANCH   1  14
BRANCH   5  24
ATOM     24  N   UNL     1      -0.086 -11.254   5.095  0.00  0.00    +0.056 N 
ATOM     25  O   UNL     1       0.100 -10.631   6.240  0.00  0.00    -0.126 OA
ATOM     26  O   UNL     1      -0.326 -12.549   5.081  0.00  0.00    -0.126 OA
ENDBRANCH   5  24
BRANCH  11  27
ATOM     27  N   UNL     1       0.307  -7.186  -2.101  0.00  0.00    -0.157 N 
ATOM     28  H   UNL     1       0.135  -8.140  -2.069  0.00  0.00    +0.194 HD
BRANCH  27  29
ATOM     29  S   UNL     1       0.481  -6.424  -3.561  0.00  0.00    +0.085 S 
ATOM     30  O   UNL     1       0.642  -7.446  -4.535  0.00  0.00    -0.149 OA
ATOM     31  O   UNL     1      -0.554  -5.454  -3.638  0.00  0.00    -0.149 OA
BRANCH  29  32
ATOM     32  C   UNL     1       2.002  -5.535  -3.506  0.00  0.00    +0.110 A 
ATOM     33  C   UNL     1       2.042  -4.268  -2.956  0.00  0.00    +0.029 A 
ATOM     34  C   UNL     1       3.235  -3.571  -2.913  0.00  0.00    +0.005 A 
ATOM     35  C   UNL     1       4.388  -4.141  -3.421  0.00  0.00    -0.050 A 
ATOM     36  C   UNL     1       4.347  -5.409  -3.970  0.00  0.00    +0.005 A 
ATOM     37  C   UNL     1       3.155  -6.108  -4.009  0.00  0.00    +0.029 A 
ATOM     38  C   UNL     1       5.688  -3.380  -3.376  0.00  0.00    +0.044 C 
ENDBRANCH  29  32
ENDBRANCH  27  29
ENDBRANCH  11  27
TORSDOF 6
