REMARK  Name = ZINC35379216
REMARK  8 active torsions:
REMARK  status: ('A' for Active; 'I' for Inactive)
REMARK    1  A    between atoms: C_1  and  C_2
REMARK    2  A    between atoms: C_7  and  S_8
REMARK    3  A    between atoms: S_8  and  N_11
REMARK    4  A    between atoms: C_15  and  C_18
REMARK    5  A    between atoms: N_20  and  C_21
REMARK    6  A    between atoms: C_21  and  C_22
REMARK    7  A    between atoms: C_22  and  N_23
REMARK    8  A    between atoms: C_31  and  C_36
REMARK                            x       y       z     vdW  Elec       q    Type
REMARK                         _______ _______ _______ _____ _____    ______ ____
ROOT
ATOM      1  N   UNL     1       1.777   1.192   2.765  0.00  0.00    -0.176 NA
ATOM      2  C   UNL     1       3.104   0.608   3.002  0.00  0.00    +0.109 C 
ATOM      3  C   UNL     1       3.974   0.841   1.762  0.00  0.00    +0.018 C 
ATOM      4  C   UNL     1       3.995   2.336   1.433  0.00  0.00    +0.015 C 
ATOM      5  C   UNL     1       2.574   2.812   1.123  0.00  0.00    +0.091 C 
ATOM      6  C   UNL     1       1.689   2.599   2.349  0.00  0.00    +0.122 C 
ENDROOT
BRANCH   5   7
ATOM      7  C   UNL     1       2.600   4.276   0.767  0.00  0.00    +0.217 C 
ATOM      8  O   UNL     1       1.971   5.073   1.431  0.00  0.00    -0.275 OA
ATOM      9  N   UNL     1       3.323   4.700  -0.289  0.00  0.00    -0.317 N 
ATOM     10  H   UNL     1       3.826   4.062  -0.819  0.00  0.00    +0.149 HD
BRANCH   9  11
ATOM     11  C   UNL     1       3.349   6.123  -0.635  0.00  0.00    +0.085 C 
BRANCH  11  12
ATOM     12  C   UNL     1       4.236   6.333  -1.863  0.00  0.00    -0.060 C 
BRANCH  12  13
ATOM     13  N   UNL     1       4.156   7.736  -2.291  0.00  0.00    +0.381 N 
ATOM     14  C   UNL     1       4.819   7.870  -3.603  0.00  0.00    -0.079 C 
ATOM     15  C   UNL     1       4.243   9.074  -4.304  0.00  0.00    -0.019 C 
ATOM     16  C   UNL     1       5.120  10.323  -4.091  0.00  0.00    -0.002 C 
ATOM     17  C   UNL     1       5.644  10.414  -2.644  0.00  0.00    -0.002 C 
ATOM     18  C   UNL     1       4.594  10.041  -1.628  0.00  0.00    -0.019 C 
ATOM     19  C   UNL     1       4.723   8.539  -1.300  0.00  0.00    -0.079 C 
ATOM     20  H   UNL     1       3.184   7.987  -2.394  0.00  0.00    -0.082 HD
ENDBRANCH  12  13
ENDBRANCH  11  12
ENDBRANCH   9  11
ENDBRANCH   5   7
BRANCH   1  21
ATOM     21  S   UNL     1       0.408   0.281   2.958  0.00  0.00    +0.061 S 
ATOM     22  O   UNL     1      -0.669   1.196   3.116  0.00  0.00    -0.153 OA
ATOM     23  O   UNL     1       0.713  -0.711   3.928  0.00  0.00    -0.153 OA
BRANCH  21  30
ATOM     24  C   UNL     1      -0.439   1.635   0.395  0.00  0.00    +0.046 C 
ATOM     25  C   UNL     1      -0.258   0.141   0.316  0.00  0.00    -0.022 A 
ATOM     26  C   UNL     1      -0.473  -0.517  -0.881  0.00  0.00    +0.032 A 
ATOM     27  C   UNL     1      -0.306  -1.890  -0.952  0.00  0.00    +0.076 A 
ATOM     28  C   UNL     1       0.077  -2.605   0.182  0.00  0.00    +0.145 A 
ATOM     29  C   UNL     1       0.291  -1.939   1.376  0.00  0.00    +0.076 A 
ATOM     30  C   UNL     1       0.129  -0.567   1.439  0.00  0.00    +0.112 A 
ATOM     31  O   UNL     1       0.235  -3.953   0.102  0.00  0.00    -0.478 OA
ATOM     32  C   UNL     1      -0.623  -4.648  -0.807  0.00  0.00    +0.256 C 
ATOM     33  C   UNL     1      -0.658  -3.920  -2.127  0.00  0.00    +0.258 C 
ATOM     34  O   UNL     1      -0.813  -4.539  -3.159  0.00  0.00    -0.271 OA
ATOM     35  N   UNL     1      -0.518  -2.577  -2.156  0.00  0.00    -0.280 N 
ATOM     36  C   UNL     1      -0.095  -6.067  -1.022  0.00  0.00    +0.062 C 
ATOM     37  H   UNL     1      -0.564  -2.095  -2.996  0.00  0.00    +0.155 HD
ENDBRANCH  21  30
ENDBRANCH   1  21
TORSDOF 6
