REMARK  Name = ZINC18185869
REMARK  8 active torsions:
REMARK  status: ('A' for Active; 'I' for Inactive)
REMARK    1  A    between atoms: C_3  and  C_6
REMARK    2  A    between atoms: C_6  and  C_8
REMARK    3  A    between atoms: C_6  and  N_57
REMARK    4  A    between atoms: C_8  and  N_9
REMARK    5  A    between atoms: C_10  and  C_12
REMARK    6  A    between atoms: C_12  and  C_13
REMARK    7  A    between atoms: C_13  and  C_14
REMARK    8  A    between atoms: C_14  and  N_15
REMARK                            x       y       z     vdW  Elec       q    Type
REMARK                         _______ _______ _______ _____ _____    ______ ____
ROOT
ATOM      1  N   UNL     1      -1.110   1.417  -1.154  0.00  0.00    -0.316 N 
ATOM      2  C   UNL     1      -0.789   1.139  -2.433  0.00  0.00    +0.213 C 
ATOM      3  O   UNL     1       0.257   0.583  -2.689  0.00  0.00    -0.276 OA
ATOM      4  H   UNL     1      -1.947   1.862  -0.949  0.00  0.00    +0.149 HD
ENDROOT
BRANCH   1   5
ATOM      5  C   UNL     1      -0.195   1.045  -0.072  0.00  0.00    +0.096 C 
BRANCH   5   6
ATOM      6  C   UNL     1      -0.848   1.353   1.277  0.00  0.00    +0.016 C 
BRANCH   6  12
ATOM      7  C   UNL     1      -0.133   3.658   1.092  0.00  0.00    -0.078 C 
ATOM      8  C   UNL     1      -0.632   5.101   0.983  0.00  0.00    -0.019 C 
ATOM      9  C   UNL     1      -1.371   5.479   2.271  0.00  0.00    -0.004 C 
ATOM     10  C   UNL     1      -2.524   4.497   2.495  0.00  0.00    -0.019 C 
ATOM     11  C   UNL     1      -1.970   3.072   2.560  0.00  0.00    -0.078 C 
ATOM     12  N   UNL     1      -1.292   2.762   1.283  0.00  0.00    +0.387 N 
ATOM     13  H   UNL     1      -1.955   2.906   0.511  0.00  0.00    -0.081 HD
ENDBRANCH   6  12
BRANCH   6  16
ATOM     14  C   UNL     1      -3.394  -1.177   2.111  0.00  0.00    +0.041 A 
ATOM     15  C   UNL     1      -2.081  -0.662   2.209  0.00  0.00    +0.043 A 
ATOM     16  C   UNL     1      -2.047   0.461   1.470  0.00  0.00    +0.093 A 
ATOM     17  O   UNL     1      -3.264   0.655   0.937  0.00  0.00    -0.469 OA
ATOM     18  C   UNL     1      -4.084  -0.338   1.318  0.00  0.00    +0.195 A 
ENDBRANCH   6  16
ENDBRANCH   5   6
ENDBRANCH   1   5
BRANCH   2  19
ATOM     19  C   UNL     1      -1.731   1.521  -3.546  0.00  0.00    +0.097 C 
BRANCH  19  20
ATOM     20  C   UNL     1      -1.133   1.097  -4.888  0.00  0.00    +0.029 C 
BRANCH  20  21
ATOM     21  C   UNL     1      -2.089   1.485  -6.018  0.00  0.00    +0.117 C 
BRANCH  21  22
ATOM     22  N   UNL     1      -1.516   1.079  -7.304  0.00  0.00    -0.234 N 
ATOM     23  C   UNL     1      -0.720   1.854  -8.062  0.00  0.00    +0.254 C 
ATOM     24  O   UNL     1      -0.369   2.985  -7.793  0.00  0.00    -0.270 OA
ATOM     25  C   UNL     1      -0.344   1.100  -9.275  0.00  0.00    +0.049 A 
ATOM     26  C   UNL     1       0.438   1.379 -10.385  0.00  0.00    +0.015 A 
ATOM     27  C   UNL     1       0.588   0.425 -11.378  0.00  0.00    +0.016 A 
ATOM     28  C   UNL     1      -0.038  -0.804 -11.270  0.00  0.00    +0.019 A 
ATOM     29  C   UNL     1      -0.824  -1.097 -10.165  0.00  0.00    +0.029 A 
ATOM     30  C   UNL     1      -0.982  -0.152  -9.164  0.00  0.00    +0.050 A 
ATOM     31  C   UNL     1      -1.721  -0.118  -7.885  0.00  0.00    +0.254 C 
ATOM     32  O   UNL     1      -2.399  -1.018  -7.433  0.00  0.00    -0.270 OA
ATOM     33 BR   UNL     1       0.178  -2.092 -12.638  0.00  0.00    -0.050 Br
ENDBRANCH  21  22
ENDBRANCH  20  21
ENDBRANCH  19  20
ENDBRANCH   2  19
TORSDOF 8
