REMARK  Name = ZINC16485565
REMARK  8 active torsions:
REMARK  status: ('A' for Active; 'I' for Inactive)
REMARK    1  A    between atoms: C_1  and  O_2
REMARK    2  A    between atoms: O_2  and  C_3
REMARK    3  A    between atoms: C_8  and  N_9
REMARK    4  A    between atoms: C_10  and  S_14
REMARK    5  A    between atoms: S_14  and  C_15
REMARK    6  A    between atoms: C_15  and  C_16
REMARK    7  A    between atoms: N_18  and  C_19
REMARK    8  A    between atoms: C_20  and  C_29
REMARK                            x       y       z     vdW  Elec       q    Type
REMARK                         _______ _______ _______ _____ _____    ______ ____
ROOT
ATOM      1  C   UNL     1      -0.349   2.114  -1.177  0.00  0.00    +0.228 C 
ATOM      2  O   UNL     1      -1.307   2.847  -1.050  0.00  0.00    -0.275 OA
ATOM      3  N   UNL     1       0.166   1.885  -2.401  0.00  0.00    -0.278 N 
ATOM      4  H   UNL     1       0.932   1.298  -2.503  0.00  0.00    +0.155 HD
ENDROOT
BRANCH   3   5
ATOM      5  C   UNL     1      -0.398   2.489  -3.516  0.00  0.00    +0.090 A 
ATOM      6  C   UNL     1      -0.011   2.382  -4.842  0.00  0.00    +0.084 A 
ATOM      7  C   UNL     1      -0.780   3.119  -5.835  0.00  0.00    -0.018 A 
ATOM      8  C   UNL     1      -1.799   3.853  -5.335  0.00  0.00    -0.004 A 
ATOM      9  S   UNL     1      -1.754   3.564  -3.587  0.00  0.00    -0.077 S 
ATOM     10  C   UNL     1      -2.749   4.730  -6.088  0.00  0.00    +0.043 C 
ATOM     11  C   UNL     1      -3.304   3.960  -7.294  0.00  0.00    +0.005 C 
ATOM     12  C   UNL     1      -2.377   4.193  -8.483  0.00  0.00    +0.001 C 
ATOM     13  C   UNL     1      -0.935   4.345  -8.003  0.00  0.00    +0.005 C 
ATOM     14  C   UNL     1      -0.461   3.065  -7.324  0.00  0.00    +0.037 C 
BRANCH   6  15
ATOM     15  C   UNL     1       1.106   1.572  -5.223  0.00  0.00    +0.102 C 
ATOM     16  N   UNL     1       1.993   0.929  -5.526  0.00  0.00    -0.191 NA
ENDBRANCH   6  15
ENDBRANCH   3   5
BRANCH   1  17
ATOM     17  C   UNL     1       0.264   1.458   0.033  0.00  0.00    +0.173 C 
BRANCH  17  18
ATOM     18  S   UNL     1      -0.646   1.959   1.516  0.00  0.00    -0.075 S 
BRANCH  18  20
ATOM     19  N   UNL     1       0.019   1.075   4.078  0.00  0.00    -0.184 N 
ATOM     20  C   UNL     1       0.258   1.073   2.743  0.00  0.00    +0.215 A 
ATOM     21  N   UNL     1       1.294   0.289   2.537  0.00  0.00    -0.101 NA
ATOM     22  N   UNL     1       1.715  -0.200   3.647  0.00  0.00    -0.022 NA
ATOM     23  N   UNL     1       0.994   0.224   4.628  0.00  0.00    -0.038 NA
BRANCH  19  29
ATOM     24  C   UNL     1      -0.673   2.501   5.910  0.00  0.00    +0.146 A 
ATOM     25  C   UNL     1      -1.669   3.194   6.580  0.00  0.00    +0.048 A 
ATOM     26  C   UNL     1      -2.970   3.154   6.117  0.00  0.00    +0.004 A 
ATOM     27  C   UNL     1      -3.282   2.429   4.981  0.00  0.00    +0.002 A 
ATOM     28  C   UNL     1      -2.294   1.740   4.305  0.00  0.00    +0.031 A 
ATOM     29  C   UNL     1      -0.986   1.775   4.764  0.00  0.00    +0.111 A 
BRANCH  24  31
ATOM     30  C   UNL     1       0.853   3.300   7.549  0.00  0.00    +0.277 C 
ATOM     31  O   UNL     1       0.607   2.535   6.368  0.00  0.00    -0.493 OA
ENDBRANCH  24  31
ENDBRANCH  19  29
ENDBRANCH  18  20
ENDBRANCH  17  18
ENDBRANCH   1  17
TORSDOF 7
