REMARK  Name = ZINC64363726
REMARK  9 active torsions:
REMARK  status: ('A' for Active; 'I' for Inactive)
REMARK    1  A    between atoms: C_1  and  C_2
REMARK    2  A    between atoms: C_2  and  C_3
REMARK    3  A    between atoms: C_6  and  C_30
REMARK    4  A    between atoms: C_9  and  C_11
REMARK    5  A    between atoms: C_13  and  C_24
REMARK    6  A    between atoms: C_34  and  O_38
REMARK    7  A    between atoms: C_35  and  O_36
REMARK    8  A    between atoms: O_36  and  C_37
REMARK    9  A    between atoms: O_38  and  C_39
REMARK                            x       y       z     vdW  Elec       q    Type
REMARK                         _______ _______ _______ _____ _____    ______ ____
ROOT
ATOM      1  C   UNL     1       0.733  -0.273  -0.661  0.00  0.00    +0.235 C 
ATOM      2  O   UNL     1       1.206   0.615  -1.340  0.00  0.00    -0.274 OA
ATOM      3  N   UNL     1       0.915  -1.560  -1.014  0.00  0.00    -0.185 N 
ATOM      4  C   UNL     1       1.668  -2.030  -2.188  0.00  0.00    +0.140 C 
ATOM      5  C   UNL     1       1.548  -3.565  -2.095  0.00  0.00    +0.083 C 
ATOM      6  C   UNL     1       0.721  -3.787  -0.848  0.00  0.00    +0.055 C 
ATOM      7  N   UNL     1       0.427  -2.668  -0.324  0.00  0.00    -0.185 NA
ENDROOT
BRANCH   6   8
ATOM      8  C   UNL     1       0.313  -5.132  -0.306  0.00  0.00    +0.152 C 
ATOM      9  C   UNL     1      -0.680  -4.901   0.817  0.00  0.00    -0.014 C 
ATOM     10  C   UNL     1      -0.349  -5.416   2.073  0.00  0.00    +0.002 A 
ATOM     11  C   UNL     1      -1.216  -5.247   3.173  0.00  0.00    +0.030 A 
ATOM     12  C   UNL     1      -0.869  -5.759   4.385  0.00  0.00    +0.042 A 
ATOM     13  C   UNL     1       0.328  -6.450   4.564  0.00  0.00    +0.022 A 
ATOM     14  C   UNL     1       1.204  -6.646   3.540  0.00  0.00    +0.025 A 
ATOM     15  C   UNL     1       0.911  -6.144   2.259  0.00  0.00    +0.041 A 
ATOM     16  N   UNL     1       1.773  -6.338   1.255  0.00  0.00    -0.284 N 
ATOM     17  C   UNL     1       1.572  -5.899   0.029  0.00  0.00    +0.230 C 
ATOM     18  O   UNL     1       2.401  -6.113  -0.836  0.00  0.00    -0.274 OA
ATOM     19 CL   UNL     1      -1.939  -5.548   5.736  0.00  0.00    -0.084 Cl
ATOM     20  H   UNL     1       2.590  -6.827   1.440  0.00  0.00    +0.155 HD
BRANCH   9  21
ATOM     21  C   UNL     1      -1.889  -4.192   0.602  0.00  0.00    -0.020 A 
ATOM     22  C   UNL     1      -2.132  -2.987   1.281  0.00  0.00    +0.008 A 
ATOM     23  C   UNL     1      -3.310  -2.307   1.066  0.00  0.00    +0.001 A 
ATOM     24  C   UNL     1      -4.253  -2.807   0.182  0.00  0.00    +0.000 A 
ATOM     25  C   UNL     1      -4.023  -3.995  -0.493  0.00  0.00    +0.001 A 
ATOM     26  C   UNL     1      -2.849  -4.688  -0.296  0.00  0.00    +0.008 A 
ENDBRANCH   9  21
ENDBRANCH   6   8
BRANCH   4  27
ATOM     27  C   UNL     1       1.041  -1.521  -3.461  0.00  0.00    +0.021 A 
ATOM     28  C   UNL     1      -0.263  -1.061  -3.453  0.00  0.00    +0.009 A 
ATOM     29  C   UNL     1      -0.841  -0.594  -4.618  0.00  0.00    +0.004 A 
ATOM     30  C   UNL     1      -0.117  -0.584  -5.797  0.00  0.00    +0.049 A 
ATOM     31  C   UNL     1       1.189  -1.044  -5.811  0.00  0.00    +0.162 A 
ATOM     32  C   UNL     1       1.773  -1.509  -4.637  0.00  0.00    +0.166 A 
BRANCH  32  33
ATOM     33  O   UNL     1       3.058  -1.956  -4.645  0.00  0.00    -0.491 OA
ATOM     34  C   UNL     1       3.260  -3.344  -4.917  0.00  0.00    +0.277 C 
ENDBRANCH  32  33
BRANCH  31  35
ATOM     35  O   UNL     1       1.902  -1.035  -6.970  0.00  0.00    -0.491 OA
ATOM     36  C   UNL     1       1.240  -0.538  -8.135  0.00  0.00    +0.277 C 
ENDBRANCH  31  35
ENDBRANCH   4  27
BRANCH   1  38
ATOM     37  C   UNL     1      -0.115   1.585   0.746  0.00  0.00    +0.013 C 
ATOM     38  C   UNL     1      -0.059   0.065   0.576  0.00  0.00    +0.094 C 
ENDBRANCH   1  38
TORSDOF 6
