REMARK  Name = ZINC21994486
REMARK  3 active torsions:
REMARK  status: ('A' for Active; 'I' for Inactive)
REMARK    1  A    between atoms: C_6  and  C_7
REMARK    2  A    between atoms: C_7  and  N_8
REMARK    3  A    between atoms: C_16  and  N_17
REMARK                            x       y       z     vdW  Elec       q    Type
REMARK                         _______ _______ _______ _____ _____    ______ ____
ROOT
ATOM      1  N   UNL     1       3.577   1.898  -0.022  0.00  0.00    -0.310 N 
ATOM      2  C   UNL     1       4.386   0.800  -0.035  0.00  0.00    +0.202 A 
ATOM      3  N   UNL     1       3.665  -0.283  -0.034  0.00  0.00    -0.231 NA
ATOM      4  C   UNL     1       2.351   0.050  -0.020  0.00  0.00    +0.147 A 
ATOM      5  C   UNL     1       2.279   1.453  -0.012  0.00  0.00    +0.167 A 
ATOM      6  N   UNL     1       1.087   2.039   0.003  0.00  0.00    -0.198 NA
ATOM      7  C   UNL     1      -0.016   1.317   0.009  0.00  0.00    +0.226 A 
ATOM      8  N   UNL     1       0.002  -0.004   0.002  0.00  0.00    -0.201 NA
ATOM      9  C   UNL     1       1.148  -0.677  -0.013  0.00  0.00    +0.149 A 
ATOM     10 CL   UNL     1      -1.548   2.133   0.021  0.00  0.00    -0.041 Cl
ENDROOT
BRANCH   9  11
ATOM     11  N   UNL     1       1.157  -2.060  -0.021  0.00  0.00    -0.341 N 
ATOM     12  H   UNL     1       0.208  -2.616  -0.014  0.00  0.00    +0.144 HD
ATOM     13  H   UNL     1       2.113  -2.604  -0.033  0.00  0.00    +0.144 HD
ENDBRANCH   9  11
BRANCH   1  14
ATOM     14  C   UNL     1       4.014   3.296  -0.018  0.00  0.00    +0.163 C 
BRANCH  14  20
ATOM     15  C   UNL     1       5.264   3.877   2.081  0.00  0.00    +0.011 A 
ATOM     16  C   UNL     1       5.259   4.351   3.384  0.00  0.00    +0.040 A 
ATOM     17  C   UNL     1       4.060   4.734   3.958  0.00  0.00    +0.131 A 
ATOM     18  N   UNL     1       2.930   4.652   3.279  0.00  0.00    -0.224 NA
ATOM     19  C   UNL     1       2.899   4.211   2.036  0.00  0.00    +0.136 A 
ATOM     20  C   UNL     1       4.059   3.805   1.400  0.00  0.00    +0.009 A 
ATOM     21 CL   UNL     1       1.385   4.132   1.191  0.00  0.00    -0.062 Cl
ATOM     22 CL   UNL     1       4.040   5.330   5.588  0.00  0.00    -0.062 Cl
ENDBRANCH  14  20
ENDBRANCH   1  14
TORSDOF 3
