REMARK  Name = ZINC40034866
REMARK  10 active torsions:
REMARK  status: ('A' for Active; 'I' for Inactive)
REMARK    1  A    between atoms: C_1  and  C_2
REMARK    2  A    between atoms: C_2  and  C_3
REMARK    3  A    between atoms: C_3  and  O_4
REMARK    4  A    between atoms: O_4  and  C_5
REMARK    5  A    between atoms: C_10  and  C_11
REMARK    6  A    between atoms: N_12  and  N_13
REMARK    7  A    between atoms: N_20  and  C_21
REMARK    8  A    between atoms: C_24  and  C_27
REMARK    9  A    between atoms: C_28  and  C_36
REMARK   10  A    between atoms: C_28  and  C_37
REMARK                            x       y       z     vdW  Elec       q    Type
REMARK                         _______ _______ _______ _____ _____    ______ ____
ROOT
ATOM      1  N   UNL     1       0.447  -3.708  -0.631  0.00  0.00    -0.206 N 
ATOM      2  C   UNL     1       1.741  -3.409  -0.292  0.00  0.00    +0.223 A 
ATOM      3  N   UNL     1       2.000  -2.275   0.327  0.00  0.00    -0.214 NA
ATOM      4  C   UNL     1       3.250  -1.952   0.674  0.00  0.00    +0.084 A 
ATOM      5  C   UNL     1       4.295  -2.818   0.387  0.00  0.00    +0.049 A 
ATOM      6  C   UNL     1       4.014  -4.021  -0.273  0.00  0.00    +0.264 A 
ATOM      7  O   UNL     1       4.907  -4.807  -0.544  0.00  0.00    -0.267 OA
ATOM      8  N   UNL     1       2.732  -4.296  -0.598  0.00  0.00    -0.248 N 
ATOM      9  C   UNL     1       5.700  -2.468   0.787  0.00  0.00    +0.001 C 
ATOM     10  C   UNL     1       5.940  -0.967   0.652  0.00  0.00    +0.047 C 
ATOM     11  C   UNL     1       4.858  -0.192   1.355  0.00  0.00    -0.037 A 
ATOM     12  C   UNL     1       3.547  -0.674   1.360  0.00  0.00    +0.004 A 
ATOM     13  C   UNL     1       2.543   0.042   2.003  0.00  0.00    +0.010 A 
ATOM     14  C   UNL     1       2.850   1.229   2.639  0.00  0.00    +0.001 A 
ATOM     15  C   UNL     1       4.150   1.702   2.635  0.00  0.00    +0.000 A 
ATOM     16  C   UNL     1       5.151   0.994   1.995  0.00  0.00    +0.004 A 
ATOM     17  C   UNL     1       5.930  -2.886   2.241  0.00  0.00    +0.016 C 
ATOM     18  C   UNL     1       6.683  -3.219  -0.114  0.00  0.00    +0.016 C 
ATOM     19  H   UNL     1       0.232  -4.576  -1.007  0.00  0.00    +0.177 HD
ENDROOT
BRANCH   8  20
ATOM     20  C   UNL     1       2.420  -5.492  -1.255  0.00  0.00    +0.053 A 
ATOM     21  C   UNL     1       1.967  -5.467  -2.568  0.00  0.00    +0.026 A 
ATOM     22  C   UNL     1       1.661  -6.649  -3.213  0.00  0.00    +0.005 A 
ATOM     23  C   UNL     1       1.804  -7.856  -2.554  0.00  0.00    -0.050 A 
ATOM     24  C   UNL     1       2.254  -7.884  -1.247  0.00  0.00    +0.005 A 
ATOM     25  C   UNL     1       2.568  -6.706  -0.598  0.00  0.00    +0.026 A 
ATOM     26  C   UNL     1       1.468  -9.143  -3.262  0.00  0.00    +0.044 C 
ENDBRANCH   8  20
BRANCH   1  28
ATOM     27  C   UNL     1      -1.805  -3.078  -0.650  0.00  0.00    +0.142 C 
ATOM     28  N   UNL     1      -0.565  -2.759  -0.435  0.00  0.00    -0.187 NA
BRANCH  27  34
ATOM     29  C   UNL     1      -2.502  -0.694  -0.442  0.00  0.00    +0.129 A 
ATOM     30  C   UNL     1      -3.494   0.272  -0.405  0.00  0.00    +0.046 A 
ATOM     31  C   UNL     1      -4.822  -0.092  -0.520  0.00  0.00    +0.004 A 
ATOM     32  C   UNL     1      -5.172  -1.423  -0.672  0.00  0.00    +0.001 A 
ATOM     33  C   UNL     1      -4.198  -2.398  -0.712  0.00  0.00    +0.013 A 
ATOM     34  C   UNL     1      -2.852  -2.042  -0.603  0.00  0.00    +0.036 A 
BRANCH  29  35
ATOM     35  O   UNL     1      -1.197  -0.337  -0.330  0.00  0.00    -0.491 OA
BRANCH  35  36
ATOM     36  C   UNL     1      -0.908   1.062  -0.303  0.00  0.00    +0.229 C 
BRANCH  36  38
ATOM     37  C   UNL     1       0.921   2.760  -0.168  0.00  0.00    +0.007 C 
ATOM     38  C   UNL     1       0.608   1.270  -0.325  0.00  0.00    +0.038 C 
ENDBRANCH  36  38
ENDBRANCH  35  36
ENDBRANCH  29  35
ENDBRANCH  27  34
ENDBRANCH   1  28
TORSDOF 6
