REMARK  Name = ZINC09008257
REMARK  10 active torsions:
REMARK  status: ('A' for Active; 'I' for Inactive)
REMARK    1  A    between atoms: C_1  and  C_2
REMARK    2  A    between atoms: C_2  and  N_57
REMARK    3  A    between atoms: C_3  and  C_4
REMARK    4  A    between atoms: C_3  and  N_57
REMARK    5  A    between atoms: C_5  and  C_6
REMARK    6  A    between atoms: C_5  and  N_57
REMARK    7  A    between atoms: C_6  and  N_7
REMARK    8  A    between atoms: C_8  and  C_26
REMARK    9  A    between atoms: C_11  and  C_12
REMARK   10  A    between atoms: C_11  and  O_21
REMARK                            x       y       z     vdW  Elec       q    Type
REMARK                         _______ _______ _______ _____ _____    ______ ____
ROOT
ATOM      1  N   UNL     1      -1.330   3.560  -2.693  0.00  0.00    -0.285 N 
ATOM      2  C   UNL     1      -2.614   4.204  -2.986  0.00  0.00    +0.145 C 
ATOM      3  C   UNL     1      -2.579   4.592  -4.446  0.00  0.00    +0.074 C 
ATOM      4  C   UNL     1      -3.580   5.229  -5.162  0.00  0.00    +0.168 C 
ATOM      5  C   UNL     1      -1.332   4.178  -4.930  0.00  0.00    +0.249 C 
ATOM      6  O   UNL     1      -0.927   4.316  -6.071  0.00  0.00    -0.282 OA
ATOM      7  C   UNL     1      -0.584   3.547  -3.811  0.00  0.00    +0.288 C 
ATOM      8  O   UNL     1       0.536   3.086  -3.894  0.00  0.00    -0.266 OA
ENDROOT
BRANCH   4   9
ATOM      9  C   UNL     1      -3.375   5.556  -6.572  0.00  0.00    +0.171 A 
ATOM     10  C   UNL     1      -4.249   5.276  -7.580  0.00  0.00    +0.061 A 
ATOM     11  C   UNL     1      -3.664   5.761  -8.777  0.00  0.00    +0.021 A 
ATOM     12  C   UNL     1      -4.068   5.771 -10.117  0.00  0.00    +0.011 A 
ATOM     13  C   UNL     1      -3.260   6.331 -11.064  0.00  0.00    +0.001 A 
ATOM     14  C   UNL     1      -2.039   6.890 -10.709  0.00  0.00    +0.004 A 
ATOM     15  C   UNL     1      -1.622   6.890  -9.395  0.00  0.00    +0.047 A 
ATOM     16  C   UNL     1      -2.428   6.327  -8.413  0.00  0.00    +0.136 A 
ATOM     17  O   UNL     1      -2.294   6.188  -7.078  0.00  0.00    -0.452 OA
ENDBRANCH   4   9
BRANCH   2  18
ATOM     18  C   UNL     1      -3.744   3.240  -2.733  0.00  0.00    -0.021 A 
ATOM     19  C   UNL     1      -4.912   3.684  -2.140  0.00  0.00    +0.006 A 
ATOM     20  C   UNL     1      -5.949   2.801  -1.909  0.00  0.00    +0.002 A 
ATOM     21  C   UNL     1      -5.821   1.473  -2.271  0.00  0.00    +0.020 A 
ATOM     22  C   UNL     1      -4.653   1.028  -2.865  0.00  0.00    +0.041 A 
ATOM     23  C   UNL     1      -3.617   1.914  -3.101  0.00  0.00    +0.025 A 
ATOM     24 CL   UNL     1      -4.492  -0.639  -3.320  0.00  0.00    -0.084 Cl
ENDBRANCH   2  18
BRANCH   4  25
ATOM     25  O   UNL     1      -4.745   5.547  -4.556  0.00  0.00    -0.503 OA
ATOM     26  H   UNL     1      -5.350   5.998  -5.213  0.00  0.00    +0.292 HD
ENDBRANCH   4  25
BRANCH   1  27
ATOM     27  C   UNL     1      -0.924   3.022  -1.392  0.00  0.00    +0.090 C 
BRANCH  27  28
ATOM     28  C   UNL     1      -1.345   1.554  -1.293  0.00  0.00    -0.060 C 
BRANCH  28  29
ATOM     29  N   UNL     1      -0.832   0.997  -0.024  0.00  0.00    +0.380 N 
ATOM     30  H   UNL     1      -1.098   1.620   0.747  0.00  0.00    -0.082 HD
BRANCH  29  32
ATOM     31  C   UNL     1      -1.050  -0.794   1.628  0.00  0.00    -0.017 C 
ATOM     32  C   UNL     1      -1.418  -0.339   0.214  0.00  0.00    -0.082 C 
ENDBRANCH  29  32
BRANCH  29  33
ATOM     33  C   UNL     1       0.642   0.899  -0.075  0.00  0.00    -0.082 C 
ATOM     34  C   UNL     1       1.079  -0.054  -1.189  0.00  0.00    -0.017 C 
ENDBRANCH  29  33
ENDBRANCH  28  29
ENDBRANCH  27  28
ENDBRANCH   1  27
TORSDOF 8
