REMARK  Name = ZINC12031925
REMARK  8 active torsions:
REMARK  status: ('A' for Active; 'I' for Inactive)
REMARK    1  A    between atoms: C_1  and  C_2
REMARK    2  A    between atoms: C_4  and  C_11
REMARK    3  A    between atoms: C_9  and  C_10
REMARK    4  A    between atoms: N_13  and  C_14
REMARK    5  A    between atoms: N_13  and  C_33
REMARK    6  A    between atoms: C_14  and  C_15
REMARK    7  A    between atoms: C_23  and  N_24
REMARK    8  A    between atoms: C_33  and  C_34
REMARK                            x       y       z     vdW  Elec       q    Type
REMARK                         _______ _______ _______ _____ _____    ______ ____
ROOT
ATOM      1  C   UNL     1      -1.033  -0.920   0.083  0.00  0.00    +0.146 C 
ENDROOT
BRANCH   1   2
ATOM      2  C   UNL     1       0.062   0.091   0.303  0.00  0.00    +0.008 A 
ATOM      3  C   UNL     1      -0.250   1.400   0.514  0.00  0.00    +0.018 A 
ATOM      4  C   UNL     1       0.804   2.314   0.717  0.00  0.00    -0.001 A 
ATOM      5  C   UNL     1       0.556   3.676   0.939  0.00  0.00    +0.014 A 
ATOM      6  C   UNL     1       1.598   4.537   1.134  0.00  0.00    -0.043 A 
ATOM      7  C   UNL     1       2.913   4.075   1.116  0.00  0.00    -0.042 A 
ATOM      8  C   UNL     1       3.186   2.755   0.901  0.00  0.00    +0.030 A 
ATOM      9  C   UNL     1       2.139   1.843   0.696  0.00  0.00    +0.048 A 
ATOM     10  C   UNL     1       1.405  -0.314   0.293  0.00  0.00    +0.104 A 
ATOM     11  C   UNL     1       3.860   5.233   1.359  0.00  0.00    +0.036 C 
ATOM     12  C   UNL     1       2.985   6.352   1.961  0.00  0.00    +0.009 C 
ATOM     13  C   UNL     1       1.588   6.030   1.390  0.00  0.00    +0.036 C 
ATOM     14  N   UNL     1       2.458   0.520   0.483  0.00  0.00    -0.343 N 
ATOM     15  H   UNL     1       3.429   0.186   0.468  0.00  0.00    +0.167 HD
BRANCH  10  16
ATOM     16  N   UNL     1       1.707  -1.650   0.076  0.00  0.00    -0.312 N 
ATOM     17  C   UNL     1       2.811  -2.087   0.943  0.00  0.00    +0.134 C 
ATOM     18  C   UNL     1       3.072  -3.578   0.715  0.00  0.00    +0.178 C 
ATOM     19  O   UNL     1       3.350  -3.802  -0.670  0.00  0.00    -0.377 OA
ATOM     20  C   UNL     1       2.296  -3.389  -1.543  0.00  0.00    +0.178 C 
ATOM     21  C   UNL     1       2.027  -1.895  -1.338  0.00  0.00    +0.134 C 
ENDBRANCH  10  16
ENDBRANCH   1   2
BRANCH   1  24
ATOM     22  C   UNL     1      -2.110  -1.118   2.260  0.00  0.00    +0.252 C 
ATOM     23  O   UNL     1      -2.570  -0.003   2.103  0.00  0.00    -0.270 OA
ATOM     24  N   UNL     1      -1.288  -1.645   1.331  0.00  0.00    -0.290 N 
BRANCH  22  28
ATOM     25  C   UNL     1      -0.979  -2.794   6.833  0.00  0.00    +0.045 C 
ATOM     26  C   UNL     1      -1.921  -2.704   5.661  0.00  0.00    -0.031 A 
ATOM     27  C   UNL     1      -1.563  -1.961   4.536  0.00  0.00    +0.023 A 
ATOM     28  C   UNL     1      -2.450  -1.891   3.464  0.00  0.00    +0.101 A 
ATOM     29  C   UNL     1      -3.691  -2.574   3.556  0.00  0.00    +0.261 A 
ATOM     30  O   UNL     1      -4.486  -2.524   2.634  0.00  0.00    -0.267 OA
ATOM     31  N   UNL     1      -3.984  -3.281   4.664  0.00  0.00    -0.326 N 
ATOM     32  H   UNL     1      -4.832  -3.749   4.720  0.00  0.00    +0.169 HD
ATOM     33  C   UNL     1      -3.118  -3.345   5.702  0.00  0.00    +0.019 A 
ATOM     34  C   UNL     1      -3.487  -4.142   6.926  0.00  0.00    +0.063 C 
ENDBRANCH  22  28
BRANCH  24  35
ATOM     35  C   UNL     1      -0.649  -2.941   1.569  0.00  0.00    +0.140 C 
BRANCH  35  36
ATOM     36  C   UNL     1      -1.521  -4.054   0.985  0.00  0.00    +0.136 C 
ATOM     37  C   UNL     1      -0.931  -5.439   1.334  0.00  0.00    +0.035 C 
ATOM     38  C   UNL     1      -1.194  -6.288   0.070  0.00  0.00    +0.031 C 
ATOM     39  C   UNL     1      -1.912  -5.316  -0.892  0.00  0.00    +0.160 C 
ATOM     40  O   UNL     1      -1.507  -4.000  -0.458  0.00  0.00    -0.375 OA
ENDBRANCH  35  36
ENDBRANCH  24  35
ENDBRANCH   1  24
TORSDOF 6
