REMARK  Name = ZINC12608195
REMARK  7 active torsions:
REMARK  status: ('A' for Active; 'I' for Inactive)
REMARK    1  A    between atoms: C_1  and  O_2
REMARK    2  A    between atoms: O_2  and  C_3
REMARK    3  A    between atoms: C_8  and  C_9
REMARK    4  A    between atoms: C_11  and  C_14
REMARK    5  A    between atoms: C_14  and  S_15
REMARK    6  A    between atoms: S_15  and  C_16
REMARK    7  A    between atoms: C_20  and  N_22
REMARK                            x       y       z     vdW  Elec       q    Type
REMARK                         _______ _______ _______ _____ _____    ______ ____
ROOT
ATOM      1  C   UNL     1       1.749   2.026  -0.004  0.00  0.00    +0.112 A 
ATOM      2  N   UNL     1       2.181   0.772  -0.015  0.00  0.00    -0.243 NA
ATOM      3  C   UNL     1       1.341  -0.237  -0.012  0.00  0.00    +0.059 A 
ATOM      4  C   UNL     1       0.002  -0.004   0.002  0.00  0.00    +0.071 A 
ATOM      5  S   UNL     1      -0.022   1.784   0.012  0.00  0.00    -0.075 S 
ENDROOT
BRANCH   1  11
ATOM      6  C   UNL     1       1.862   4.518   0.002  0.00  0.00    +0.130 A 
ATOM      7  C   UNL     1       2.597   5.693   0.006  0.00  0.00    +0.047 A 
ATOM      8  C   UNL     1       3.978   5.646  -0.008  0.00  0.00    +0.019 A 
ATOM      9  C   UNL     1       4.637   4.428  -0.020  0.00  0.00    +0.019 A 
ATOM     10  C   UNL     1       3.919   3.249  -0.019  0.00  0.00    +0.029 A 
ATOM     11  C   UNL     1       2.524   3.284  -0.005  0.00  0.00    +0.050 A 
ATOM     12 BR   UNL     1       6.527   4.379  -0.038  0.00  0.00    -0.050 Br
BRANCH   6  14
ATOM     13  C   UNL     1      -0.101   5.858   0.017  0.00  0.00    +0.277 C 
ATOM     14  O   UNL     1       0.505   4.564   0.010  0.00  0.00    -0.494 OA
ENDBRANCH   6  14
ENDBRANCH   1  11
BRANCH   3  15
ATOM     15  C   UNL     1       1.861  -1.651  -0.024  0.00  0.00    +0.133 C 
BRANCH  15  16
ATOM     16  S   UNL     1       2.053  -2.209  -1.735  0.00  0.00    -0.080 S 
BRANCH  16  17
ATOM     17  C   UNL     1       2.655  -3.842  -1.459  0.00  0.00    +0.192 A 
ATOM     18  N   UNL     1       2.826  -4.265  -0.215  0.00  0.00    -0.207 NA
ATOM     19  C   UNL     1       3.274  -5.494   0.031  0.00  0.00    +0.122 A 
ATOM     20  C   UNL     1       3.574  -6.332  -1.038  0.00  0.00    +0.086 A 
ATOM     21  C   UNL     1       3.387  -5.851  -2.331  0.00  0.00    +0.122 A 
ATOM     22  N   UNL     1       2.930  -4.613  -2.501  0.00  0.00    -0.207 NA
ATOM     23  N   UNL     1       3.445  -5.930   1.336  0.00  0.00    -0.343 N 
ATOM     24  H   UNL     1       3.775  -6.826   1.508  0.00  0.00    +0.144 HD
ATOM     25  H   UNL     1       3.233  -5.340   2.076  0.00  0.00    +0.144 HD
BRANCH  21  26
ATOM     26  N   UNL     1       3.672  -6.651  -3.426  0.00  0.00    -0.343 N 
ATOM     27  H   UNL     1       3.539  -6.309  -4.324  0.00  0.00    +0.144 HD
ATOM     28  H   UNL     1       4.005  -7.553  -3.295  0.00  0.00    +0.144 HD
ENDBRANCH  21  26
ENDBRANCH  16  17
ENDBRANCH  15  16
ENDBRANCH   3  15
TORSDOF 6
