REMARK  Name = ZINC09923950
REMARK  9 active torsions:
REMARK  status: ('A' for Active; 'I' for Inactive)
REMARK    1  A    between atoms: C_1  and  N_2
REMARK    2  A    between atoms: N_2  and  C_3
REMARK    3  A    between atoms: N_2  and  C_4
REMARK    4  A    between atoms: C_7  and  C_13
REMARK    5  A    between atoms: C_9  and  N_10
REMARK    6  A    between atoms: C_13  and  O_15
REMARK    7  A    between atoms: O_15  and  C_16
REMARK    8  A    between atoms: C_16  and  C_17
REMARK    9  A    between atoms: N_19  and  C_20
REMARK                            x       y       z     vdW  Elec       q    Type
REMARK                         _______ _______ _______ _____ _____    ______ ____
ROOT
ATOM      1  O   UNL     1       3.425   7.282  -0.944  0.00  0.00    -0.452 OA
ENDROOT
BRANCH   1   2
ATOM      2  C   UNL     1       4.498   8.083  -1.098  0.00  0.00    +0.340 C 
ATOM      3  O   UNL     1       5.613   7.656  -0.874  0.00  0.00    -0.245 OA
BRANCH   2   7
ATOM      4  C   UNL     1       3.975  12.096  -2.366  0.00  0.00    +0.060 A 
ATOM      5  C   UNL     1       2.870  11.264  -2.206  0.00  0.00    +0.026 A 
ATOM      6  C   UNL     1       3.036   9.970  -1.803  0.00  0.00    +0.017 A 
ATOM      7  C   UNL     1       4.318   9.478  -1.539  0.00  0.00    +0.061 A 
ATOM      8  C   UNL     1       5.430  10.311  -1.699  0.00  0.00    +0.049 A 
ATOM      9  C   UNL     1       5.256  11.613  -2.111  0.00  0.00    +0.148 A 
BRANCH   4  11
ATOM     10  C   UNL     1       3.151  13.464  -4.099  0.00  0.00    +0.129 C 
ATOM     11  N   UNL     1       3.800  13.411  -2.782  0.00  0.00    -0.334 N 
ATOM     12  C   UNL     1       3.038  14.180  -1.788  0.00  0.00    +0.129 C 
ENDBRANCH   4  11
BRANCH   9  13
ATOM     13  N   UNL     1       6.429  12.499  -2.282  0.00  0.00    +0.058 N 
ATOM     14  O   UNL     1       7.549  12.076  -2.058  0.00  0.00    -0.126 OA
ATOM     15  O   UNL     1       6.274  13.651  -2.647  0.00  0.00    -0.126 OA
ENDBRANCH   9  13
ENDBRANCH   2   7
ENDBRANCH   1   2
BRANCH   1  16
ATOM     16  C   UNL     1       3.677   5.920  -0.507  0.00  0.00    +0.328 C 
BRANCH  16  17
ATOM     17  C   UNL     1       2.370   5.180  -0.392  0.00  0.00    +0.255 C 
ATOM     18  O   UNL     1       1.328   5.744  -0.651  0.00  0.00    -0.272 OA
ATOM     19  N   UNL     1       2.358   3.890   0.001  0.00  0.00    -0.280 N 
ATOM     20  H   UNL     1       3.182   3.460   0.278  0.00  0.00    +0.155 HD
BRANCH  19  21
ATOM     21  C   UNL     1       1.156   3.172   0.008  0.00  0.00    +0.071 A 
ATOM     22  C   UNL     1       0.748   2.486  -1.129  0.00  0.00    +0.065 A 
ATOM     23  C   UNL     1      -0.439   1.777  -1.118  0.00  0.00    +0.042 A 
ATOM     24  C   UNL     1      -1.223   1.755   0.021  0.00  0.00    +0.044 A 
ATOM     25  C   UNL     1      -0.817   2.433   1.157  0.00  0.00    +0.042 A 
ATOM     26  C   UNL     1       0.369   3.143   1.153  0.00  0.00    +0.065 A 
ATOM     27 CL   UNL     1       0.875   3.999   2.576  0.00  0.00    -0.082 Cl
ATOM     28 CL   UNL     1      -2.716   0.870   0.028  0.00  0.00    -0.083 Cl
ATOM     29 CL   UNL     1       1.728   2.518  -2.561  0.00  0.00    -0.082 Cl
ENDBRANCH  19  21
ENDBRANCH  16  17
ENDBRANCH   1  16
TORSDOF 7
