REMARK  Name = ZINC14460923
REMARK  3 active torsions:
REMARK  status: ('A' for Active; 'I' for Inactive)
REMARK    1  A    between atoms: C_5  and  N_7
REMARK    2  A    between atoms: C_11  and  C_20
REMARK    3  A    between atoms: C_25  and  O_26
REMARK                            x       y       z     vdW  Elec       q    Type
REMARK                         _______ _______ _______ _____ _____    ______ ____
ROOT
ATOM      1  C   UNL     1      -5.470  -2.948   0.932  0.00  0.00    +0.003 A 
ATOM      2  C   UNL     1      -5.516  -1.879   0.059  0.00  0.00    +0.006 A 
ATOM      3  C   UNL     1      -4.545  -0.888   0.105  0.00  0.00    -0.017 A 
ATOM      4  C   UNL     1      -3.523  -0.980   1.035  0.00  0.00    +0.062 A 
ATOM      5  C   UNL     1      -3.481  -2.061   1.914  0.00  0.00    +0.147 A 
ATOM      6  C   UNL     1      -4.452  -3.039   1.862  0.00  0.00    +0.034 A 
ATOM      7  N   UNL     1      -2.517  -0.020   1.128  0.00  0.00    -0.335 N 
ATOM      8  C   UNL     1      -2.956   1.290   0.646  0.00  0.00    +0.109 C 
ATOM      9  C   UNL     1      -3.417   1.169  -0.808  0.00  0.00    +0.029 C 
ATOM     10  C   UNL     1      -4.657   0.251  -0.865  0.00  0.00    +0.049 C 
ATOM     11  C   UNL     1      -5.806   1.159  -0.490  0.00  0.00    -0.023 C 
ATOM     12  C   UNL     1      -5.481   2.413  -0.679  0.00  0.00    -0.030 C 
ATOM     13  C   UNL     1      -4.067   2.521  -1.216  0.00  0.00    +0.033 C 
ATOM     14  H   UNL     1      -2.163   0.042   2.071  0.00  0.00    +0.147 HD
ENDROOT
BRANCH   8  15
ATOM     15  C   UNL     1      -1.812   2.267   0.731  0.00  0.00    +0.015 A 
ATOM     16  C   UNL     1      -2.024   3.540   1.224  0.00  0.00    +0.024 A 
ATOM     17  C   UNL     1      -0.972   4.435   1.308  0.00  0.00    +0.018 A 
ATOM     18  C   UNL     1       0.293   4.059   0.892  0.00  0.00    +0.019 A 
ATOM     19  C   UNL     1       0.508   2.789   0.394  0.00  0.00    +0.047 A 
ATOM     20  C   UNL     1      -0.545   1.890   0.309  0.00  0.00    +0.122 A 
ATOM     21 BR   UNL     1      -1.264   6.174   1.991  0.00  0.00    -0.050 Br
BRANCH  20  22
ATOM     22  O   UNL     1      -0.335   0.640  -0.181  0.00  0.00    -0.506 OA
ATOM     23  H   UNL     1      -0.068  -0.005   0.487  0.00  0.00    +0.292 HD
ENDBRANCH  20  22
ENDBRANCH   8  15
BRANCH   5  24
ATOM     24  N   UNL     1      -2.389  -2.159   2.908  0.00  0.00    +0.058 N 
ATOM     25  O   UNL     1      -1.260  -1.812   2.609  0.00  0.00    -0.126 OA
ATOM     26  O   UNL     1      -2.619  -2.586   4.025  0.00  0.00    -0.126 OA
ENDBRANCH   5  24
TORSDOF 3
