REMARK  Name = ZINC00050128
REMARK  7 active torsions:
REMARK  status: ('A' for Active; 'I' for Inactive)
REMARK    1  A    between atoms: C_1  and  C_2
REMARK    2  A    between atoms: C_3  and  C_19
REMARK    3  A    between atoms: C_4  and  C_12
REMARK    4  A    between atoms: C_6  and  C_10
REMARK    5  A    between atoms: C_7  and  N_9
REMARK    6  A    between atoms: C_19  and  O_21
REMARK    7  A    between atoms: O_21  and  C_22
REMARK                            x       y       z     vdW  Elec       q    Type
REMARK                         _______ _______ _______ _____ _____    ______ ____
ROOT
ATOM      1  C   UNL     1      -4.856   2.201  -2.480  0.00  0.00    +0.087 C 
ATOM      2  C   UNL     1      -4.243   2.594  -1.161  0.00  0.00    +0.115 C 
ATOM      3  C   UNL     1      -3.172   3.398  -1.159  0.00  0.00    +0.087 C 
ATOM      4  C   UNL     1      -2.521   3.823   0.129  0.00  0.00    +0.105 C 
ATOM      5  C   UNL     1      -3.455   3.564   1.280  0.00  0.00    +0.098 C 
ATOM      6  C   UNL     1      -4.522   2.743   1.136  0.00  0.00    +0.198 C 
ATOM      7  O   UNL     1      -4.789   2.127  -0.028  0.00  0.00    -0.445 OA
ENDROOT
BRANCH   4   8
ATOM      8  C   UNL     1      -1.250   3.039   0.330  0.00  0.00    -0.034 A 
ATOM      9  C   UNL     1      -1.294   1.659   0.412  0.00  0.00    +0.006 A 
ATOM     10  C   UNL     1      -0.129   0.940   0.602  0.00  0.00    +0.020 A 
ATOM     11  C   UNL     1       1.083   1.600   0.697  0.00  0.00    +0.041 A 
ATOM     12  C   UNL     1       1.128   2.980   0.609  0.00  0.00    +0.020 A 
ATOM     13  C   UNL     1      -0.039   3.699   0.425  0.00  0.00    +0.006 A 
ATOM     14 CL   UNL     1       2.548   0.697   0.929  0.00  0.00    -0.084 Cl
ENDBRANCH   4   8
BRANCH   6  15
ATOM     15  N   UNL     1      -5.353   2.534   2.208  0.00  0.00    -0.328 N 
ATOM     16  H   UNL     1      -6.121   1.948   2.120  0.00  0.00    +0.145 HD
ATOM     17  H   UNL     1      -5.172   2.972   3.055  0.00  0.00    +0.145 HD
ENDBRANCH   6  15
BRANCH   5  18
ATOM     18  C   UNL     1      -3.214   4.194   2.543  0.00  0.00    +0.101 C 
ATOM     19  N   UNL     1      -3.022   4.694   3.545  0.00  0.00    -0.191 NA
ENDBRANCH   5  18
BRANCH   3  20
ATOM     20  C   UNL     1      -2.643   3.855  -2.391  0.00  0.00    +0.339 C 
ATOM     21  O   UNL     1      -2.817   5.008  -2.737  0.00  0.00    -0.245 OA
BRANCH  20  22
ATOM     22  O   UNL     1      -1.946   3.011  -3.181  0.00  0.00    -0.465 OA
ATOM     23  C   UNL     1      -1.442   3.540  -4.409  0.00  0.00    +0.280 C 
ENDBRANCH  20  22
ENDBRANCH   3  20
TORSDOF 5
