REMARK  Name = ZINC05693336
REMARK  6 active torsions:
REMARK  status: ('A' for Active; 'I' for Inactive)
REMARK    1  A    between atoms: C_3  and  N_15
REMARK    2  A    between atoms: C_5  and  S_7
REMARK    3  A    between atoms: S_7  and  N_10
REMARK    4  A    between atoms: N_15  and  C_16
REMARK    5  A    between atoms: C_16  and  N_18
REMARK    6  A    between atoms: N_18  and  C_19
REMARK                            x       y       z     vdW  Elec       q    Type
REMARK                         _______ _______ _______ _____ _____    ______ ____
ROOT
ATOM      1  C   UNL     1       2.296   2.182  -3.910  0.00  0.00    +0.004 A 
ATOM      2  C   UNL     1       3.161   1.110  -4.010  0.00  0.00    +0.023 A 
ATOM      3  C   UNL     1       3.711   0.555  -2.862  0.00  0.00    +0.034 A 
ATOM      4  C   UNL     1       3.394   1.083  -1.618  0.00  0.00    +0.052 A 
ATOM      5  C   UNL     1       2.525   2.152  -1.524  0.00  0.00    +0.110 A 
ATOM      6  C   UNL     1       1.978   2.703  -2.669  0.00  0.00    +0.029 A 
ENDROOT
BRANCH   5   7
ATOM      7  S   UNL     1       2.118   2.820   0.054  0.00  0.00    +0.073 S 
ATOM      8  O   UNL     1       1.716   4.165  -0.165  0.00  0.00    -0.150 OA
ATOM      9  O   UNL     1       3.184   2.477   0.928  0.00  0.00    -0.150 OA
BRANCH   7  10
ATOM     10  N   UNL     1       0.780   2.009   0.599  0.00  0.00    -0.205 N 
ATOM     11  C   UNL     1       0.857   0.670   0.877  0.00  0.00    +0.088 C 
ATOM     12  C   UNL     1       1.704  -1.444   1.121  0.00  0.00    +0.114 C 
ATOM     13  C   UNL     1       0.169  -1.625   1.135  0.00  0.00    +0.028 C 
ATOM     14  C   UNL     1      -0.296  -0.168   1.383  0.00  0.00    +0.072 C 
ATOM     15  H   UNL     1      -0.059   2.482   0.717  0.00  0.00    +0.175 HD
ATOM     16  N   UNL     1       1.938  -0.035   0.740  0.00  0.00    -0.375 N 
ATOM     17  H   UNL     1       2.837   0.338   0.412  0.00  0.00    +0.161 HD
ENDBRANCH   7  10
ENDBRANCH   5   7
BRANCH   3  18
ATOM     18  N   UNL     1       4.588  -0.531  -2.960  0.00  0.00    -0.297 N 
ATOM     19  H   UNL     1       5.411  -0.538  -2.447  0.00  0.00    +0.154 HD
BRANCH  18  20
ATOM     20  C   UNL     1       4.289  -1.568  -3.767  0.00  0.00    +0.135 C 
ATOM     21  S   UNL     1       2.891  -1.509  -4.755  0.00  0.00    -0.019 S 
BRANCH  20  22
ATOM     22  N   UNL     1       5.090  -2.652  -3.797  0.00  0.00    -0.323 N 
ATOM     23  H   UNL     1       5.881  -2.685  -3.238  0.00  0.00    +0.148 HD
BRANCH  22  24
ATOM     24  C   UNL     1       4.764  -3.779  -4.675  0.00  0.00    +0.072 C 
ATOM     25  C   UNL     1       3.778  -4.709  -3.966  0.00  0.00    +0.022 C 
ATOM     26  C   UNL     1       3.438  -5.886  -4.882  0.00  0.00    +0.002 C 
ATOM     27  C   UNL     1       4.717  -6.658  -5.216  0.00  0.00    +0.000 C 
ATOM     28  C   UNL     1       5.703  -5.728  -5.926  0.00  0.00    +0.002 C 
ATOM     29  C   UNL     1       6.043  -4.550  -5.009  0.00  0.00    +0.022 C 
ENDBRANCH  22  24
ENDBRANCH  20  22
ENDBRANCH  18  20
ENDBRANCH   3  18
TORSDOF 6
