REMARK  Name = ZINC63731471
REMARK  9 active torsions:
REMARK  status: ('A' for Active; 'I' for Inactive)
REMARK    1  A    between atoms: C_1  and  O_2
REMARK    2  A    between atoms: O_2  and  C_3
REMARK    3  A    between atoms: C_6  and  N_9
REMARK    4  A    between atoms: N_9  and  C_10
REMARK    5  A    between atoms: C_10  and  C_11
REMARK    6  A    between atoms: C_11  and  C_12
REMARK    7  A    between atoms: C_15  and  C_17
REMARK    8  A    between atoms: C_17  and  S_18
REMARK    9  A    between atoms: S_18  and  C_19
REMARK                            x       y       z     vdW  Elec       q    Type
REMARK                         _______ _______ _______ _____ _____    ______ ____
ROOT
ATOM      1  N   UNL     1       2.458  -2.458  -4.302  0.00  0.00    -0.270 N 
ATOM      2  C   UNL     1       2.919  -1.715  -5.328  0.00  0.00    +0.230 C 
ATOM      3  O   UNL     1       2.877  -0.504  -5.267  0.00  0.00    -0.274 OA
ENDROOT
BRANCH   1   7
ATOM      4  C   UNL     1       0.617  -0.606  -1.051  0.00  0.00    +0.120 A 
ATOM      5  C   UNL     1       1.844  -1.232  -0.889  0.00  0.00    +0.047 A 
ATOM      6  C   UNL     1       2.454  -1.845  -1.965  0.00  0.00    +0.027 A 
ATOM      7  C   UNL     1       1.839  -1.836  -3.209  0.00  0.00    +0.037 A 
ATOM      8  C   UNL     1       0.611  -1.209  -3.371  0.00  0.00    +0.027 A 
ATOM      9  C   UNL     1      -0.001  -0.601  -2.293  0.00  0.00    +0.047 A 
BRANCH   4  11
ATOM     10  C   UNL     1       0.709  -0.045   1.258  0.00  0.00    +0.277 C 
ATOM     11  O   UNL     1       0.017  -0.002   0.009  0.00  0.00    -0.495 OA
ENDBRANCH   4  11
ENDBRANCH   1   7
BRANCH   1  12
ATOM     12  C   UNL     1       2.604  -3.915  -4.329  0.00  0.00    +0.123 C 
BRANCH  12  13
ATOM     13  C   UNL     1       1.377  -4.539  -4.996  0.00  0.00    +0.115 C 
BRANCH  13  14
ATOM     14  C   UNL     1       1.527  -6.038  -5.024  0.00  0.00    +0.212 C 
ATOM     15  O   UNL     1       2.518  -6.557  -4.556  0.00  0.00    -0.276 OA
ATOM     16  N   UNL     1       0.560  -6.802  -5.569  0.00  0.00    -0.329 N 
ATOM     17  H   UNL     1      -0.233  -6.387  -5.943  0.00  0.00    +0.145 HD
ATOM     18  H   UNL     1       0.657  -7.767  -5.586  0.00  0.00    +0.145 HD
ENDBRANCH  13  14
ENDBRANCH  12  13
ENDBRANCH   1  12
BRANCH   2  19
ATOM     19  C   UNL     1       3.486  -2.389  -6.551  0.00  0.00    +0.169 C 
BRANCH  19  20
ATOM     20  S   UNL     1       4.017  -1.130  -7.744  0.00  0.00    -0.106 S 
BRANCH  20  21
ATOM     21  C   UNL     1       4.665  -2.092  -9.138  0.00  0.00    +0.236 C 
ATOM     22  N   UNL     1       3.628  -2.994  -9.653  0.00  0.00    -0.355 N 
ATOM     23  C   UNL     1       4.069  -4.212  -9.524  0.00  0.00    +0.061 A 
ATOM     24  C   UNL     1       3.493  -5.523  -9.854  0.00  0.00    +0.029 A 
ATOM     25  C   UNL     1       4.199  -6.643  -9.599  0.00  0.00    +0.022 A 
ATOM     26  C   UNL     1       5.483  -6.615  -9.023  0.00  0.00    +0.043 A 
ATOM     27  C   UNL     1       6.102  -5.465  -8.682  0.00  0.00    +0.047 A 
ATOM     28  C   UNL     1       5.426  -4.183  -8.913  0.00  0.00    +0.062 A 
ATOM     29  N   UNL     1       5.772  -2.946  -8.690  0.00  0.00    -0.355 N 
ATOM     30 CL   UNL     1       6.302  -8.119  -8.739  0.00  0.00    -0.083 Cl
ATOM     31  H   UNL     1       2.770  -2.731 -10.023  0.00  0.00    +0.162 HD
ATOM     32  H   UNL     1       6.608  -2.645  -8.300  0.00  0.00    +0.162 HD
ENDBRANCH  20  21
ENDBRANCH  19  20
ENDBRANCH   2  19
TORSDOF 8
