REMARK  Name = ZINC36741129
REMARK  9 active torsions:
REMARK  status: ('A' for Active; 'I' for Inactive)
REMARK    1  A    between atoms: C_1  and  C_2
REMARK    2  A    between atoms: C_5  and  C_29
REMARK    3  A    between atoms: N_8  and  C_10
REMARK    4  A    between atoms: C_10  and  C_11
REMARK    5  A    between atoms: C_11  and  C_12
REMARK    6  A    between atoms: C_12  and  N_13
REMARK    7  A    between atoms: C_14  and  C_16
REMARK    8  A    between atoms: C_16  and  C_28
REMARK    9  A    between atoms: C_25  and  C_27
REMARK                            x       y       z     vdW  Elec       q    Type
REMARK                         _______ _______ _______ _____ _____    ______ ____
ROOT
ATOM      1  N   UNL     1       5.198  -2.115   3.294  0.00  0.00    -0.314 N 
ATOM      2  C   UNL     1       6.100  -2.446   4.238  0.00  0.00    +0.237 C 
ATOM      3  O   UNL     1       5.755  -3.088   5.208  0.00  0.00    -0.273 OA
ATOM      4  H   UNL     1       5.474  -1.601   2.519  0.00  0.00    +0.149 HD
ENDROOT
BRANCH   2   5
ATOM      5  C   UNL     1       7.538  -2.020   4.090  0.00  0.00    +0.121 C 
ATOM      6  C   UNL     1       7.707  -0.588   4.613  0.00  0.00    +0.133 C 
ATOM      7  C   UNL     1       9.082  -0.099   4.226  0.00  0.00    +0.240 C 
ATOM      8  O   UNL     1       9.695   0.645   4.969  0.00  0.00    -0.274 OA
ATOM      9  N   UNL     1       9.621  -0.480   3.082  0.00  0.00    -0.165 NA
ATOM     10  C   UNL     1       8.981  -1.306   2.245  0.00  0.00    +0.119 C 
ATOM     11  N   UNL     1       7.916  -2.046   2.671  0.00  0.00    -0.279 N 
ATOM     12  C   UNL     1       7.215  -2.812   1.801  0.00  0.00    +0.078 C 
ATOM     13  C   UNL     1       7.610  -2.931   0.509  0.00  0.00    +0.019 C 
ATOM     14  C   UNL     1       8.743  -2.245   0.059  0.00  0.00    -0.046 C 
ATOM     15  C   UNL     1       9.426  -1.436   0.922  0.00  0.00    +0.044 C 
ATOM     16  C   UNL     1       9.207  -2.398  -1.367  0.00  0.00    +0.044 C 
ATOM     17  C   UNL     1       8.440  -2.970   4.880  0.00  0.00    +0.042 C 
ENDBRANCH   2   5
BRANCH   1  18
ATOM     18  C   UNL     1       3.800  -2.529   3.438  0.00  0.00    +0.102 C 
BRANCH  18  19
ATOM     19  C   UNL     1       2.993  -2.028   2.239  0.00  0.00    +0.000 C 
BRANCH  19  20
ATOM     20  C   UNL     1       1.534  -2.461   2.390  0.00  0.00    -0.077 C 
BRANCH  20  26
ATOM     21  C   UNL     1      -0.019   1.526   0.010  0.00  0.00    +0.005 C 
ATOM     22  C   UNL     1       0.002  -0.004   0.002  0.00  0.00    -0.031 C 
ATOM     23  C   UNL     1      -1.434  -0.535   0.015  0.00  0.00    +0.003 C 
ATOM     24  C   UNL     1      -1.402  -2.064   0.086  0.00  0.00    -0.031 C 
ATOM     25  C   UNL     1      -0.613  -2.496   1.324  0.00  0.00    -0.076 C 
ATOM     26  N   UNL     1       0.758  -1.980   1.239  0.00  0.00    +0.380 N 
ATOM     27  C   UNL     1       0.740  -0.512   1.242  0.00  0.00    -0.076 C 
ATOM     28  C   UNL     1      -2.832  -2.602   0.177  0.00  0.00    +0.005 C 
ATOM     29  H   UNL     1       1.188  -2.307   0.386  0.00  0.00    -0.082 HD
ENDBRANCH  20  26
ENDBRANCH  19  20
ENDBRANCH  18  19
ENDBRANCH   1  18
TORSDOF 5
