REMARK  Name = ZINC35788703
REMARK  7 active torsions:
REMARK  status: ('A' for Active; 'I' for Inactive)
REMARK    1  A    between atoms: C_1  and  C_2
REMARK    2  A    between atoms: C_5  and  C_39
REMARK    3  A    between atoms: C_6  and  C_8
REMARK    4  A    between atoms: C_11  and  C_14
REMARK    5  A    between atoms: C_23  and  C_25
REMARK    6  A    between atoms: C_25  and  N_26
REMARK    7  A    between atoms: N_29  and  C_32
REMARK                            x       y       z     vdW  Elec       q    Type
REMARK                         _______ _______ _______ _____ _____    ______ ____
ROOT
ATOM      1  C   UNL     1       0.515  -2.651   2.511  0.00  0.00    +0.069 C 
ATOM      2  N   UNL     1       0.637  -3.920   2.696  0.00  0.00    -0.181 NA
ATOM      3  N   UNL     1       0.874  -4.282   4.021  0.00  0.00    -0.187 N 
ATOM      4  C   UNL     1       0.915  -3.064   4.846  0.00  0.00    +0.137 C 
ATOM      5  C   UNL     1       0.677  -1.930   3.830  0.00  0.00    +0.087 C 
ATOM      6  C   UNL     1       1.038  -5.541   4.472  0.00  0.00    +0.219 C 
ATOM      7  O   UNL     1       1.239  -5.741   5.651  0.00  0.00    -0.276 OA
ENDROOT
BRANCH   4   8
ATOM      8  C   UNL     1      -0.174  -3.092   5.887  0.00  0.00    -0.021 A 
ATOM      9  C   UNL     1      -1.418  -3.606   5.571  0.00  0.00    +0.009 A 
ATOM     10  C   UNL     1      -2.420  -3.635   6.522  0.00  0.00    +0.050 A 
ATOM     11  C   UNL     1      -2.180  -3.147   7.797  0.00  0.00    +0.166 A 
ATOM     12  C   UNL     1      -0.927  -2.630   8.116  0.00  0.00    +0.167 A 
ATOM     13  C   UNL     1       0.074  -2.610   7.159  0.00  0.00    +0.055 A 
ATOM     14  O   UNL     1      -0.944  -2.218   9.417  0.00  0.00    -0.453 OA
ATOM     15  C   UNL     1      -2.336  -2.114   9.770  0.00  0.00    +0.466 C 
ATOM     16  O   UNL     1      -2.982  -3.061   8.898  0.00  0.00    -0.453 OA
ENDBRANCH   4   8
BRANCH   1  22
ATOM     17  C   UNL     1       0.013   1.496  -0.214  0.00  0.00    +0.044 C 
ATOM     18  C   UNL     1       0.018  -0.007  -0.105  0.00  0.00    -0.050 A 
ATOM     19  C   UNL     1      -0.216  -0.781  -1.228  0.00  0.00    +0.003 A 
ATOM     20  C   UNL     1      -0.213  -2.161  -1.138  0.00  0.00    +0.004 A 
ATOM     21  C   UNL     1       0.023  -2.776   0.074  0.00  0.00    -0.042 A 
ATOM     22  C   UNL     1       0.261  -2.001   1.212  0.00  0.00    +0.001 A 
ATOM     23  C   UNL     1       0.262  -0.608   1.112  0.00  0.00    +0.013 A 
ATOM     24  C   UNL     1       0.025  -4.280   0.171  0.00  0.00    +0.044 C 
ENDBRANCH   1  22
BRANCH   6  25
ATOM     25  C   UNL     1       0.970  -6.700   3.511  0.00  0.00    +0.021 C 
BRANCH  25  26
ATOM     26  N   UNL     1       1.178  -7.956   4.245  0.00  0.00    +0.387 N 
ATOM     27  C   UNL     1       2.537  -7.977   4.800  0.00  0.00    -0.059 C 
ATOM     28  C   UNL     1       2.717  -9.233   5.660  0.00  0.00    +0.086 C 
ATOM     29  N   UNL     1       2.376 -10.409   4.845  0.00  0.00    -0.331 N 
ATOM     30  C   UNL     1       1.097 -10.401   4.117  0.00  0.00    +0.086 C 
ATOM     31  C   UNL     1       0.994  -9.091   3.331  0.00  0.00    -0.059 C 
ATOM     32  H   UNL     1       0.509  -8.020   4.997  0.00  0.00    -0.081 HD
BRANCH  29  33
ATOM     33  C   UNL     1       3.243 -11.503   4.763  0.00  0.00    +0.065 A 
ATOM     34  C   UNL     1       3.129 -12.550   5.668  0.00  0.00    +0.026 A 
ATOM     35  C   UNL     1       3.986 -13.630   5.584  0.00  0.00    +0.002 A 
ATOM     36  C   UNL     1       4.959 -13.670   4.602  0.00  0.00    +0.003 A 
ATOM     37  C   UNL     1       5.077 -12.629   3.699  0.00  0.00    +0.040 A 
ATOM     38  C   UNL     1       4.218 -11.548   3.773  0.00  0.00    +0.144 A 
ATOM     39  F   UNL     1       4.330 -10.533   2.887  0.00  0.00    -0.204 F 
ENDBRANCH  29  33
ENDBRANCH  25  26
ENDBRANCH   6  25
TORSDOF 5
