REMARK  Name = ZINC63830786
REMARK  11 active torsions:
REMARK  status: ('A' for Active; 'I' for Inactive)
REMARK    1  A    between atoms: C_1  and  C_2
REMARK    2  A    between atoms: C_2  and  C_4
REMARK    3  A    between atoms: C_2  and  N_11
REMARK    4  A    between atoms: N_11  and  C_12
REMARK    5  A    between atoms: C_12  and  C_13
REMARK    6  A    between atoms: C_13  and  C_15
REMARK    7  A    between atoms: C_13  and  C_25
REMARK    8  A    between atoms: C_19  and  O_23
REMARK    9  A    between atoms: C_20  and  O_21
REMARK   10  A    between atoms: O_21  and  C_22
REMARK   11  A    between atoms: O_23  and  C_24
REMARK                            x       y       z     vdW  Elec       q    Type
REMARK                         _______ _______ _______ _____ _____    ______ ____
ROOT
ATOM      1  C   UNL     1       3.067  -0.594   2.082  0.00  0.00    +0.034 C 
ENDROOT
BRANCH   1   2
ATOM      2  C   UNL     1       2.627   0.066   3.363  0.00  0.00    -0.036 C 
ATOM      3  C   UNL     1       2.155  -0.547   4.473  0.00  0.00    -0.001 A 
ATOM      4  C   UNL     1       1.917  -1.957   4.806  0.00  0.00    +0.010 A 
ATOM      5  C   UNL     1       1.425  -2.269   6.026  0.00  0.00    +0.001 A 
ATOM      6  C   UNL     1       1.137  -1.282   6.979  0.00  0.00    +0.002 A 
ATOM      7  C   UNL     1       1.329   0.034   6.747  0.00  0.00    +0.026 A 
ATOM      8  C   UNL     1       1.843   0.476   5.497  0.00  0.00    +0.043 A 
ATOM      9  N   UNL     1       2.111   1.674   5.038  0.00  0.00    -0.380 N 
ATOM     10  C   UNL     1       2.631   1.546   3.672  0.00  0.00    +0.145 C 
ATOM     11  H   UNL     1       1.991   2.506   5.522  0.00  0.00    +0.160 HD
ENDBRANCH   1   2
BRANCH   1  12
ATOM     12  C   UNL     1       4.516  -0.272   1.822  0.00  0.00    +0.003 A 
ATOM     13  C   UNL     1       4.917   1.044   1.681  0.00  0.00    +0.008 A 
ATOM     14  C   UNL     1       6.245   1.343   1.443  0.00  0.00    +0.004 A 
ATOM     15  C   UNL     1       7.179   0.327   1.344  0.00  0.00    +0.049 A 
ATOM     16  C   UNL     1       6.784  -0.993   1.485  0.00  0.00    +0.162 A 
ATOM     17  C   UNL     1       5.447  -1.294   1.731  0.00  0.00    +0.165 A 
BRANCH  17  18
ATOM     18  O   UNL     1       5.055  -2.588   1.875  0.00  0.00    -0.491 OA
ATOM     19  C   UNL     1       4.660  -3.282   0.691  0.00  0.00    +0.277 C 
ENDBRANCH  17  18
BRANCH  16  20
ATOM     20  O   UNL     1       7.700  -1.993   1.389  0.00  0.00    -0.491 OA
ATOM     21  C   UNL     1       9.055  -1.609   1.141  0.00  0.00    +0.277 C 
ENDBRANCH  16  20
ENDBRANCH   1  12
BRANCH   1  22
ATOM     22  C   UNL     1       2.213  -0.076   0.922  0.00  0.00    -0.069 C 
BRANCH  22  23
ATOM     23  N   UNL     1       0.818  -0.494   1.116  0.00  0.00    +0.387 N 
ATOM     24  H   UNL     1       0.471  -0.115   1.985  0.00  0.00    -0.085 HD
ATOM     25  H   UNL     1       0.770  -1.501   1.145  0.00  0.00    -0.085 HD
BRANCH  23  27
ATOM     26  C   UNL     1      -0.029   1.534   0.034  0.00  0.00    -0.004 C 
ATOM     27  C   UNL     1      -0.001   0.004   0.003  0.00  0.00    +0.013 C 
BRANCH  27  28
ATOM     28  C   UNL     1      -1.405  -0.526   0.137  0.00  0.00    +0.201 C 
ATOM     29  O   UNL     1      -1.836  -0.833   1.228  0.00  0.00    -0.277 OA
ATOM     30  N   UNL     1      -2.182  -0.659  -0.957  0.00  0.00    -0.303 N 
ATOM     31  C   UNL     1      -1.752  -0.439  -2.345  0.00  0.00    +0.108 C 
ATOM     32  C   UNL     1      -2.979  -0.683  -3.249  0.00  0.00    +0.020 C 
ATOM     33  C   UNL     1      -4.172  -0.474  -2.279  0.00  0.00    +0.020 C 
ATOM     34  C   UNL     1      -3.602  -1.056  -0.959  0.00  0.00    +0.108 C 
ENDBRANCH  27  28
ENDBRANCH  23  27
ENDBRANCH  22  23
ENDBRANCH   1  22
TORSDOF 8
