REMARK  Name = ZINC66392731
REMARK  5 active torsions:
REMARK  status: ('A' for Active; 'I' for Inactive)
REMARK    1  A    between atoms: C_3  and  C_9
REMARK    2  A    between atoms: C_9  and  C_11
REMARK    3  A    between atoms: C_9  and  N_13
REMARK    4  A    between atoms: C_14  and  C_16
REMARK    5  A    between atoms: C_23  and  N_26
REMARK                            x       y       z     vdW  Elec       q    Type
REMARK                         _______ _______ _______ _____ _____    ______ ____
ROOT
ATOM      1  N   UNL     1       3.454   3.508   0.570  0.00  0.00    -0.292 N 
ATOM      2  C   UNL     1       4.485   4.173   1.129  0.00  0.00    +0.247 C 
ATOM      3  O   UNL     1       5.595   3.675   1.142  0.00  0.00    -0.270 OA
ATOM      4  H   UNL     1       2.570   3.905   0.560  0.00  0.00    +0.151 HD
ENDROOT
BRANCH   2   5
ATOM      5  C   UNL     1       4.267   5.499   1.724  0.00  0.00    +0.062 A 
ATOM      6  C   UNL     1       3.088   6.180   1.790  0.00  0.00    +0.096 A 
ATOM      7  N   UNL     1       3.280   7.369   2.410  0.00  0.00    -0.360 N 
ATOM      8  H   UNL     1       2.585   8.027   2.574  0.00  0.00    +0.165 HD
ATOM      9  C   UNL     1       4.602   7.514   2.775  0.00  0.00    +0.047 A 
ATOM     10  C   UNL     1       5.280   6.353   2.371  0.00  0.00    +0.014 A 
ATOM     11  C   UNL     1       6.644   6.218   2.618  0.00  0.00    +0.043 A 
ATOM     12  C   UNL     1       7.322   7.229   3.264  0.00  0.00    +0.127 A 
ATOM     13  C   UNL     1       6.654   8.375   3.668  0.00  0.00    +0.035 A 
ATOM     14  C   UNL     1       5.306   8.525   3.422  0.00  0.00    +0.028 A 
BRANCH  12  15
ATOM     15  N   UNL     1       8.772   7.090   3.529  0.00  0.00    +0.056 N 
ATOM     16  O   UNL     1       9.358   6.092   3.179  0.00  0.00    -0.126 OA
ATOM     17  O   UNL     1       9.370   7.975   4.096  0.00  0.00    -0.126 OA
ENDBRANCH  12  15
ENDBRANCH   2   5
BRANCH   1  18
ATOM     18  C   UNL     1       3.671   2.186  -0.023  0.00  0.00    +0.208 C 
BRANCH  18  21
ATOM     19  C   UNL     1      -0.017   1.378   0.010  0.00  0.00    +0.002 A 
ATOM     20  C   UNL     1       1.171   2.086   0.002  0.00  0.00    +0.008 A 
ATOM     21  C   UNL     1       2.378   1.413  -0.013  0.00  0.00    +0.006 A 
ATOM     22  C   UNL     1       2.398   0.030  -0.021  0.00  0.00    +0.065 A 
ATOM     23  C   UNL     1       1.209  -0.679  -0.013  0.00  0.00    +0.060 A 
ATOM     24  C   UNL     1       0.002  -0.004   0.002  0.00  0.00    +0.021 A 
ATOM     25 CL   UNL     1       1.234  -2.415  -0.023  0.00  0.00    -0.082 Cl
ATOM     26 CL   UNL     1       3.914  -0.816  -0.041  0.00  0.00    -0.082 Cl
ENDBRANCH  18  21
BRANCH  18  27
ATOM     27  C   UNL     1       4.141   2.341  -1.409  0.00  0.00    +0.090 C 
ATOM     28  N   UNL     1       4.503   2.460  -2.479  0.00  0.00    -0.194 NA
ENDBRANCH  18  27
ENDBRANCH   1  18
TORSDOF 5
