REMARK  Name = ZINC67235814
REMARK  6 active torsions:
REMARK  status: ('A' for Active; 'I' for Inactive)
REMARK    1  A    between atoms: C_1  and  C_2
REMARK    2  A    between atoms: C_2  and  C_3
REMARK    3  A    between atoms: C_10  and  C_12
REMARK    4  A    between atoms: C_12  and  S_13
REMARK    5  A    between atoms: S_13  and  C_14
REMARK    6  A    between atoms: C_23  and  C_26
REMARK                            x       y       z     vdW  Elec       q    Type
REMARK                         _______ _______ _______ _____ _____    ______ ____
ROOT
ATOM      1  C   UNL     1      -4.066   2.711  -4.516  0.00  0.00    +0.170 A 
ATOM      2  N   UNL     1      -5.178   3.502  -4.483  0.00  0.00    -0.300 N 
ATOM      3  H   UNL     1      -5.500   3.846  -3.635  0.00  0.00    +0.171 HD
ATOM      4  C   UNL     1      -5.832   3.810  -5.624  0.00  0.00    +0.276 A 
ATOM      5  O   UNL     1      -6.826   4.518  -5.601  0.00  0.00    -0.266 OA
ATOM      6  C   UNL     1      -5.342   3.298  -6.839  0.00  0.00    +0.130 A 
ATOM      7  C   UNL     1      -4.198   2.491  -6.816  0.00  0.00    +0.097 A 
ATOM      8  N   UNL     1      -3.593   2.229  -5.641  0.00  0.00    -0.222 NA
ATOM      9  C   UNL     1      -3.936   2.124  -8.155  0.00  0.00    +0.051 A 
ATOM     10  C   UNL     1      -4.882   2.689  -8.932  0.00  0.00    +0.016 A 
ATOM     11  N   UNL     1      -5.742   3.403  -8.155  0.00  0.00    -0.353 N 
ATOM     12  H   UNL     1      -6.510   3.903  -8.473  0.00  0.00    +0.166 HD
ATOM     13  C   UNL     1      -4.973   2.551 -10.430  0.00  0.00    +0.063 C 
ENDROOT
BRANCH   1  14
ATOM     14  S   UNL     1      -3.239   2.332  -3.007  0.00  0.00    -0.078 S 
BRANCH  14  15
ATOM     15  C   UNL     1      -1.847   1.288  -3.519  0.00  0.00    +0.173 C 
BRANCH  15  22
ATOM     16  C   UNL     1       0.765  -0.389  -1.266  0.00  0.00    +0.076 C 
ATOM     17  C   UNL     1       0.888  -1.913  -1.363  0.00  0.00    +0.022 C 
ATOM     18  C   UNL     1       1.536  -2.285  -2.698  0.00  0.00    +0.003 C 
ATOM     19  C   UNL     1       0.653  -1.798  -3.849  0.00  0.00    +0.019 C 
ATOM     20  C   UNL     1       0.527  -0.273  -3.781  0.00  0.00    +0.108 C 
ATOM     21  N   UNL     1       0.042   0.105  -2.446  0.00  0.00    -0.298 N 
ATOM     22  C   UNL     1      -1.047   0.887  -2.307  0.00  0.00    +0.226 C 
ATOM     23  O   UNL     1      -1.382   1.269  -1.205  0.00  0.00    -0.275 OA
BRANCH  16  25
ATOM     24  C   UNL     1       0.726  -0.570   1.225  0.00  0.00    +0.006 C 
ATOM     25  C   UNL     1      -0.007  -0.017   0.001  0.00  0.00    +0.019 C 
ENDBRANCH  16  25
ENDBRANCH  15  22
ENDBRANCH  14  15
ENDBRANCH   1  14
TORSDOF 4
