REMARK  Name = ZINC43303710
REMARK  3 active torsions:
REMARK  status: ('A' for Active; 'I' for Inactive)
REMARK    1  A    between atoms: C_6  and  C_7
REMARK    2  A    between atoms: C_7  and  C_9
REMARK    3  A    between atoms: C_7  and  O_17
REMARK                            x       y       z     vdW  Elec       q    Type
REMARK                         _______ _______ _______ _____ _____    ______ ____
ROOT
ATOM      1  C   UNL     1      -1.294  -0.774   0.010  0.00  0.00    +0.149 C 
ENDROOT
BRANCH   1   7
ATOM      2  C   UNL     1      -0.017   1.378   0.010  0.00  0.00    +0.010 A 
ATOM      3  C   UNL     1       1.170   2.088   0.002  0.00  0.00    +0.050 A 
ATOM      4  C   UNL     1       2.380   1.416  -0.013  0.00  0.00    +0.166 A 
ATOM      5  C   UNL     1       2.399   0.023  -0.021  0.00  0.00    +0.167 A 
ATOM      6  C   UNL     1       1.207  -0.682  -0.014  0.00  0.00    +0.055 A 
ATOM      7  C   UNL     1       0.002  -0.004   0.002  0.00  0.00    -0.015 A 
ATOM      8  O   UNL     1       3.698  -0.395  -0.036  0.00  0.00    -0.453 OA
ATOM      9  C   UNL     1       4.466   0.750  -0.450  0.00  0.00    +0.466 C 
ATOM     10  O   UNL     1       3.668   1.870  -0.024  0.00  0.00    -0.453 OA
ENDBRANCH   1   7
BRANCH   1  11
ATOM     11  C   UNL     1      -1.810  -0.918  -1.423  0.00  0.00    +0.045 C 
ATOM     12  C   UNL     1      -2.080   0.473  -2.020  0.00  0.00    +0.030 C 
ATOM     13  C   UNL     1      -2.894   0.335  -3.329  0.00  0.00    +0.166 C 
ATOM     14  S   UNL     1      -3.831  -1.224  -3.061  0.00  0.00    -0.031 S 
ATOM     15  O   UNL     1      -3.428  -2.179  -4.034  0.00  0.00    -0.174 OA
ATOM     16  O   UNL     1      -5.210  -0.916  -2.914  0.00  0.00    -0.174 OA
ATOM     17  C   UNL     1      -3.147  -1.713  -1.422  0.00  0.00    +0.172 C 
ENDBRANCH   1  11
BRANCH   1  18
ATOM     18  O   UNL     1      -2.259  -0.072   0.796  0.00  0.00    -0.387 OA
ATOM     19  H   UNL     1      -2.458   0.817   0.473  0.00  0.00    +0.210 HD
ENDBRANCH   1  18
TORSDOF 3
