REMARK  Name = ZINC06319485
REMARK  9 active torsions:
REMARK  status: ('A' for Active; 'I' for Inactive)
REMARK    1  A    between atoms: C_1  and  C_2
REMARK    2  A    between atoms: C_2  and  C_3
REMARK    3  A    between atoms: C_3  and  C_5
REMARK    4  A    between atoms: C_3  and  C_6
REMARK    5  A    between atoms: C_9  and  O_27
REMARK    6  A    between atoms: C_10  and  N_12
REMARK    7  A    between atoms: N_12  and  C_13
REMARK    8  A    between atoms: C_13  and  N_15
REMARK    9  A    between atoms: C_16  and  C_18
REMARK                            x       y       z     vdW  Elec       q    Type
REMARK                         _______ _______ _______ _____ _____    ______ ____
ROOT
ATOM      1  C   UNL     1       6.932  -2.445   2.697  0.00  0.00    +0.141 C 
ATOM      2  S   UNL     1       8.253  -1.738   1.869  0.00  0.00    -0.018 S 
ENDROOT
BRANCH   1   3
ATOM      3  N   UNL     1       5.688  -2.346   2.189  0.00  0.00    -0.264 N 
ATOM      4  C   UNL     1       5.484  -1.691   1.029  0.00  0.00    +0.250 C 
ATOM      5  O   UNL     1       6.422  -1.189   0.441  0.00  0.00    -0.270 OA
ATOM      6  H   UNL     1       4.939  -2.747   2.658  0.00  0.00    +0.157 HD
BRANCH   4   7
ATOM      7  C   UNL     1       4.121  -1.583   0.473  0.00  0.00    +0.041 A 
ATOM      8  C   UNL     1       3.042  -2.159   1.147  0.00  0.00    +0.017 A 
ATOM      9  C   UNL     1       1.771  -2.058   0.626  0.00  0.00    +0.050 A 
ATOM     10  C   UNL     1       1.557  -1.384  -0.570  0.00  0.00    +0.166 A 
ATOM     11  C   UNL     1       2.631  -0.806  -1.248  0.00  0.00    +0.167 A 
ATOM     12  C   UNL     1       3.908  -0.905  -0.730  0.00  0.00    +0.062 A 
ATOM     13  O   UNL     1       2.159  -0.210  -2.382  0.00  0.00    -0.453 OA
ATOM     14  C   UNL     1       0.740  -0.076  -2.183  0.00  0.00    +0.466 C 
ATOM     15  O   UNL     1       0.417  -1.150  -1.280  0.00  0.00    -0.453 OA
ENDBRANCH   4   7
ENDBRANCH   1   3
BRANCH   1  16
ATOM     16  N   UNL     1       7.136  -3.100   3.857  0.00  0.00    -0.294 N 
ATOM     17  H   UNL     1       6.381  -3.446   4.358  0.00  0.00    +0.154 HD
BRANCH  16  22
ATOM     18  C   UNL     1      10.608  -2.393   4.848  0.00  0.00    -0.043 A 
ATOM     19  C   UNL     1      11.015  -3.637   5.293  0.00  0.00    +0.007 A 
ATOM     20  C   UNL     1      10.140  -4.706   5.265  0.00  0.00    +0.047 A 
ATOM     21  C   UNL     1       8.848  -4.532   4.794  0.00  0.00    +0.138 A 
ATOM     22  C   UNL     1       8.439  -3.280   4.340  0.00  0.00    +0.075 A 
ATOM     23  C   UNL     1       9.323  -2.212   4.372  0.00  0.00    +0.031 A 
BRANCH  18  24
ATOM     24  C   UNL     1      11.568  -1.231   4.882  0.00  0.00    +0.016 C 
ATOM     25  C   UNL     1      12.014  -0.981   6.324  0.00  0.00    +0.012 C 
BRANCH  24  27
ATOM     26  C   UNL     1      13.703  -0.328   3.952  0.00  0.00    +0.004 C 
ATOM     27  C   UNL     1      12.789  -1.553   4.018  0.00  0.00    +0.004 C 
ENDBRANCH  24  27
ENDBRANCH  18  24
BRANCH  21  28
ATOM     28  O   UNL     1       7.984  -5.582   4.770  0.00  0.00    -0.505 OA
ATOM     29  H   UNL     1       8.007  -6.092   3.949  0.00  0.00    +0.292 HD
ENDBRANCH  21  28
ENDBRANCH  16  22
ENDBRANCH   1  16
TORSDOF 7
