REMARK  Name = ZINC63616955
REMARK  6 active torsions:
REMARK  status: ('A' for Active; 'I' for Inactive)
REMARK    1  A    between atoms: C_1  and  C_2
REMARK    2  A    between atoms: C_5  and  C_7
REMARK    3  A    between atoms: N_11  and  C_21
REMARK    4  A    between atoms: N_13  and  C_14
REMARK    5  A    between atoms: C_21  and  C_22
REMARK    6  A    between atoms: C_22  and  C_23
REMARK                            x       y       z     vdW  Elec       q    Type
REMARK                         _______ _______ _______ _____ _____    ______ ____
ROOT
ATOM      1  C   UNL     1       1.060  -3.894  -0.026  0.00  0.00    +0.035 C 
ATOM      2  C   UNL     1       2.413  -4.061  -0.034  0.00  0.00    +0.079 C 
ATOM      3  C   UNL     1       3.200  -5.303  -0.051  0.00  0.00    +0.259 C 
ATOM      4  O   UNL     1       2.662  -6.396  -0.061  0.00  0.00    -0.269 OA
ATOM      5  N   UNL     1       4.516  -5.181  -0.055  0.00  0.00    -0.246 N 
ATOM      6  C   UNL     1       5.106  -3.937  -0.044  0.00  0.00    +0.168 C 
ATOM      7  N   UNL     1       6.386  -3.638  -0.046  0.00  0.00    -0.225 NA
ATOM      8  S   UNL     1       3.706  -2.828  -0.033  0.00  0.00    -0.049 S 
ENDROOT
BRANCH   1  13
ATOM      9  C   UNL     1      -0.018   1.503   0.010  0.00  0.00    +0.051 C 
ATOM     10  C   UNL     1       0.002  -0.004   0.002  0.00  0.00    -0.013 A 
ATOM     11  C   UNL     1      -1.057  -0.851   0.002  0.00  0.00    +0.011 A 
ATOM     12  C   UNL     1      -0.829  -2.206  -0.007  0.00  0.00    +0.016 A 
ATOM     13  C   UNL     1       0.507  -2.592  -0.016  0.00  0.00    +0.014 A 
ATOM     14  S   UNL     1       1.342  -1.017  -0.017  0.00  0.00    -0.094 S 
ENDBRANCH   1  13
BRANCH   7  15
ATOM     15  C   UNL     1       6.783  -2.329  -0.033  0.00  0.00    +0.067 A 
ATOM     16  C   UNL     1       6.162  -1.399  -0.870  0.00  0.00    +0.028 A 
ATOM     17  C   UNL     1       6.567  -0.080  -0.851  0.00  0.00    +0.002 A 
ATOM     18  C   UNL     1       7.587   0.322  -0.006  0.00  0.00    +0.000 A 
ATOM     19  C   UNL     1       8.207  -0.594   0.826  0.00  0.00    +0.002 A 
ATOM     20  C   UNL     1       7.808  -1.914   0.822  0.00  0.00    +0.028 A 
ENDBRANCH   7  15
BRANCH   5  21
ATOM     21  C   UNL     1       5.356  -6.382  -0.072  0.00  0.00    +0.120 C 
BRANCH  21  22
ATOM     22  C   UNL     1       5.642  -6.784  -1.520  0.00  0.00    +0.052 C 
BRANCH  22  23
ATOM     23  C   UNL     1       6.505  -8.019  -1.538  0.00  0.00    -0.040 C 
ATOM     24  C   UNL     1       6.089  -9.301  -1.650  0.00  0.00    -0.001 A 
ATOM     25  C   UNL     1       4.758  -9.906  -1.784  0.00  0.00    +0.010 A 
ATOM     26  C   UNL     1       4.656 -11.251  -1.877  0.00  0.00    +0.001 A 
ATOM     27  C   UNL     1       5.786 -12.080  -1.849  0.00  0.00    +0.002 A 
ATOM     28  C   UNL     1       7.041 -11.598  -1.729  0.00  0.00    +0.026 A 
ATOM     29  C   UNL     1       7.266 -10.198  -1.624  0.00  0.00    +0.043 A 
ATOM     30  N   UNL     1       8.368  -9.498  -1.500  0.00  0.00    -0.380 N 
ATOM     31  C   UNL     1       8.014  -8.075  -1.440  0.00  0.00    +0.144 C 
ATOM     32  H   UNL     1       9.267  -9.860  -1.459  0.00  0.00    +0.160 HD
ENDBRANCH  22  23
ENDBRANCH  21  22
ENDBRANCH   5  21
TORSDOF 5
