REMARK  Name = ZINC35777276
REMARK  16 active torsions:
REMARK  status: ('A' for Active; 'I' for Inactive)
REMARK    1  A    between atoms: C_1  and  C_2
REMARK    2  A    between atoms: C_7  and  O_8
REMARK    3  A    between atoms: O_8  and  C_9
REMARK    4  A    between atoms: C_9  and  C_10
REMARK    5  A    between atoms: C_10  and  C_12
REMARK    6  A    between atoms: C_10  and  O_39
REMARK    7  A    between atoms: C_12  and  N_13
REMARK    8  A    between atoms: N_13  and  C_14
REMARK    9  A    between atoms: N_13  and  C_36
REMARK   10  A    between atoms: C_14  and  C_15
REMARK   11  A    between atoms: C_16  and  C_35
REMARK   12  A    between atoms: N_18  and  C_29
REMARK   13  A    between atoms: C_19  and  O_20
REMARK   14  A    between atoms: O_20  and  C_21
REMARK   15  A    between atoms: C_26  and  O_27
REMARK   16  A    between atoms: O_27  and  C_28
REMARK                            x       y       z     vdW  Elec       q    Type
REMARK                         _______ _______ _______ _____ _____    ______ ____
ROOT
ATOM      1  C   UNL     1       0.515   0.334   9.593  0.00  0.00    +0.021 A 
ATOM      2  C   UNL     1       1.775   0.832   9.940  0.00  0.00    +0.065 A 
ATOM      3  N   UNL     1       1.623   1.710  10.899  0.00  0.00    -0.168 NA
ATOM      4  N   UNL     1       0.258   1.805  11.199  0.00  0.00    -0.200 N 
ATOM      5  C   UNL     1      -0.409   0.952  10.377  0.00  0.00    +0.225 A 
ATOM      6  C   UNL     1       3.085   0.425   9.316  0.00  0.00    +0.068 C 
ENDROOT
BRANCH   4   7
ATOM      7  C   UNL     1      -0.318   2.636  12.170  0.00  0.00    +0.069 A 
ATOM      8  C   UNL     1      -1.499   3.312  11.895  0.00  0.00    +0.028 A 
ATOM      9  C   UNL     1      -2.064   4.130  12.853  0.00  0.00    +0.002 A 
ATOM     10  C   UNL     1      -1.454   4.278  14.085  0.00  0.00    +0.000 A 
ATOM     11  C   UNL     1      -0.277   3.607  14.362  0.00  0.00    +0.002 A 
ATOM     12  C   UNL     1       0.289   2.782  13.410  0.00  0.00    +0.028 A 
ENDBRANCH   4   7
BRANCH   1  13
ATOM     13  C   UNL     1       0.231  -0.698   8.533  0.00  0.00    -0.035 C 
BRANCH  13  14
ATOM     14  N   UNL     1      -0.136  -0.025   7.279  0.00  0.00    +0.386 N 
ATOM     15  H   UNL     1      -0.915   0.594   7.446  0.00  0.00    -0.081 HD
BRANCH  14  16
ATOM     16  C   UNL     1      -0.516  -1.030   6.277  0.00  0.00    -0.068 C 
ATOM     17  C   UNL     1      -1.880  -0.875   5.603  0.00  0.00    -0.017 C 
ATOM     18  C   UNL     1      -1.657  -1.985   6.631  0.00  0.00    -0.017 C 
ENDBRANCH  14  16
BRANCH  14  19
ATOM     19  C   UNL     1       1.010   0.750   6.786  0.00  0.00    -0.043 C 
BRANCH  19  20
ATOM     20  C   UNL     1       0.591   1.549   5.550  0.00  0.00    +0.135 C 
BRANCH  20  21
ATOM     21  O   UNL     1       0.149   0.652   4.530  0.00  0.00    -0.390 OA
ATOM     22  H   UNL     1       0.821   0.017   4.245  0.00  0.00    +0.210 HD
ENDBRANCH  20  21
BRANCH  20  23
ATOM     23  C   UNL     1       1.785   2.356   5.037  0.00  0.00    +0.258 C 
BRANCH  23  24
ATOM     24  O   UNL     1       1.366   3.191   3.955  0.00  0.00    -0.489 OA
BRANCH  24  31
ATOM     25  C   UNL     1       0.557   4.848   1.815  0.00  0.00    +0.047 C 
ATOM     26  C   UNL     1       1.974   4.814   2.326  0.00  0.00    -0.009 A 
ATOM     27  C   UNL     1       2.937   5.619   1.748  0.00  0.00    +0.007 A 
ATOM     28  C   UNL     1       4.238   5.588   2.216  0.00  0.00    +0.000 A 
ATOM     29  C   UNL     1       4.578   4.752   3.264  0.00  0.00    +0.004 A 
ATOM     30  C   UNL     1       3.619   3.946   3.845  0.00  0.00    +0.046 A 
ATOM     31  C   UNL     1       2.312   3.979   3.381  0.00  0.00    +0.124 A 
ENDBRANCH  24  31
ENDBRANCH  23  24
ENDBRANCH  20  23
ENDBRANCH  19  20
ENDBRANCH  14  19
ENDBRANCH  13  14
ENDBRANCH   1  13
BRANCH   5  32
ATOM     32  O   UNL     1      -1.750   0.750  10.347  0.00  0.00    -0.434 OA
BRANCH  32  33
ATOM     33  C   UNL     1      -2.281  -0.148  11.219  0.00  0.00    +0.172 A 
ATOM     34  C   UNL     1      -1.476  -0.743  12.178  0.00  0.00    +0.050 A 
ATOM     35  C   UNL     1      -2.018  -1.655  13.065  0.00  0.00    +0.004 A 
ATOM     36  C   UNL     1      -3.360  -1.977  12.996  0.00  0.00    +0.004 A 
ATOM     37  C   UNL     1      -4.168  -1.388  12.042  0.00  0.00    +0.049 A 
ATOM     38  C   UNL     1      -3.634  -0.468  11.154  0.00  0.00    +0.162 A 
BRANCH  38  39
ATOM     39  O   UNL     1      -4.428   0.116  10.218  0.00  0.00    -0.491 OA
ATOM     40  C   UNL     1      -5.807  -0.261  10.210  0.00  0.00    +0.277 C 
ENDBRANCH  38  39
ENDBRANCH  32  33
ENDBRANCH   5  32
TORSDOF 13
