REMARK  Name = ZINC42007478
REMARK  7 active torsions:
REMARK  status: ('A' for Active; 'I' for Inactive)
REMARK    1  A    between atoms: C_1  and  C_2
REMARK    2  A    between atoms: C_6  and  C_8
REMARK    3  A    between atoms: C_8  and  C_9
REMARK    4  A    between atoms: C_8  and  C_10
REMARK    5  A    between atoms: C_8  and  S_13
REMARK    6  A    between atoms: S_13  and  C_14
REMARK    7  A    between atoms: C_19  and  N_20
REMARK                            x       y       z     vdW  Elec       q    Type
REMARK                         _______ _______ _______ _____ _____    ______ ____
ROOT
ATOM      1  C   UNL     1       0.009  -2.887   2.548  0.00  0.00    +0.144 C 
ATOM      2  C   UNL     1       0.162  -4.406   2.457  0.00  0.00    +0.040 C 
ENDROOT
BRANCH   1   8
ATOM      3  C   UNL     1      -1.175   0.999  -0.375  0.00  0.00    +0.044 C 
ATOM      4  C   UNL     1      -0.958  -0.482  -0.197  0.00  0.00    -0.050 A 
ATOM      5  C   UNL     1      -1.124  -1.339  -1.269  0.00  0.00    +0.003 A 
ATOM      6  C   UNL     1      -0.925  -2.697  -1.105  0.00  0.00    +0.001 A 
ATOM      7  C   UNL     1      -0.558  -3.198   0.130  0.00  0.00    +0.005 A 
ATOM      8  C   UNL     1      -0.391  -2.341   1.201  0.00  0.00    -0.020 A 
ATOM      9  C   UNL     1      -0.586  -0.982   1.037  0.00  0.00    +0.009 A 
ENDBRANCH   1   8
BRANCH   1  10
ATOM     10  C   UNL     1       1.319  -2.274   2.970  0.00  0.00    +0.376 C 
ATOM     11  O   UNL     1       1.384  -1.623   3.999  0.00  0.00    -0.244 OA
ATOM     12  O   UNL     1       2.314  -2.428   2.283  0.00  0.00    -0.244 OA
ENDBRANCH   1  10
BRANCH   1  13
ATOM     13  S   UNL     1      -1.271  -2.481   3.768  0.00  0.00    -0.101 S 
BRANCH  13  14
ATOM     14  C   UNL     1      -0.674  -3.195   5.265  0.00  0.00    +0.030 A 
ATOM     15  C   UNL     1       0.591  -3.762   5.309  0.00  0.00    +0.016 A 
ATOM     16  C   UNL     1       1.057  -4.322   6.484  0.00  0.00    +0.001 A 
ATOM     17  C   UNL     1       0.265  -4.319   7.618  0.00  0.00    +0.002 A 
ATOM     18  C   UNL     1      -0.998  -3.756   7.583  0.00  0.00    +0.024 A 
ATOM     19  C   UNL     1      -1.471  -3.187   6.410  0.00  0.00    +0.038 A 
BRANCH  19  20
ATOM     20  N   UNL     1      -2.747  -2.611   6.374  0.00  0.00    -0.357 N 
ATOM     21  H   UNL     1      -3.078  -2.217   5.552  0.00  0.00    +0.142 HD
ATOM     22  H   UNL     1      -3.299  -2.607   7.171  0.00  0.00    +0.142 HD
ENDBRANCH  19  20
ENDBRANCH  13  14
ENDBRANCH   1  13
TORSDOF 5
