REMARK  Name = ZINC64450317
REMARK  3 active torsions:
REMARK  status: ('A' for Active; 'I' for Inactive)
REMARK    1  A    between atoms: C_1  and  C_2
REMARK    2  A    between atoms: C_4  and  C_23
REMARK    3  A    between atoms: N_12  and  C_14
REMARK                            x       y       z     vdW  Elec       q    Type
REMARK                         _______ _______ _______ _____ _____    ______ ____
ROOT
ATOM      1  C   UNL     1      -0.975   1.396  -0.717  0.00  0.00    +0.062 C 
ATOM      2  C   UNL     1      -0.640  -0.071  -0.809  0.00  0.00    +0.019 C 
ATOM      3  C   UNL     1      -1.442  -1.032  -0.451  0.00  0.00    -0.008 C 
ATOM      4  C   UNL     1      -2.766  -1.002   0.273  0.00  0.00    +0.059 C 
ATOM      5  C   UNL     1      -2.551  -1.764   1.590  0.00  0.00    +0.108 C 
ATOM      6  C   UNL     1      -1.650  -2.942   1.410  0.00  0.00    +0.215 C 
ATOM      7  O   UNL     1      -1.711  -3.799   2.267  0.00  0.00    -0.276 OA
ATOM      8  N   UNL     1      -0.786  -3.162   0.418  0.00  0.00    -0.295 N 
ATOM      9  C   UNL     1      -0.753  -2.345  -0.787  0.00  0.00    +0.194 C 
ATOM     10  N   UNL     1       0.599  -1.936  -1.183  0.00  0.00    -0.164 NA
ATOM     11  N   UNL     1       0.559  -0.571  -1.292  0.00  0.00    -0.277 N 
ATOM     12  H   UNL     1      -0.156  -3.895   0.503  0.00  0.00    +0.151 HD
ATOM     13  H   UNL     1       1.275  -0.026  -1.657  0.00  0.00    +0.166 HD
ENDROOT
BRANCH  10  14
ATOM     14  C   UNL     1       1.590  -2.361  -0.186  0.00  0.00    +0.270 C 
ATOM     15  N   UNL     1       1.415  -1.596   1.056  0.00  0.00    -0.350 N 
ATOM     16  C   UNL     1       2.521  -0.943   1.271  0.00  0.00    +0.061 A 
ATOM     17  C   UNL     1       2.946  -0.023   2.335  0.00  0.00    +0.027 A 
ATOM     18  C   UNL     1       4.182   0.515   2.294  0.00  0.00    +0.002 A 
ATOM     19  C   UNL     1       5.097   0.234   1.265  0.00  0.00    +0.002 A 
ATOM     20  C   UNL     1       4.808  -0.595   0.241  0.00  0.00    +0.027 A 
ATOM     21  C   UNL     1       3.490  -1.241   0.181  0.00  0.00    +0.061 A 
ATOM     22  N   UNL     1       2.946  -2.066  -0.666  0.00  0.00    -0.350 N 
ATOM     23  H   UNL     1       0.621  -1.580   1.613  0.00  0.00    +0.163 HD
ATOM     24  H   UNL     1       3.361  -2.422  -1.467  0.00  0.00    +0.163 HD
ENDBRANCH  10  14
BRANCH   4  25
ATOM     25  C   UNL     1      -3.170   0.422   0.556  0.00  0.00    -0.026 A 
ATOM     26  C   UNL     1      -2.566   1.120   1.585  0.00  0.00    +0.005 A 
ATOM     27  C   UNL     1      -2.936   2.427   1.844  0.00  0.00    +0.000 A 
ATOM     28  C   UNL     1      -3.910   3.035   1.074  0.00  0.00    +0.001 A 
ATOM     29  C   UNL     1      -4.514   2.338   0.045  0.00  0.00    +0.015 A 
ATOM     30  C   UNL     1      -4.141   1.032  -0.218  0.00  0.00    +0.022 A 
ATOM     31 BR   UNL     1      -4.962   0.079  -1.630  0.00  0.00    -0.050 Br
ENDBRANCH   4  25
TORSDOF 2
