REMARK  Name = ZINC36029058
REMARK  13 active torsions:
REMARK  status: ('A' for Active; 'I' for Inactive)
REMARK    1  A    between atoms: C_1  and  C_2
REMARK    2  A    between atoms: C_2  and  C_3
REMARK    3  A    between atoms: C_2  and  C_4
REMARK    4  A    between atoms: C_4  and  C_5
REMARK    5  A    between atoms: N_9  and  C_28
REMARK    6  A    between atoms: N_14  and  C_17
REMARK    7  A    between atoms: C_17  and  N_19
REMARK    8  A    between atoms: N_19  and  C_20
REMARK    9  A    between atoms: C_23  and  O_26
REMARK   10  A    between atoms: O_26  and  C_27
REMARK   11  A    between atoms: C_28  and  C_29
REMARK   12  A    between atoms: C_29  and  C_30
REMARK   13  A    between atoms: C_29  and  C_31
REMARK                            x       y       z     vdW  Elec       q    Type
REMARK                         _______ _______ _______ _____ _____    ______ ____
ROOT
ATOM      1  C   UNL     1      -1.145  -1.542   0.998  0.00  0.00    +0.019 C 
ATOM      2  C   UNL     1      -2.513  -2.124   0.718  0.00  0.00    +0.200 C 
ATOM      3  O   UNL     1      -3.387  -1.597   0.063  0.00  0.00    -0.277 OA
ATOM      4  N   UNL     1      -2.597  -3.330   1.319  0.00  0.00    -0.313 N 
ATOM      5  C   UNL     1      -1.336  -3.621   2.007  0.00  0.00    +0.006 C 
ATOM      6  N   UNL     1      -0.621  -2.332   2.139  0.00  0.00    +0.401 N 
ATOM      7  C   UNL     1      -1.612  -4.202   3.393  0.00  0.00    +0.025 C 
ATOM      8  C   UNL     1      -2.384  -5.518   3.247  0.00  0.00    +0.107 C 
ATOM      9  N   UNL     1      -1.637  -6.407   2.347  0.00  0.00    -0.312 N 
ATOM     10  C   UNL     1      -1.258  -5.912   1.017  0.00  0.00    +0.107 C 
ATOM     11  C   UNL     1      -0.495  -4.593   1.181  0.00  0.00    +0.025 C 
ATOM     12  H   UNL     1       0.375  -2.465   2.052  0.00  0.00    -0.082 HD
ATOM     13  H   UNL     1      -0.848  -1.887   3.015  0.00  0.00    -0.082 HD
ENDROOT
BRANCH   9  14
ATOM     14  C   UNL     1      -1.306  -7.655   2.735  0.00  0.00    +0.137 C 
ATOM     15  S   UNL     1      -1.855  -8.258   4.239  0.00  0.00    -0.018 S 
BRANCH  14  16
ATOM     16  N   UNL     1      -0.541  -8.427   1.937  0.00  0.00    -0.297 N 
ATOM     17  H   UNL     1       0.381  -8.608   2.177  0.00  0.00    +0.154 HD
BRANCH  16  18
ATOM     18  C   UNL     1      -1.079  -8.969   0.762  0.00  0.00    +0.033 A 
ATOM     19  C   UNL     1      -2.370  -8.638   0.372  0.00  0.00    +0.027 A 
ATOM     20  C   UNL     1      -2.899  -9.172  -0.786  0.00  0.00    +0.047 A 
ATOM     21  C   UNL     1      -2.141 -10.039  -1.560  0.00  0.00    +0.120 A 
ATOM     22  C   UNL     1      -0.851 -10.370  -1.171  0.00  0.00    +0.047 A 
ATOM     23  C   UNL     1      -0.319  -9.832  -0.016  0.00  0.00    +0.027 A 
BRANCH  21  24
ATOM     24  O   UNL     1      -2.662 -10.564  -2.700  0.00  0.00    -0.495 OA
ATOM     25  C   UNL     1      -1.826 -11.449  -3.449  0.00  0.00    +0.277 C 
ENDBRANCH  21  24
ENDBRANCH  16  18
ENDBRANCH  14  16
ENDBRANCH   9  14
BRANCH   1  26
ATOM     26  C   UNL     1      -1.263  -0.066   1.383  0.00  0.00    -0.004 C 
BRANCH  26  28
ATOM     27  C   UNL     1       0.936   0.508   0.346  0.00  0.00    +0.007 C 
ATOM     28  C   UNL     1       0.131   0.506   1.647  0.00  0.00    -0.018 C 
ATOM     29  C   UNL     1       0.005   1.938   2.171  0.00  0.00    +0.007 C 
ENDBRANCH  26  28
ENDBRANCH   1  26
BRANCH   4  30
ATOM     30  C   UNL     1      -3.767  -4.211   1.289  0.00  0.00    +0.109 C 
BRANCH  30  31
ATOM     31  C   UNL     1      -4.697  -3.864   2.453  0.00  0.00    +0.000 C 
ATOM     32  C   UNL     1      -5.263  -2.457   2.251  0.00  0.00    +0.009 C 
ATOM     33  C   UNL     1      -5.845  -4.873   2.506  0.00  0.00    +0.009 C 
ENDBRANCH  30  31
ENDBRANCH   4  30
TORSDOF 8
