REMARK  Name = ZINC06232512
REMARK  5 active torsions:
REMARK  status: ('A' for Active; 'I' for Inactive)
REMARK    1  A    between atoms: C_1  and  C_2
REMARK    2  A    between atoms: C_2  and  C_39
REMARK    3  A    between atoms: C_4  and  N_9
REMARK    4  A    between atoms: N_16  and  N_17
REMARK    5  A    between atoms: C_18  and  C_20
REMARK                            x       y       z     vdW  Elec       q    Type
REMARK                         _______ _______ _______ _____ _____    ______ ____
ROOT
ATOM      1  N   UNL     1      -0.700   1.560   1.212  0.00  0.00    -0.276 N 
ATOM      2  C   UNL     1      -1.283   0.673   2.047  0.00  0.00    +0.260 A 
ATOM      3  O   UNL     1      -1.253  -0.523   1.806  0.00  0.00    -0.267 OA
ATOM      4  C   UNL     1      -1.924   1.156   3.195  0.00  0.00    +0.050 A 
ATOM      5  C   UNL     1      -1.926   2.520   3.437  0.00  0.00    +0.084 A 
ATOM      6  N   UNL     1      -1.349   3.353   2.563  0.00  0.00    -0.214 NA
ATOM      7  C   UNL     1      -0.747   2.892   1.485  0.00  0.00    +0.216 A 
ATOM      8  N   UNL     1      -0.160   3.774   0.618  0.00  0.00    -0.234 N 
ATOM      9  C   UNL     1      -2.564   3.032   4.671  0.00  0.00    +0.004 A 
ATOM     10  C   UNL     1      -2.881   4.381   4.801  0.00  0.00    +0.010 A 
ATOM     11  C   UNL     1      -3.490   4.832   5.956  0.00  0.00    +0.001 A 
ATOM     12  C   UNL     1      -3.783   3.945   6.976  0.00  0.00    +0.000 A 
ATOM     13  C   UNL     1      -3.464   2.605   6.853  0.00  0.00    +0.004 A 
ATOM     14  C   UNL     1      -2.848   2.143   5.707  0.00  0.00    -0.037 A 
ATOM     15  C   UNL     1      -2.472   0.691   5.580  0.00  0.00    +0.047 C 
ATOM     16  C   UNL     1      -2.626   0.215   4.137  0.00  0.00    +0.007 C 
ATOM     17  C   UNL     1      -2.019  -1.184   3.998  0.00  0.00    +0.012 C 
ATOM     18  C   UNL     1      -2.732  -2.144   4.953  0.00  0.00    +0.001 C 
ATOM     19  C   UNL     1      -4.220  -2.201   4.601  0.00  0.00    +0.000 C 
ATOM     20  C   UNL     1      -4.829  -0.803   4.732  0.00  0.00    +0.001 C 
ATOM     21  C   UNL     1      -4.114   0.156   3.779  0.00  0.00    +0.012 C 
ATOM     22  H   UNL     1       0.217   3.455  -0.217  0.00  0.00    +0.173 HD
ENDROOT
BRANCH   1  26
ATOM     23  C   UNL     1       2.857  -1.440  -0.468  0.00  0.00    +0.041 C 
ATOM     24  C   UNL     1       1.776  -0.429  -0.856  0.00  0.00    +0.066 C 
ATOM     25  C   UNL     1       1.112   0.120   0.409  0.00  0.00    +0.059 C 
ATOM     26  C   UNL     1      -0.009   1.085   0.010  0.00  0.00    +0.098 C 
ATOM     27  C   UNL     1      -1.002   0.351  -0.896  0.00  0.00    +0.053 C 
ATOM     28  C   UNL     1      -0.256  -0.206  -2.111  0.00  0.00    +0.162 C 
ATOM     29  O   UNL     1       0.792  -1.072  -1.669  0.00  0.00    -0.374 OA
ATOM     30  C   UNL     1       2.411   0.722  -1.639  0.00  0.00    +0.041 C 
ENDBRANCH   1  26
BRANCH   8  31
ATOM     31  N   UNL     1      -0.105   5.138   0.936  0.00  0.00    -0.230 N 
ATOM     32  C   UNL     1       0.472   6.006   0.082  0.00  0.00    +0.260 C 
ATOM     33  O   UNL     1       0.946   5.606  -0.964  0.00  0.00    -0.269 OA
ATOM     34  H   UNL     1      -0.483   5.457   1.770  0.00  0.00    +0.173 HD
BRANCH  32  35
ATOM     35  C   UNL     1       0.530   7.445   0.417  0.00  0.00    +0.038 A 
ATOM     36  C   UNL     1      -0.017   7.908   1.615  0.00  0.00    +0.013 A 
ATOM     37  C   UNL     1       0.045   9.251   1.925  0.00  0.00    +0.001 A 
ATOM     38  C   UNL     1       0.640  10.139   1.046  0.00  0.00    +0.000 A 
ATOM     39  C   UNL     1       1.179   9.688  -0.145  0.00  0.00    +0.001 A 
ATOM     40  C   UNL     1       1.128   8.347  -0.464  0.00  0.00    +0.013 A 
ENDBRANCH  32  35
ENDBRANCH   8  31
TORSDOF 3
