REMARK  Name = ZINC51608832
REMARK  4 active torsions:
REMARK  status: ('A' for Active; 'I' for Inactive)
REMARK    1  A    between atoms: C_3  and  N_18
REMARK    2  A    between atoms: C_4  and  O_8
REMARK    3  A    between atoms: O_8  and  C_9
REMARK    4  A    between atoms: C_15  and  O_17
REMARK                            x       y       z     vdW  Elec       q    Type
REMARK                         _______ _______ _______ _____ _____    ______ ____
ROOT
ATOM      1  C   UNL     1       0.007   1.331  -0.636  0.00  0.00    +0.022 A 
ATOM      2  C   UNL     1       1.166   2.057  -0.433  0.00  0.00    +0.038 A 
ATOM      3  C   UNL     1       2.366   1.402  -0.231  0.00  0.00    +0.168 A 
ATOM      4  C   UNL     1       2.407   0.015  -0.233  0.00  0.00    +0.152 A 
ATOM      5  C   UNL     1       1.243  -0.711  -0.437  0.00  0.00    +0.068 A 
ATOM      6  C   UNL     1       0.045  -0.052  -0.638  0.00  0.00    +0.045 A 
ATOM      7 CL   UNL     1      -1.413  -0.959  -0.893  0.00  0.00    -0.083 Cl
ENDROOT
BRANCH   3   8
ATOM      8  N   UNL     1       3.606   2.179  -0.014  0.00  0.00    +0.060 N 
ATOM      9  O   UNL     1       3.570   3.388  -0.013  0.00  0.00    -0.126 OA
ATOM     10  O   UNL     1       4.656   1.606   0.162  0.00  0.00    -0.126 OA
ENDBRANCH   3   8
BRANCH   4  11
ATOM     11  O   UNL     1       3.587  -0.631  -0.036  0.00  0.00    -0.484 OA
BRANCH  11  12
ATOM     12  C   UNL     1       3.537  -2.055   0.068  0.00  0.00    +0.202 C 
ATOM     13  C   UNL     1       3.569  -2.670  -1.333  0.00  0.00    +0.047 C 
ATOM     14  C   UNL     1       3.516  -4.195  -1.221  0.00  0.00    +0.004 C 
ATOM     15  C   UNL     1       4.721  -4.690  -0.419  0.00  0.00    +0.003 C 
ATOM     16  C   UNL     1       4.688  -4.075   0.982  0.00  0.00    +0.035 C 
ATOM     17  C   UNL     1       4.742  -2.550   0.871  0.00  0.00    +0.155 C 
BRANCH  17  18
ATOM     18  O   UNL     1       5.947  -2.163   0.208  0.00  0.00    -0.388 OA
ATOM     19  H   UNL     1       6.753  -2.444   0.662  0.00  0.00    +0.210 HD
ENDBRANCH  17  18
ENDBRANCH  11  12
ENDBRANCH   4  11
TORSDOF 4
