REMARK  Name = ZINC15733776
REMARK  10 active torsions:
REMARK  status: ('A' for Active; 'I' for Inactive)
REMARK    1  A    between atoms: C_1  and  C_2
REMARK    2  A    between atoms: C_7  and  S_8
REMARK    3  A    between atoms: S_8  and  N_11
REMARK    4  A    between atoms: N_11  and  C_12
REMARK    5  A    between atoms: C_12  and  C_13
REMARK    6  A    between atoms: C_13  and  C_14
REMARK    7  A    between atoms: C_14  and  N_66
REMARK    8  A    between atoms: C_18  and  C_21
REMARK    9  A    between atoms: C_29  and  C_31
REMARK   10  A    between atoms: C_29  and  C_32
REMARK                            x       y       z     vdW  Elec       q    Type
REMARK                         _______ _______ _______ _____ _____    ______ ____
ROOT
ATOM      1  C   UNL     1       0.693   2.616  -1.999  0.00  0.00    +0.046 C 
ATOM      2  C   UNL     1       0.857   1.462  -1.043  0.00  0.00    -0.023 A 
ATOM      3  C   UNL     1       1.875   0.554  -1.233  0.00  0.00    +0.016 A 
ATOM      4  C   UNL     1       2.027  -0.511  -0.349  0.00  0.00    +0.011 A 
ATOM      5  C   UNL     1       1.140  -0.656   0.734  0.00  0.00    +0.049 A 
ATOM      6  C   UNL     1       0.119   0.271   0.907  0.00  0.00    +0.055 A 
ATOM      7  C   UNL     1      -0.018   1.320   0.024  0.00  0.00    +0.110 A 
ATOM      8  N   UNL     1       1.515  -1.785   1.440  0.00  0.00    -0.357 N 
ATOM      9  H   UNL     1       1.068  -2.111   2.237  0.00  0.00    +0.166 HD
ATOM     10  C   UNL     1       2.580  -2.365   0.873  0.00  0.00    +0.028 A 
ATOM     11  C   UNL     1       2.962  -1.633  -0.241  0.00  0.00    +0.046 A 
ATOM     12  C   UNL     1       4.066  -1.994  -1.052  0.00  0.00    +0.166 C 
ATOM     13  O   UNL     1       4.354  -1.353  -2.042  0.00  0.00    -0.292 OA
ATOM     14  C   UNL     1       4.872  -3.206  -0.639  0.00  0.00    +0.086 C 
ATOM     15  C   UNL     1       3.966  -4.228   0.048  0.00  0.00    -0.023 C 
ATOM     16  C   UNL     1       3.315  -3.617   1.294  0.00  0.00    +0.060 C 
ATOM     17  C   UNL     1       2.874  -4.670  -0.928  0.00  0.00    +0.011 C 
ATOM     18  C   UNL     1       4.798  -5.445   0.458  0.00  0.00    +0.011 C 
ENDROOT
BRANCH   7  19
ATOM     19  S   UNL     1      -1.311   2.494   0.256  0.00  0.00    +0.059 S 
ATOM     20  O   UNL     1      -2.061   2.056   1.381  0.00  0.00    -0.153 OA
ATOM     21  O   UNL     1      -0.708   3.780   0.197  0.00  0.00    -0.153 OA
BRANCH  19  22
ATOM     22  N   UNL     1      -2.316   2.382  -1.055  0.00  0.00    -0.190 NA
ATOM     23  H   UNL     1      -2.432   3.144  -1.644  0.00  0.00    +0.148 HD
BRANCH  22  24
ATOM     24  C   UNL     1      -3.029   1.132  -1.327  0.00  0.00    +0.104 C 
BRANCH  24  25
ATOM     25  C   UNL     1      -4.159   1.395  -2.324  0.00  0.00    -0.002 C 
BRANCH  25  26
ATOM     26  C   UNL     1      -4.904   0.089  -2.608  0.00  0.00    -0.078 C 
BRANCH  26  33
ATOM     27  C   UNL     1      -5.452   0.730  -4.877  0.00  0.00    -0.079 C 
ATOM     28  C   UNL     1      -6.599   0.843  -5.884  0.00  0.00    -0.018 C 
ATOM     29  C   UNL     1      -7.603   1.889  -5.393  0.00  0.00    -0.001 C 
ATOM     30  C   UNL     1      -8.109   1.487  -4.005  0.00  0.00    -0.031 C 
ATOM     31  C   UNL     1      -6.919   1.355  -3.052  0.00  0.00    -0.076 C 
ATOM     32  C   UNL     1      -9.068   2.557  -3.481  0.00  0.00    +0.005 C 
ATOM     33  N   UNL     1      -6.003   0.316  -3.569  0.00  0.00    +0.380 N 
ATOM     34  H   UNL     1      -6.526  -0.559  -3.689  0.00  0.00    -0.082 HD
ENDBRANCH  26  33
ENDBRANCH  25  26
ENDBRANCH  24  25
ENDBRANCH  22  24
ENDBRANCH  19  22
ENDBRANCH   7  19
TORSDOF 6
