REMARK  Name = ZINC07357176
REMARK  8 active torsions:
REMARK  status: ('A' for Active; 'I' for Inactive)
REMARK    1  A    between atoms: C_1  and  C_2
REMARK    2  A    between atoms: C_2  and  C_4
REMARK    3  A    between atoms: C_2  and  N_13
REMARK    4  A    between atoms: C_14  and  C_16
REMARK    5  A    between atoms: C_16  and  O_17
REMARK    6  A    between atoms: O_17  and  C_18
REMARK    7  A    between atoms: C_18  and  C_20
REMARK    8  A    between atoms: C_25  and  N_26
REMARK                            x       y       z     vdW  Elec       q    Type
REMARK                         _______ _______ _______ _____ _____    ______ ____
ROOT
ATOM      1  N   UNL     1       0.811   2.024  -1.976  0.00  0.00    -0.303 N 
ATOM      2  C   UNL     1      -0.297   1.316  -1.683  0.00  0.00    +0.251 C 
ATOM      3  O   UNL     1      -0.306   0.113  -1.835  0.00  0.00    -0.272 OA
ATOM      4  H   UNL     1       0.818   2.986  -1.854  0.00  0.00    +0.149 HD
ENDROOT
BRANCH   1   6
ATOM      5  C   UNL     1       1.895   1.166  -3.994  0.00  0.00    +0.036 C 
ATOM      6  C   UNL     1       2.006   1.341  -2.478  0.00  0.00    +0.136 C 
BRANCH   6   7
ATOM      7  C   UNL     1       3.228   2.162  -2.155  0.00  0.00    +0.126 A 
ATOM      8  C   UNL     1       4.400   1.663  -1.739  0.00  0.00    +0.055 A 
ATOM      9  C   UNL     1       5.291   2.814  -1.552  0.00  0.00    +0.020 A 
ATOM     10  C   UNL     1       6.616   2.965  -1.144  0.00  0.00    +0.011 A 
ATOM     11  C   UNL     1       7.163   4.215  -1.068  0.00  0.00    +0.001 A 
ATOM     12  C   UNL     1       6.409   5.333  -1.394  0.00  0.00    +0.004 A 
ATOM     13  C   UNL     1       5.098   5.204  -1.800  0.00  0.00    +0.047 A 
ATOM     14  C   UNL     1       4.522   3.942  -1.883  0.00  0.00    +0.135 A 
ATOM     15  O   UNL     1       3.298   3.502  -2.237  0.00  0.00    -0.458 OA
ENDBRANCH   6   7
ENDBRANCH   1   6
BRANCH   2  16
ATOM     16  C   UNL     1      -1.528   2.019  -1.173  0.00  0.00    +0.328 C 
BRANCH  16  17
ATOM     17  O   UNL     1      -2.580   1.046  -0.939  0.00  0.00    -0.452 OA
BRANCH  17  18
ATOM     18  C   UNL     1      -3.756   1.516  -0.477  0.00  0.00    +0.341 C 
ATOM     19  O   UNL     1      -3.898   2.706  -0.276  0.00  0.00    -0.245 OA
BRANCH  18  20
ATOM     20  C   UNL     1      -4.869   0.587  -0.218  0.00  0.00    +0.080 A 
ATOM     21  C   UNL     1      -4.673  -0.793  -0.329  0.00  0.00    +0.018 A 
ATOM     22  C   UNL     1      -5.717  -1.657  -0.085  0.00  0.00    +0.021 A 
ATOM     23  C   UNL     1      -6.965  -1.165   0.271  0.00  0.00    +0.043 A 
ATOM     24  C   UNL     1      -7.174   0.195   0.385  0.00  0.00    +0.043 A 
ATOM     25  C   UNL     1      -6.131   1.081   0.149  0.00  0.00    +0.040 A 
ATOM     26 CL   UNL     1      -8.271  -2.267   0.575  0.00  0.00    -0.083 Cl
BRANCH  25  27
ATOM     27  N   UNL     1      -6.337   2.449   0.269  0.00  0.00    -0.357 N 
ATOM     28  H   UNL     1      -5.759   3.070  -0.203  0.00  0.00    +0.142 HD
ATOM     29  H   UNL     1      -7.058   2.784   0.824  0.00  0.00    +0.142 HD
ENDBRANCH  25  27
ENDBRANCH  18  20
ENDBRANCH  17  18
ENDBRANCH  16  17
ENDBRANCH   2  16
TORSDOF 7
