REMARK  Name = ZINC64491697
REMARK  10 active torsions:
REMARK  status: ('A' for Active; 'I' for Inactive)
REMARK    1  A    between atoms: C_1  and  C_2
REMARK    2  A    between atoms: C_2  and  C_3
REMARK    3  A    between atoms: C_3  and  N_4
REMARK    4  A    between atoms: C_8  and  C_15
REMARK    5  A    between atoms: C_18  and  C_22
REMARK    6  A    between atoms: C_22  and  C_24
REMARK    7  A    between atoms: C_22  and  N_25
REMARK    8  A    between atoms: N_25  and  S_26
REMARK    9  A    between atoms: S_26  and  C_29
REMARK   10  A    between atoms: C_32  and  C_35
REMARK                            x       y       z     vdW  Elec       q    Type
REMARK                         _______ _______ _______ _____ _____    ______ ____
ROOT
ATOM      1  C   UNL     1      -1.378  -6.022  -3.949  0.00  0.00    +0.180 C 
ATOM      2  N   UNL     1      -2.105  -5.627  -5.175  0.00  0.00    -0.268 NA
ATOM      3  C   UNL     1      -3.237  -6.572  -5.307  0.00  0.00    +0.229 C 
ATOM      4  O   UNL     1      -2.823  -7.748  -4.575  0.00  0.00    -0.278 OA
ATOM      5  N   UNL     1      -2.107  -7.191  -3.405  0.00  0.00    -0.178 NA
ATOM      6  H   UNL     1      -2.434  -4.676  -5.109  0.00  0.00    +0.126 HD
ATOM      7  H   UNL     1      -2.755  -6.910  -2.684  0.00  0.00    +0.156 HD
ENDROOT
BRANCH   1  12
ATOM      8  N   UNL     1      -1.413  -1.998   0.005  0.00  0.00    -0.292 N 
ATOM      9  C   UNL     1      -1.408  -2.807  -1.129  0.00  0.00    +0.070 A 
ATOM     10  C   UNL     1      -1.417  -2.539  -2.489  0.00  0.00    +0.028 A 
ATOM     11  C   UNL     1      -1.407  -3.581  -3.396  0.00  0.00    +0.009 A 
ATOM     12  C   UNL     1      -1.388  -4.892  -2.952  0.00  0.00    -0.012 A 
ATOM     13  C   UNL     1      -1.379  -5.169  -1.599  0.00  0.00    +0.034 A 
ATOM     14  C   UNL     1      -1.388  -4.130  -0.681  0.00  0.00    +0.067 A 
ATOM     15  N   UNL     1      -1.382  -4.083   0.711  0.00  0.00    -0.306 N 
ATOM     16  H   UNL     1      -1.369  -4.851   1.304  0.00  0.00    +0.170 HD
ATOM     17  C   UNL     1      -1.392  -2.792   1.092  0.00  0.00    +0.328 A 
ATOM     18  O   UNL     1      -1.386  -2.402   2.245  0.00  0.00    -0.247 OA
BRANCH   8  19
ATOM     19  C   UNL     1      -1.433  -0.534   0.013  0.00  0.00    +0.127 C 
BRANCH  19  21
ATOM     20  C   UNL     1      -0.019   1.526   0.010  0.00  0.00    +0.005 C 
ATOM     21  C   UNL     1       0.002  -0.004   0.002  0.00  0.00    +0.018 C 
ENDBRANCH  19  21
ENDBRANCH   8  19
ENDBRANCH   1  12
BRANCH   3  22
ATOM     22  C   UNL     1      -3.477  -6.914  -6.779  0.00  0.00    +0.119 C 
ATOM     23  C   UNL     1      -2.219  -7.558  -7.364  0.00  0.00    +0.030 C 
BRANCH  22  24
ATOM     24  N   UNL     1      -4.600  -7.848  -6.886  0.00  0.00    -0.183 NA
ATOM     25  H   UNL     1      -4.739  -8.521  -6.201  0.00  0.00    +0.148 HD
BRANCH  24  26
ATOM     26  S   UNL     1      -5.633  -7.756  -8.177  0.00  0.00    +0.059 S 
ATOM     27  O   UNL     1      -6.586  -8.797  -8.010  0.00  0.00    -0.153 OA
ATOM     28  O   UNL     1      -6.010  -6.392  -8.300  0.00  0.00    -0.153 OA
BRANCH  26  29
ATOM     29  C   UNL     1      -4.702  -8.153  -9.619  0.00  0.00    +0.105 A 
ATOM     30  C   UNL     1      -4.055  -7.153 -10.321  0.00  0.00    +0.029 A 
ATOM     31  C   UNL     1      -3.324  -7.464 -11.452  0.00  0.00    +0.005 A 
ATOM     32  C   UNL     1      -3.239  -8.775 -11.881  0.00  0.00    -0.050 A 
ATOM     33  C   UNL     1      -3.885  -9.775 -11.179  0.00  0.00    +0.005 A 
ATOM     34  C   UNL     1      -4.613  -9.465 -10.046  0.00  0.00    +0.029 A 
ATOM     35  C   UNL     1      -2.443  -9.114 -13.115  0.00  0.00    +0.044 C 
ENDBRANCH  26  29
ENDBRANCH  24  26
ENDBRANCH  22  24
ENDBRANCH   3  22
TORSDOF 7
