REMARK  Name = ZINC11966519
REMARK  13 active torsions:
REMARK  status: ('A' for Active; 'I' for Inactive)
REMARK    1  A    between atoms: C_1  and  C_2
REMARK    2  A    between atoms: C_3  and  C_7
REMARK    3  A    between atoms: C_7  and  N_62
REMARK    4  A    between atoms: C_8  and  N_62
REMARK    5  A    between atoms: C_9  and  C_10
REMARK    6  A    between atoms: C_9  and  N_62
REMARK    7  A    between atoms: C_12  and  C_29
REMARK    8  A    between atoms: C_15  and  O_16
REMARK    9  A    between atoms: O_16  and  C_17
REMARK   10  A    between atoms: C_17  and  C_18
REMARK   11  A    between atoms: N_20  and  C_21
REMARK   12  A    between atoms: C_21  and  C_23
REMARK   13  A    between atoms: C_21  and  C_24
REMARK                            x       y       z     vdW  Elec       q    Type
REMARK                         _______ _______ _______ _____ _____    ______ ____
ROOT
ATOM      1  C   UNL     1      -6.327   3.096   3.097  0.00  0.00    -0.022 A 
ATOM      2  C   UNL     1      -7.129   3.520   4.136  0.00  0.00    +0.013 A 
ATOM      3  C   UNL     1      -6.554   3.896   5.349  0.00  0.00    -0.017 A 
ATOM      4  C   UNL     1      -5.171   3.841   5.508  0.00  0.00    +0.012 A 
ATOM      5  C   UNL     1      -4.375   3.411   4.467  0.00  0.00    +0.046 A 
ATOM      6  C   UNL     1      -4.949   3.043   3.258  0.00  0.00    +0.123 A 
ENDROOT
BRANCH   3   7
ATOM      7  C   UNL     1      -7.414   4.353   6.468  0.00  0.00    -0.018 A 
ATOM      8  C   UNL     1      -8.797   4.413   6.308  0.00  0.00    +0.011 A 
ATOM      9  C   UNL     1      -9.593   4.834   7.354  0.00  0.00    +0.039 A 
ATOM     10  C   UNL     1      -9.018   5.206   8.558  0.00  0.00    +0.123 A 
ATOM     11  C   UNL     1      -7.644   5.153   8.720  0.00  0.00    +0.039 A 
ATOM     12  C   UNL     1      -6.840   4.728   7.682  0.00  0.00    +0.011 A 
ATOM     13  F   UNL     1      -9.801   5.623   9.577  0.00  0.00    -0.205 F 
ENDBRANCH   3   7
BRANCH   1  14
ATOM     14  C   UNL     1      -6.947   2.691   1.784  0.00  0.00    -0.039 C 
BRANCH  14  16
ATOM     15  C   UNL     1      -5.694   0.622   1.670  0.00  0.00    -0.095 C 
ATOM     16  N   UNL     1      -7.045   1.216   1.739  0.00  0.00    +0.384 N 
ATOM     17  H   UNL     1      -7.511   0.887   2.592  0.00  0.00    -0.081 HD
BRANCH  16  18
ATOM     18  C   UNL     1      -7.841   0.799   0.565  0.00  0.00    -0.017 C 
BRANCH  18  21
ATOM     19  C   UNL     1     -10.314  -0.509   2.014  0.00  0.00    +0.071 C 
ATOM     20  C   UNL     1      -9.217  -1.265   1.310  0.00  0.00    +0.103 A 
ATOM     21  C   UNL     1      -8.111  -0.680   0.662  0.00  0.00    +0.091 A 
ATOM     22  N   UNL     1      -7.363  -1.615   0.156  0.00  0.00    -0.056 NA
ATOM     23  O   UNL     1      -7.966  -2.859   0.473  0.00  0.00    -0.242 OA
ATOM     24  N   UNL     1      -9.144  -2.558   1.205  0.00  0.00    -0.054 NA
ENDBRANCH  18  21
ENDBRANCH  16  18
ENDBRANCH  14  16
ENDBRANCH   1  14
BRANCH   6  25
ATOM     25  O   UNL     1      -4.162   2.625   2.233  0.00  0.00    -0.483 OA
BRANCH  25  26
ATOM     26  C   UNL     1      -2.753   2.595   2.467  0.00  0.00    +0.324 C 
BRANCH  26  27
ATOM     27  C   UNL     1      -2.048   2.109   1.227  0.00  0.00    +0.251 C 
ATOM     28  O   UNL     1      -2.689   1.817   0.240  0.00  0.00    -0.272 OA
ATOM     29  N   UNL     1      -0.704   1.998   1.216  0.00  0.00    -0.305 N 
ATOM     30  H   UNL     1      -0.192   2.232   2.006  0.00  0.00    +0.149 HD
BRANCH  29  31
ATOM     31  C   UNL     1      -0.019   1.526   0.010  0.00  0.00    +0.107 C 
ATOM     32  C   UNL     1       0.002  -0.004   0.002  0.00  0.00    +0.033 C 
BRANCH  31  33
ATOM     33  C   UNL     1       1.395   2.047  -0.000  0.00  0.00    +0.010 A 
ATOM     34  C   UNL     1       2.125   2.515  -1.043  0.00  0.00    +0.013 A 
ATOM     35  C   UNL     1       3.417   2.950  -0.815  0.00  0.00    +0.008 A 
ATOM     36  C   UNL     1       3.920   2.887   0.442  0.00  0.00    +0.045 A 
ATOM     37  S   UNL     1       2.546   2.203   1.355  0.00  0.00    -0.100 S 
ENDBRANCH  31  33
ENDBRANCH  29  31
ENDBRANCH  26  27
ENDBRANCH  25  26
ENDBRANCH   6  25
TORSDOF 10
