REMARK  Name = ZINC09125249
REMARK  8 active torsions:
REMARK  status: ('A' for Active; 'I' for Inactive)
REMARK    1  A    between atoms: C_4  and  C_7
REMARK    2  A    between atoms: C_7  and  C_8
REMARK    3  A    between atoms: C_13  and  O_14
REMARK    4  A    between atoms: O_14  and  C_15
REMARK    5  A    between atoms: C_15  and  C_16
REMARK    6  A    between atoms: N_18  and  C_19
REMARK    7  A    between atoms: C_23  and  S_25
REMARK    8  A    between atoms: S_25  and  N_28
REMARK                            x       y       z     vdW  Elec       q    Type
REMARK                         _______ _______ _______ _____ _____    ______ ____
ROOT
ATOM      1  C   UNL     1       1.085   5.931   0.123  0.00  0.00    +0.255 C 
ATOM      2  O   UNL     1       2.146   5.342   0.111  0.00  0.00    -0.272 OA
ATOM      3  N   UNL     1      -0.069   5.242   0.029  0.00  0.00    -0.283 N 
ATOM      4  H   UNL     1      -0.913   5.715  -0.028  0.00  0.00    +0.155 HD
ENDROOT
BRANCH   3   5
ATOM      5  C   UNL     1      -0.050   3.842   0.014  0.00  0.00    +0.035 A 
ATOM      6  C   UNL     1       0.993   3.168  -0.609  0.00  0.00    +0.023 A 
ATOM      7  C   UNL     1       1.009   1.787  -0.622  0.00  0.00    +0.004 A 
ATOM      8  C   UNL     1      -0.011   1.076  -0.016  0.00  0.00    +0.029 A 
ATOM      9  C   UNL     1      -1.052   1.745   0.601  0.00  0.00    +0.110 A 
ATOM     10  C   UNL     1      -1.071   3.126   0.622  0.00  0.00    +0.052 A 
BRANCH   9  11
ATOM     11  S   UNL     1      -2.352   0.834   1.366  0.00  0.00    +0.073 S 
ATOM     12  O   UNL     1      -3.485   1.692   1.397  0.00  0.00    -0.150 OA
ATOM     13  O   UNL     1      -2.379  -0.441   0.739  0.00  0.00    -0.150 OA
BRANCH  11  14
ATOM     14  N   UNL     1      -1.909   0.578   2.941  0.00  0.00    -0.205 N 
ATOM     15  C   UNL     1      -1.774   1.639   3.796  0.00  0.00    +0.088 C 
ATOM     16  C   UNL     1      -1.754   3.786   4.593  0.00  0.00    +0.114 C 
ATOM     17  C   UNL     1      -0.968   2.964   5.640  0.00  0.00    +0.028 C 
ATOM     18  C   UNL     1      -1.382   1.522   5.252  0.00  0.00    +0.072 C 
ATOM     19  H   UNL     1      -1.745  -0.324   3.258  0.00  0.00    +0.175 HD
ATOM     20  N   UNL     1      -1.976   2.874   3.451  0.00  0.00    -0.375 N 
ATOM     21  H   UNL     1      -2.252   3.177   2.510  0.00  0.00    +0.161 HD
ENDBRANCH  11  14
ENDBRANCH   9  11
ENDBRANCH   3   5
BRANCH   1  22
ATOM     22  C   UNL     1       1.059   7.433   0.245  0.00  0.00    +0.324 C 
BRANCH  22  23
ATOM     23  O   UNL     1       2.396   7.927   0.330  0.00  0.00    -0.482 OA
BRANCH  23  29
ATOM     24  C   UNL     1       3.821   9.821   0.537  0.00  0.00    -0.001 A 
ATOM     25  C   UNL     1       3.975  11.190   0.648  0.00  0.00    +0.007 A 
ATOM     26  C   UNL     1       2.864  12.011   0.678  0.00  0.00    +0.001 A 
ATOM     27  C   UNL     1       1.596  11.467   0.591  0.00  0.00    +0.004 A 
ATOM     28  C   UNL     1       1.437  10.100   0.474  0.00  0.00    +0.046 A 
ATOM     29  C   UNL     1       2.550   9.273   0.444  0.00  0.00    +0.125 A 
BRANCH  24  30
ATOM     30  C   UNL     1       5.033   8.925   0.510  0.00  0.00    +0.074 C 
BRANCH  30  34
ATOM     31  C   UNL     1       6.121   8.121  -3.541  0.00  0.00    +0.000 A 
ATOM     32  C   UNL     1       6.657   9.214  -2.886  0.00  0.00    +0.000 A 
ATOM     33  C   UNL     1       6.304   9.474  -1.575  0.00  0.00    +0.004 A 
ATOM     34  C   UNL     1       5.417   8.642  -0.919  0.00  0.00    -0.043 A 
ATOM     35  C   UNL     1       4.886   7.546  -1.573  0.00  0.00    +0.004 A 
ATOM     36  C   UNL     1       5.234   7.288  -2.886  0.00  0.00    +0.000 A 
ENDBRANCH  30  34
ENDBRANCH  24  30
ENDBRANCH  23  29
ENDBRANCH  22  23
ENDBRANCH   1  22
TORSDOF 8
