REMARK  Name = ZINC08746793
REMARK  7 active torsions:
REMARK  status: ('A' for Active; 'I' for Inactive)
REMARK    1  A    between atoms: C_1  and  C_2
REMARK    2  A    between atoms: C_11  and  N_32
REMARK    3  A    between atoms: C_13  and  C_15
REMARK    4  A    between atoms: C_15  and  C_16
REMARK    5  A    between atoms: C_16  and  N_61
REMARK    6  A    between atoms: N_19  and  S_22
REMARK    7  A    between atoms: S_22  and  C_25
REMARK                            x       y       z     vdW  Elec       q    Type
REMARK                         _______ _______ _______ _____ _____    ______ ____
ROOT
ATOM      1  C   UNL     1      -1.194   2.070   1.952  0.00  0.00    +0.058 C 
ENDROOT
BRANCH   1  13
ATOM      2  C   UNL     1      -0.441  11.552  -1.048  0.00  0.00    +0.008 C 
ATOM      3  C   UNL     1      -0.230  10.071  -0.724  0.00  0.00    -0.009 C 
ATOM      4  C   UNL     1       0.151   9.917   0.752  0.00  0.00    +0.008 C 
ATOM      5  C   UNL     1       0.601   8.482   1.024  0.00  0.00    +0.037 C 
ATOM      6  C   UNL     1      -0.474   7.524   0.519  0.00  0.00    -0.025 A 
ATOM      7  C   UNL     1      -1.400   7.935  -0.371  0.00  0.00    -0.004 A 
ATOM      8  S   UNL     1      -2.422   6.516  -0.665  0.00  0.00    -0.073 S 
ATOM      9  C   UNL     1      -1.602   5.369   0.411  0.00  0.00    +0.114 A 
ATOM     10  C   UNL     1      -0.555   6.132   0.966  0.00  0.00    +0.051 A 
ATOM     11  C   UNL     1       0.280   5.443   1.888  0.00  0.00    +0.128 A 
ATOM     12  N   UNL     1       0.028   4.173   2.161  0.00  0.00    -0.217 NA
ATOM     13  C   UNL     1      -0.971   3.518   1.597  0.00  0.00    +0.131 A 
ATOM     14  N   UNL     1      -1.779   4.103   0.736  0.00  0.00    -0.225 NA
ATOM     15  C   UNL     1      -1.532   9.298  -0.979  0.00  0.00    +0.046 C 
BRANCH  11  16
ATOM     16  N   UNL     1       1.339   6.094   2.496  0.00  0.00    -0.343 N 
ATOM     17  H   UNL     1       1.758   5.709   3.281  0.00  0.00    +0.144 HD
ATOM     18  H   UNL     1       1.662   6.935   2.137  0.00  0.00    +0.144 HD
ENDBRANCH  11  16
ENDBRANCH   1  13
BRANCH   1  19
ATOM     19  C   UNL     1      -0.405   1.181   0.989  0.00  0.00    -0.071 C 
BRANCH  19  25
ATOM     20  C   UNL     1      -0.058  -0.543   2.653  0.00  0.00    -0.061 C 
ATOM     21  C   UNL     1      -0.462  -1.966   3.054  0.00  0.00    +0.091 C 
ATOM     22  N   UNL     1      -0.069  -2.884   1.975  0.00  0.00    -0.180 NA
ATOM     23  C   UNL     1      -0.484  -2.562   0.601  0.00  0.00    +0.091 C 
ATOM     24  C   UNL     1      -0.079  -1.116   0.296  0.00  0.00    -0.061 C 
ATOM     25  N   UNL     1      -0.654  -0.234   1.335  0.00  0.00    +0.382 N 
ATOM     26  H   UNL     1      -1.667  -0.392   1.383  0.00  0.00    -0.082 HD
BRANCH  22  27
ATOM     27  S   UNL     1       0.818  -4.245   2.298  0.00  0.00    +0.063 S 
ATOM     28  O   UNL     1       0.581  -4.570   3.661  0.00  0.00    -0.153 OA
ATOM     29  O   UNL     1       0.560  -5.159   1.241  0.00  0.00    -0.153 OA
BRANCH  27  30
ATOM     30  C   UNL     1       2.519  -3.800   2.175  0.00  0.00    +0.140 A 
ATOM     31  C   UNL     1       3.326  -3.839   3.296  0.00  0.00    +0.031 A 
ATOM     32  C   UNL     1       4.662  -3.495   3.198  0.00  0.00    +0.002 A 
ATOM     33  C   UNL     1       5.188  -3.102   1.982  0.00  0.00    +0.003 A 
ATOM     34  C   UNL     1       4.382  -3.058   0.861  0.00  0.00    +0.040 A 
ATOM     35  C   UNL     1       3.045  -3.407   0.956  0.00  0.00    +0.150 A 
ATOM     36  F   UNL     1       2.255  -3.363  -0.139  0.00  0.00    -0.203 F 
ENDBRANCH  27  30
ENDBRANCH  22  27
ENDBRANCH  19  25
ENDBRANCH   1  19
TORSDOF 6
