REMARK  Name = ZINC12415342
REMARK  5 active torsions:
REMARK  status: ('A' for Active; 'I' for Inactive)
REMARK    1  A    between atoms: C_1  and  C_2
REMARK    2  A    between atoms: C_5  and  N_8
REMARK    3  A    between atoms: N_8  and  S_9
REMARK    4  A    between atoms: S_9  and  C_12
REMARK    5  A    between atoms: C_13  and  C_18
REMARK                            x       y       z     vdW  Elec       q    Type
REMARK                         _______ _______ _______ _____ _____    ______ ____
ROOT
ATOM      1  C   UNL     1       2.813   5.045  -0.972  0.00  0.00    +0.201 A 
ATOM      2  C   UNL     1       2.453   4.191   0.029  0.00  0.00    +0.047 A 
ATOM      3  C   UNL     1       3.539   4.101   0.922  0.00  0.00    +0.144 A 
ATOM      4  N   UNL     1       4.497   4.869   0.474  0.00  0.00    -0.180 NA
ATOM      5  N   UNL     1       4.064   5.475  -0.711  0.00  0.00    -0.259 N 
ATOM      6  H   UNL     1       4.592   6.116  -1.268  0.00  0.00    +0.190 HD
ENDROOT
BRANCH   2   7
ATOM      7  C   UNL     1       1.155   3.481   0.152  0.00  0.00    -0.012 A 
ATOM      8  C   UNL     1       1.124   2.091   0.236  0.00  0.00    +0.009 A 
ATOM      9  C   UNL     1      -0.085   1.435   0.349  0.00  0.00    +0.002 A 
ATOM     10  C   UNL     1      -1.266   2.155   0.375  0.00  0.00    +0.020 A 
ATOM     11  C   UNL     1      -1.241   3.537   0.299  0.00  0.00    +0.042 A 
ATOM     12  C   UNL     1      -0.036   4.203   0.184  0.00  0.00    +0.028 A 
ATOM     13 CL   UNL     1      -2.727   4.434   0.339  0.00  0.00    -0.084 Cl
ENDBRANCH   2   7
BRANCH   1  14
ATOM     14  S   UNL     1       1.821   5.506  -2.353  0.00  0.00    +0.090 S 
ATOM     15  O   UNL     1       0.560   5.904  -1.833  0.00  0.00    -0.148 OA
ATOM     16  O   UNL     1       2.619   6.364  -3.158  0.00  0.00    -0.148 OA
BRANCH  14  17
ATOM     17  N   UNL     1       1.555   4.135  -3.244  0.00  0.00    -0.215 N 
ATOM     18  H   UNL     1       0.650   3.812  -3.377  0.00  0.00    +0.174 HD
BRANCH  17  23
ATOM     19  C   UNL     1       5.931   1.334  -5.516  0.00  0.00    +0.044 C 
ATOM     20  C   UNL     1       4.768   2.079  -4.912  0.00  0.00    -0.050 A 
ATOM     21  C   UNL     1       3.776   1.384  -4.245  0.00  0.00    +0.005 A 
ATOM     22  C   UNL     1       2.709   2.063  -3.690  0.00  0.00    +0.025 A 
ATOM     23  C   UNL     1       2.633   3.445  -3.803  0.00  0.00    +0.048 A 
ATOM     24  C   UNL     1       3.629   4.140  -4.479  0.00  0.00    +0.025 A 
ATOM     25  C   UNL     1       4.696   3.455  -5.027  0.00  0.00    +0.005 A 
ENDBRANCH  17  23
ENDBRANCH  14  17
ENDBRANCH   1  14
TORSDOF 4
