REMARK  Name = ZINC13858015
REMARK  7 active torsions:
REMARK  status: ('A' for Active; 'I' for Inactive)
REMARK    1  A    between atoms: C_4  and  C_7
REMARK    2  A    between atoms: C_7  and  C_9
REMARK    3  A    between atoms: C_7  and  S_22
REMARK    4  A    between atoms: N_11  and  C_12
REMARK    5  A    between atoms: C_15  and  S_18
REMARK    6  A    between atoms: S_18  and  N_21
REMARK    7  A    between atoms: S_22  and  C_23
REMARK                            x       y       z     vdW  Elec       q    Type
REMARK                         _______ _______ _______ _____ _____    ______ ____
ROOT
ATOM      1  C   UNL     1       2.425  -4.236  -0.258  0.00  0.00    +0.169 C 
ENDROOT
BRANCH   1   5
ATOM      2  C   UNL     1       1.957  -5.982   3.612  0.00  0.00    +0.000 A 
ATOM      3  C   UNL     1       1.033  -6.246   2.618  0.00  0.00    +0.000 A 
ATOM      4  C   UNL     1       1.185  -5.681   1.366  0.00  0.00    +0.005 A 
ATOM      5  C   UNL     1       2.260  -4.852   1.107  0.00  0.00    -0.025 A 
ATOM      6  C   UNL     1       3.187  -4.592   2.099  0.00  0.00    +0.005 A 
ATOM      7  C   UNL     1       3.033  -5.154   3.353  0.00  0.00    +0.000 A 
ENDBRANCH   1   5
BRANCH   1   8
ATOM      8  C   UNL     1       2.410  -2.734  -0.137  0.00  0.00    +0.235 C 
ATOM      9  O   UNL     1       3.452  -2.114  -0.144  0.00  0.00    -0.274 OA
ATOM     10  N   UNL     1       1.237  -2.079  -0.020  0.00  0.00    -0.284 N 
ATOM     11  H   UNL     1       0.409  -2.578   0.062  0.00  0.00    +0.155 HD
BRANCH  10  12
ATOM     12  C   UNL     1       1.214  -0.680  -0.019  0.00  0.00    +0.034 A 
ATOM     13  C   UNL     1       2.137   0.031  -0.774  0.00  0.00    +0.025 A 
ATOM     14  C   UNL     1       2.111   1.412  -0.771  0.00  0.00    +0.030 A 
ATOM     15  C   UNL     1       1.168   2.086  -0.017  0.00  0.00    +0.105 A 
ATOM     16  C   UNL     1       0.248   1.380   0.736  0.00  0.00    +0.030 A 
ATOM     17  C   UNL     1       0.268  -0.001   0.737  0.00  0.00    +0.025 A 
BRANCH  15  18
ATOM     18  S   UNL     1       1.139   3.848  -0.015  0.00  0.00    +0.056 S 
ATOM     19  O   UNL     1       0.510   4.242   1.197  0.00  0.00    -0.153 OA
ATOM     20  O   UNL     1       2.447   4.276  -0.370  0.00  0.00    -0.153 OA
BRANCH  18  21
ATOM     21  N   UNL     1       0.136   4.322  -1.245  0.00  0.00    -0.204 NA
ATOM     22  H   UNL     1      -0.360   5.152  -1.173  0.00  0.00    +0.144 HD
ATOM     23  H   UNL     1       0.045   3.769  -2.037  0.00  0.00    +0.144 HD
ENDBRANCH  18  21
ENDBRANCH  15  18
ENDBRANCH  10  12
ENDBRANCH   1   8
BRANCH   1  24
ATOM     24  S   UNL     1       4.004  -4.769  -0.975  0.00  0.00    -0.079 S 
BRANCH  24  25
ATOM     25  C   UNL     1       3.811  -6.507  -1.187  0.00  0.00    +0.161 A 
ATOM     26  N   UNL     1       2.779  -7.275  -0.898  0.00  0.00    -0.133 NA
ATOM     27  N   UNL     1       2.838  -8.626  -1.153  0.00  0.00    -0.125 NA
ATOM     28  C   UNL     1       3.930  -9.148  -1.674  0.00  0.00    +0.180 A 
ATOM     29  S   UNL     1       4.965  -7.702  -1.845  0.00  0.00    -0.025 S 
ATOM     30  N   UNL     1       4.204 -10.471  -2.002  0.00  0.00    -0.336 N 
ATOM     31  H   UNL     1       5.064 -10.708  -2.383  0.00  0.00    +0.144 HD
ATOM     32  H   UNL     1       3.535 -11.157  -1.851  0.00  0.00    +0.144 HD
ENDBRANCH  24  25
ENDBRANCH   1  24
TORSDOF 7
