REMARK  Name = ZINC63503458
REMARK  8 active torsions:
REMARK  status: ('A' for Active; 'I' for Inactive)
REMARK    1  A    between atoms: C_1  and  C_2
REMARK    2  A    between atoms: C_19  and  C_21
REMARK    3  A    between atoms: C_21  and  N_22
REMARK    4  A    between atoms: N_22  and  C_23
REMARK    5  A    between atoms: C_23  and  C_24
REMARK    6  A    between atoms: C_24  and  C_25
REMARK    7  A    between atoms: C_28  and  O_34
REMARK    8  A    between atoms: O_34  and  C_35
REMARK                            x       y       z     vdW  Elec       q    Type
REMARK                         _______ _______ _______ _____ _____    ______ ____
ROOT
ATOM      1  C   UNL     1       3.733  -3.382   0.344  0.00  0.00    -0.068 C 
ENDROOT
BRANCH   1  17
ATOM      2  C   UNL     1      -0.019   1.526   0.010  0.00  0.00    +0.012 C 
ATOM      3  C   UNL     1       0.002  -0.004   0.002  0.00  0.00    -0.022 C 
ATOM      4  C   UNL     1      -1.432  -0.527   0.024  0.00  0.00    +0.007 C 
ATOM      5  C   UNL     1      -2.178   0.072   1.220  0.00  0.00    +0.005 C 
ATOM      6  C   UNL     1      -1.511  -0.381   2.522  0.00  0.00    +0.030 C 
ATOM      7  C   UNL     1      -0.038  -0.043   2.462  0.00  0.00    -0.073 C 
ATOM      8  C   UNL     1       0.543   0.627   3.426  0.00  0.00    +0.008 C 
ATOM      9  C   UNL     1       0.745  -0.507   1.247  0.00  0.00    +0.021 C 
ATOM     10  C   UNL     1       0.728  -2.037   1.224  0.00  0.00    +0.016 C 
ATOM     11  C   UNL     1       1.362  -2.593  -0.023  0.00  0.00    +0.042 C 
ATOM     12  C   UNL     1       0.800  -1.988  -1.326  0.00  0.00    +0.181 C 
ATOM     13  C   UNL     1       0.722  -0.489  -1.246  0.00  0.00    +0.052 C 
ATOM     14  O   UNL     1       1.870  -2.303  -2.263  0.00  0.00    -0.461 OA
ATOM     15  C   UNL     1       3.042  -2.041  -1.643  0.00  0.00    +0.309 C 
ATOM     16  O   UNL     1       4.065  -1.699  -2.187  0.00  0.00    -0.251 OA
ATOM     17  C   UNL     1       2.854  -2.233  -0.155  0.00  0.00    +0.087 C 
ENDBRANCH   1  17
BRANCH   1  18
ATOM     18  N   UNL     1       5.142  -2.966   0.319  0.00  0.00    +0.380 N 
ATOM     19  H   UNL     1       5.405  -2.727  -0.625  0.00  0.00    -0.086 HD
ATOM     20  H   UNL     1       5.267  -2.163   0.917  0.00  0.00    -0.086 HD
BRANCH  18  21
ATOM     21  C   UNL     1       5.986  -4.069   0.797  0.00  0.00    -0.078 C 
BRANCH  21  22
ATOM     22  C   UNL     1       7.454  -3.637   0.771  0.00  0.00    +0.014 C 
BRANCH  22  23
ATOM     23  C   UNL     1       8.320  -4.768   1.262  0.00  0.00    -0.043 C 
ATOM     24  C   UNL     1       8.958  -5.690   0.507  0.00  0.00    +0.002 A 
ATOM     25  C   UNL     1       9.036  -5.910  -0.941  0.00  0.00    +0.055 A 
ATOM     26  C   UNL     1       9.771  -6.941  -1.421  0.00  0.00    +0.121 A 
ATOM     27  C   UNL     1      10.471  -7.821  -0.577  0.00  0.00    +0.047 A 
ATOM     28  C   UNL     1      10.460  -7.701   0.768  0.00  0.00    +0.029 A 
ATOM     29  C   UNL     1       9.696  -6.618   1.395  0.00  0.00    +0.043 A 
ATOM     30  N   UNL     1       9.521  -6.282   2.649  0.00  0.00    -0.380 N 
ATOM     31  C   UNL     1       8.655  -5.098   2.700  0.00  0.00    +0.144 C 
ATOM     32  H   UNL     1       9.902  -6.738   3.416  0.00  0.00    +0.160 HD
BRANCH  26  33
ATOM     33  O   UNL     1       9.833  -7.133  -2.766  0.00  0.00    -0.495 OA
ATOM     34  C   UNL     1      10.620  -8.233  -3.228  0.00  0.00    +0.277 C 
ENDBRANCH  26  33
ENDBRANCH  22  23
ENDBRANCH  21  22
ENDBRANCH  18  21
ENDBRANCH   1  18
TORSDOF 6
