REMARK  Name = ZINC05352502
REMARK  6 active torsions:
REMARK  status: ('A' for Active; 'I' for Inactive)
REMARK    1  A    between atoms: C_1  and  C_2
REMARK    2  A    between atoms: C_4  and  C_29
REMARK    3  A    between atoms: C_6  and  N_8
REMARK    4  A    between atoms: C_9  and  C_11
REMARK    5  A    between atoms: C_11  and  N_12
REMARK    6  A    between atoms: C_21  and  C_23
REMARK                            x       y       z     vdW  Elec       q    Type
REMARK                         _______ _______ _______ _____ _____    ______ ____
ROOT
ATOM      1  N   UNL     1       0.370  -1.956   5.976  0.00  0.00    +0.390 N 
ATOM      2  C   UNL     1       1.616  -1.182   5.869  0.00  0.00    -0.073 C 
ATOM      3  C   UNL     1       1.547  -0.011   6.850  0.00  0.00    +0.017 C 
ATOM      4  C   UNL     1       1.167  -0.513   8.219  0.00  0.00    -0.044 A 
ATOM      5  C   UNL     1       1.381   0.316   9.312  0.00  0.00    +0.053 A 
ATOM      6  C   UNL     1       1.040  -0.110  10.582  0.00  0.00    +0.162 A 
ATOM      7  C   UNL     1       0.484  -1.369  10.763  0.00  0.00    +0.162 A 
ATOM      8  C   UNL     1       0.274  -2.194   9.674  0.00  0.00    +0.051 A 
ATOM      9  C   UNL     1       0.617  -1.764   8.399  0.00  0.00    -0.054 A 
ATOM     10  C   UNL     1       0.376  -2.696   7.240  0.00  0.00    -0.040 C 
ATOM     11  C   UNL     1      -0.975  -3.392   7.425  0.00  0.00    -0.008 C 
ATOM     12  O   UNL     1       0.148  -1.783  12.019  0.00  0.00    -0.488 OA
ATOM     13  C   UNL     1       1.238  -2.021  12.912  0.00  0.00    +0.232 C 
ATOM     14  C   UNL     1       1.683  -0.728  13.577  0.00  0.00    +0.082 C 
ATOM     15  C   UNL     1       2.252   0.271  12.581  0.00  0.00    +0.232 C 
ATOM     16  O   UNL     1       1.245   0.699  11.662  0.00  0.00    -0.488 OA
ATOM     17  H   UNL     1      -0.421  -1.330   5.955  0.00  0.00    -0.080 HD
ENDROOT
BRANCH   1  18
ATOM     18  C   UNL     1       0.280  -2.900   4.854  0.00  0.00    +0.020 C 
BRANCH  18  20
ATOM     19  N   UNL     1       0.052  -2.797   2.393  0.00  0.00    -0.287 N 
ATOM     20  C   UNL     1       0.150  -2.134   3.562  0.00  0.00    +0.201 C 
ATOM     21  O   UNL     1       0.134  -0.922   3.575  0.00  0.00    -0.278 OA
ATOM     22  H   UNL     1      -0.003  -3.766   2.387  0.00  0.00    +0.155 HD
BRANCH  19  28
ATOM     23  C   UNL     1       1.264  -2.495  -2.362  0.00  0.00    +0.044 C 
ATOM     24  C   UNL     1       0.609  -1.918  -1.134  0.00  0.00    -0.048 A 
ATOM     25  C   UNL     1      -0.016  -0.686  -1.198  0.00  0.00    +0.006 A 
ATOM     26  C   UNL     1      -0.619  -0.154  -0.073  0.00  0.00    -0.048 A 
ATOM     27  C   UNL     1      -0.598  -0.851   1.119  0.00  0.00    +0.026 A 
ATOM     28  C   UNL     1       0.029  -2.088   1.187  0.00  0.00    +0.034 A 
ATOM     29  C   UNL     1       0.629  -2.623   0.054  0.00  0.00    +0.026 A 
ATOM     30  C   UNL     1      -1.298   1.189  -0.148  0.00  0.00    +0.044 C 
ENDBRANCH  19  28
ENDBRANCH  18  20
ENDBRANCH   1  18
TORSDOF 3
