REMARK  Name = ZINC16780505
REMARK  12 active torsions:
REMARK  status: ('A' for Active; 'I' for Inactive)
REMARK    1  A    between atoms: C_1  and  C_2
REMARK    2  A    between atoms: C_2  and  N_64
REMARK    3  A    between atoms: C_3  and  C_4
REMARK    4  A    between atoms: C_3  and  N_64
REMARK    5  A    between atoms: C_5  and  C_6
REMARK    6  A    between atoms: C_5  and  N_64
REMARK    7  A    between atoms: C_9  and  C_12
REMARK    8  A    between atoms: C_12  and  N_13
REMARK    9  A    between atoms: C_14  and  C_16
REMARK   10  A    between atoms: C_19  and  S_22
REMARK   11  A    between atoms: S_22  and  N_25
REMARK   12  A    between atoms: N_25  and  C_26
REMARK                            x       y       z     vdW  Elec       q    Type
REMARK                         _______ _______ _______ _____ _____    ______ ____
ROOT
ATOM      1  N   UNL     1       5.519   7.157  -3.969  0.00  0.00    -0.307 N 
ATOM      2  C   UNL     1       6.047   6.021  -4.466  0.00  0.00    +0.244 C 
ATOM      3  O   UNL     1       7.233   5.965  -4.725  0.00  0.00    -0.270 OA
ATOM      4  H   UNL     1       4.572   7.202  -3.763  0.00  0.00    +0.149 HD
ENDROOT
BRANCH   2   5
ATOM      5  C   UNL     1       5.183   4.843  -4.698  0.00  0.00    +0.037 A 
ATOM      6  C   UNL     1       5.727   3.666  -5.213  0.00  0.00    +0.015 A 
ATOM      7  C   UNL     1       4.916   2.570  -5.426  0.00  0.00    +0.029 A 
ATOM      8  C   UNL     1       3.566   2.638  -5.131  0.00  0.00    +0.105 A 
ATOM      9  C   UNL     1       3.020   3.804  -4.625  0.00  0.00    +0.029 A 
ATOM     10  C   UNL     1       3.821   4.904  -4.402  0.00  0.00    +0.015 A 
BRANCH   8  11
ATOM     11  S   UNL     1       2.537   1.234  -5.407  0.00  0.00    +0.059 S 
ATOM     12  O   UNL     1       3.180   0.448  -6.401  0.00  0.00    -0.153 OA
ATOM     13  O   UNL     1       1.213   1.726  -5.563  0.00  0.00    -0.153 OA
BRANCH  11  14
ATOM     14  N   UNL     1       2.547   0.338  -4.014  0.00  0.00    -0.185 NA
ATOM     15  H   UNL     1       2.934  -0.552  -4.013  0.00  0.00    +0.148 HD
BRANCH  14  16
ATOM     16  C   UNL     1       1.973   0.889  -2.784  0.00  0.00    +0.099 C 
ATOM     17  C   UNL     1       0.526   0.393  -2.620  0.00  0.00    +0.044 C 
ATOM     18  C   UNL     1       0.024   0.698  -1.188  0.00  0.00    +0.167 C 
ATOM     19  S   UNL     1       1.577   0.683  -0.202  0.00  0.00    -0.029 S 
ATOM     20  O   UNL     1       1.570  -0.449   0.656  0.00  0.00    -0.174 OA
ATOM     21  O   UNL     1       1.789   1.976   0.348  0.00  0.00    -0.174 OA
ATOM     22  C   UNL     1       2.794   0.402  -1.557  0.00  0.00    +0.186 C 
ENDBRANCH  14  16
ENDBRANCH  11  14
ENDBRANCH   8  11
ENDBRANCH   2   5
BRANCH   1  23
ATOM     23  C   UNL     1       6.374   8.323  -3.740  0.00  0.00    +0.139 C 
BRANCH  23  27
ATOM     24  C   UNL     1       4.025  11.525  -2.164  0.00  0.00    -0.064 A 
ATOM     25  C   UNL     1       4.629  10.624  -1.307  0.00  0.00    +0.002 A 
ATOM     26  C   UNL     1       5.389   9.588  -1.817  0.00  0.00    +0.005 A 
ATOM     27  C   UNL     1       5.545   9.453  -3.184  0.00  0.00    -0.030 A 
ATOM     28  C   UNL     1       4.946  10.357  -4.041  0.00  0.00    +0.005 A 
ATOM     29  C   UNL     1       4.182  11.390  -3.531  0.00  0.00    +0.002 A 
BRANCH  24  30
ATOM     30  C   UNL     1       3.196  12.653  -1.609  0.00  0.00    -0.043 C 
BRANCH  30  31
ATOM     31  N   UNL     1       4.067  13.829  -1.402  0.00  0.00    +0.382 N 
ATOM     32  H   UNL     1       4.584  14.018  -2.269  0.00  0.00    -0.081 HD
BRANCH  31  34
ATOM     33  C   UNL     1       2.608  15.548  -2.344  0.00  0.00    -0.017 C 
ATOM     34  C   UNL     1       3.248  15.012  -1.063  0.00  0.00    -0.082 C 
ENDBRANCH  31  34
BRANCH  31  35
ATOM     35  C   UNL     1       5.034  13.556  -0.317  0.00  0.00    -0.082 C 
ATOM     36  C   UNL     1       6.140  14.611  -0.368  0.00  0.00    -0.017 C 
ENDBRANCH  31  35
ENDBRANCH  30  31
ENDBRANCH  24  30
ENDBRANCH  23  27
ENDBRANCH   1  23
TORSDOF 10
