REMARK  Name = ZINC63403977
REMARK  11 active torsions:
REMARK  status: ('A' for Active; 'I' for Inactive)
REMARK    1  A    between atoms: C_1  and  C_2
REMARK    2  A    between atoms: C_2  and  C_4
REMARK    3  A    between atoms: C_2  and  S_16
REMARK    4  A    between atoms: N_6  and  C_7
REMARK    5  A    between atoms: C_10  and  N_13
REMARK    6  A    between atoms: N_13  and  C_14
REMARK    7  A    between atoms: N_13  and  C_15
REMARK    8  A    between atoms: S_16  and  C_17
REMARK    9  A    between atoms: C_21  and  C_30
REMARK   10  A    between atoms: N_22  and  C_23
REMARK   11  A    between atoms: C_23  and  C_24
REMARK                            x       y       z     vdW  Elec       q    Type
REMARK                         _______ _______ _______ _____ _____    ______ ____
ROOT
ATOM      1  C   UNL     1      -2.382  -0.341   1.310  0.00  0.00    +0.237 C 
ATOM      2  N   UNL     1      -2.432   1.130   1.330  0.00  0.00    -0.237 N 
ATOM      3  N   UNL     1      -1.634   1.540   2.404  0.00  0.00    -0.169 NA
ATOM      4  C   UNL     1      -1.115   0.516   3.029  0.00  0.00    +0.147 C 
ATOM      5  N   UNL     1      -1.509  -0.693   2.442  0.00  0.00    -0.283 N 
ATOM      6  H   UNL     1      -2.921   1.702   0.718  0.00  0.00    +0.171 HD
ENDROOT
BRANCH   4   7
ATOM      7  C   UNL     1      -0.271   0.615   4.145  0.00  0.00    +0.022 C 
ATOM      8  C   UNL     1       0.073   1.774   4.843  0.00  0.00    +0.006 A 
ATOM      9  C   UNL     1      -0.283   3.129   4.675  0.00  0.00    +0.010 A 
ATOM     10  C   UNL     1       0.213   4.066   5.523  0.00  0.00    +0.001 A 
ATOM     11  C   UNL     1       1.075   3.724   6.567  0.00  0.00    +0.002 A 
ATOM     12  C   UNL     1       1.459   2.442   6.787  0.00  0.00    +0.026 A 
ATOM     13  C   UNL     1       0.981   1.408   5.942  0.00  0.00    +0.043 A 
ATOM     14  N   UNL     1       1.200   0.107   5.945  0.00  0.00    -0.380 N 
ATOM     15  C   UNL     1       0.451  -0.513   4.849  0.00  0.00    +0.152 C 
ATOM     16  H   UNL     1       1.766  -0.365   6.577  0.00  0.00    +0.160 HD
ENDBRANCH   4   7
BRANCH   1  17
ATOM     17  S   UNL     1      -1.667  -0.931  -0.249  0.00  0.00    -0.106 S 
BRANCH  17  19
ATOM     18  C   UNL     1      -0.230   1.390  -0.434  0.00  0.00    +0.029 C 
ATOM     19  C   UNL     1      -0.043  -0.125  -0.320  0.00  0.00    +0.133 C 
BRANCH  19  20
ATOM     20  C   UNL     1       0.716  -0.629  -1.520  0.00  0.00    +0.230 C 
ATOM     21  O   UNL     1       0.115  -1.066  -2.478  0.00  0.00    -0.274 OA
ATOM     22  N   UNL     1       2.063  -0.593  -1.529  0.00  0.00    -0.285 N 
ATOM     23  H   UNL     1       2.542  -0.181  -0.793  0.00  0.00    +0.155 HD
BRANCH  22  24
ATOM     24  C   UNL     1       2.772  -1.151  -2.602  0.00  0.00    +0.034 A 
ATOM     25  C   UNL     1       3.986  -1.786  -2.377  0.00  0.00    +0.025 A 
ATOM     26  C   UNL     1       4.684  -2.336  -3.434  0.00  0.00    +0.025 A 
ATOM     27  C   UNL     1       4.172  -2.253  -4.722  0.00  0.00    +0.029 A 
ATOM     28  C   UNL     1       2.958  -1.617  -4.947  0.00  0.00    +0.025 A 
ATOM     29  C   UNL     1       2.257  -1.073  -3.889  0.00  0.00    +0.025 A 
BRANCH  27  30
ATOM     30  N   UNL     1       4.879  -2.809  -5.793  0.00  0.00    -0.336 N 
ATOM     31  C   UNL     1       6.160  -3.479  -5.556  0.00  0.00    +0.129 C 
ATOM     32  C   UNL     1       4.339  -2.722  -7.152  0.00  0.00    +0.129 C 
ENDBRANCH  27  30
ENDBRANCH  22  24
ENDBRANCH  19  20
ENDBRANCH  17  19
ENDBRANCH   1  17
BRANCH   5  33
ATOM     33  C   UNL     1      -1.129  -2.041   2.869  0.00  0.00    +0.140 C 
BRANCH  33  34
ATOM     34  C   UNL     1      -2.074  -2.512   3.975  0.00  0.00    +0.136 C 
ATOM     35  C   UNL     1      -1.624  -3.894   4.496  0.00  0.00    +0.035 C 
ATOM     36  C   UNL     1      -2.979  -4.621   4.715  0.00  0.00    +0.031 C 
ATOM     37  C   UNL     1      -3.822  -4.026   3.559  0.00  0.00    +0.160 C 
ATOM     38  O   UNL     1      -3.400  -2.655   3.453  0.00  0.00    -0.375 OA
ENDBRANCH  33  34
ENDBRANCH   5  33
TORSDOF 8
