REMARK  Name = ZINC60355027
REMARK  11 active torsions:
REMARK  status: ('A' for Active; 'I' for Inactive)
REMARK    1  A    between atoms: C_1  and  C_2
REMARK    2  A    between atoms: C_5  and  N_8
REMARK    3  A    between atoms: C_9  and  C_30
REMARK    4  A    between atoms: C_10  and  C_13
REMARK    5  A    between atoms: N_15  and  C_16
REMARK    6  A    between atoms: C_16  and  C_17
REMARK    7  A    between atoms: C_17  and  C_19
REMARK    8  A    between atoms: C_17  and  N_25
REMARK    9  A    between atoms: C_22  and  C_24
REMARK   10  A    between atoms: C_30  and  C_31
REMARK   11  A    between atoms: C_30  and  C_32
REMARK                            x       y       z     vdW  Elec       q    Type
REMARK                         _______ _______ _______ _____ _____    ______ ____
ROOT
ATOM      1  C   UNL     1       1.482  -7.586   0.906  0.00  0.00    +0.247 C 
ATOM      2  O   UNL     1       2.167  -7.433   1.900  0.00  0.00    -0.270 OA
ATOM      3  N   UNL     1       1.337  -8.814   0.369  0.00  0.00    -0.312 N 
ATOM      4  H   UNL     1       0.791  -8.935  -0.423  0.00  0.00    +0.149 HD
ENDROOT
BRANCH   1   7
ATOM      5  N   UNL     1       0.164  -4.375  -0.151  0.00  0.00    -0.236 N 
ATOM      6  C   UNL     1       0.945  -5.106   0.664  0.00  0.00    +0.060 A 
ATOM      7  C   UNL     1       0.809  -6.428   0.290  0.00  0.00    +0.078 A 
ATOM      8  C   UNL     1      -0.095  -6.463  -0.796  0.00  0.00    +0.148 A 
ATOM      9  N   UNL     1      -0.475  -5.240  -1.045  0.00  0.00    -0.174 NA
BRANCH   5  14
ATOM     10  C   UNL     1      -0.452   1.264   0.021  0.00  0.00    +0.044 C 
ATOM     11  C   UNL     1      -0.288  -0.233  -0.025  0.00  0.00    -0.050 A 
ATOM     12  C   UNL     1      -0.123  -0.873  -1.240  0.00  0.00    +0.005 A 
ATOM     13  C   UNL     1       0.027  -2.245  -1.285  0.00  0.00    +0.028 A 
ATOM     14  C   UNL     1       0.013  -2.982  -0.109  0.00  0.00    +0.066 A 
ATOM     15  C   UNL     1      -0.152  -2.337   1.110  0.00  0.00    +0.028 A 
ATOM     16  C   UNL     1      -0.297  -0.964   1.149  0.00  0.00    +0.005 A 
ENDBRANCH   5  14
BRANCH   6  17
ATOM     17  C   UNL     1       1.810  -4.580   1.781  0.00  0.00    +0.032 C 
ATOM     18  C   UNL     1       1.332  -5.161   3.113  0.00  0.00    +0.014 C 
ATOM     19  C   UNL     1       3.264  -4.990   1.537  0.00  0.00    +0.014 C 
ENDBRANCH   6  17
ENDBRANCH   1   7
BRANCH   3  20
ATOM     20  C   UNL     1       2.006  -9.964   0.982  0.00  0.00    +0.097 C 
BRANCH  20  21
ATOM     21  C   UNL     1       1.586 -11.244   0.256  0.00  0.00    +0.016 C 
BRANCH  21  22
ATOM     22  C   UNL     1       2.063 -11.191  -1.172  0.00  0.00    +0.093 A 
ATOM     23  C   UNL     1       1.315 -10.861  -2.240  0.00  0.00    +0.043 A 
ATOM     24  C   UNL     1       2.158 -10.940  -3.372  0.00  0.00    +0.044 A 
ATOM     25  C   UNL     1       3.372 -11.315  -2.929  0.00  0.00    +0.102 A 
ATOM     26  O   UNL     1       3.310 -11.459  -1.595  0.00  0.00    -0.466 OA
ATOM     27  C   UNL     1       4.594 -11.530  -3.783  0.00  0.00    +0.086 C 
ENDBRANCH  21  22
BRANCH  21  28
ATOM     28  N   UNL     1       2.182 -12.406   0.928  0.00  0.00    +0.387 N 
ATOM     29  C   UNL     1       1.591 -12.574   2.281  0.00  0.00    -0.078 C 
ATOM     30  C   UNL     1       1.863 -14.065   2.603  0.00  0.00    -0.020 C 
ATOM     31  C   UNL     1       1.660 -14.758   1.236  0.00  0.00    -0.020 C 
ATOM     32  C   UNL     1       1.856 -13.645   0.189  0.00  0.00    -0.078 C 
ATOM     33  H   UNL     1       3.182 -12.294   0.996  0.00  0.00    -0.081 HD
ENDBRANCH  21  28
ENDBRANCH  20  21
ENDBRANCH   3  20
TORSDOF 7
