REMARK  Name = ZINC38806118
REMARK  13 active torsions:
REMARK  status: ('A' for Active; 'I' for Inactive)
REMARK    1  A    between atoms: C_1  and  C_2
REMARK    2  A    between atoms: C_2  and  C_31
REMARK    3  A    between atoms: C_5  and  C_27
REMARK    4  A    between atoms: C_6  and  N_13
REMARK    5  A    between atoms: C_9  and  C_11
REMARK    6  A    between atoms: C_9  and  C_12
REMARK    7  A    between atoms: C_14  and  C_16
REMARK    8  A    between atoms: C_16  and  C_17
REMARK    9  A    between atoms: C_16  and  C_18
REMARK   10  A    between atoms: C_16  and  O_19
REMARK   11  A    between atoms: O_19  and  C_20
REMARK   12  A    between atoms: C_27  and  O_29
REMARK   13  A    between atoms: O_29  and  C_30
REMARK                            x       y       z     vdW  Elec       q    Type
REMARK                         _______ _______ _______ _____ _____    ______ ____
ROOT
ATOM      1  C   UNL     1      -1.850   1.134  -1.651  0.00  0.00    -0.010 C 
ATOM      2  C   UNL     1      -1.827  -0.395  -1.590  0.00  0.00    -0.069 C 
ATOM      3  C   UNL     1      -3.232  -0.913  -1.255  0.00  0.00    +0.024 C 
ATOM      4  C   UNL     1      -3.551  -0.448   0.158  0.00  0.00    -0.024 A 
ATOM      5  C   UNL     1      -4.855  -0.125   0.694  0.00  0.00    +0.091 A 
ATOM      6  C   UNL     1      -4.905   0.286   2.020  0.00  0.00    +0.086 A 
ATOM      7  S   UNL     1      -3.304   0.244   2.525  0.00  0.00    -0.079 S 
ATOM      8  C   UNL     1      -2.531  -0.317   1.038  0.00  0.00    -0.016 A 
ATOM      9  C   UNL     1      -1.091  -0.604   0.772  0.00  0.00    -0.041 C 
ATOM     10  N   UNL     1      -0.829  -0.868  -0.641  0.00  0.00    +0.389 N 
ATOM     11  C   UNL     1      -0.236   0.574   1.260  0.00  0.00    -0.005 C 
ATOM     12  C   UNL     1      -0.689  -1.848   1.588  0.00  0.00    -0.005 C 
ATOM     13  C   UNL     1      -1.454  -0.918  -2.990  0.00  0.00    -0.010 C 
ATOM     14  H   UNL     1      -0.713  -1.875  -0.768  0.00  0.00    -0.084 HD
ATOM     15  H   UNL     1       0.073  -0.455  -0.887  0.00  0.00    -0.084 HD
ENDROOT
BRANCH   6  16
ATOM     16  N   UNL     1      -6.022   0.648   2.756  0.00  0.00    -0.276 N 
ATOM     17  C   UNL     1      -5.889   1.024   4.044  0.00  0.00    +0.261 C 
ATOM     18  O   UNL     1      -4.790   1.046   4.558  0.00  0.00    -0.271 OA
ATOM     19  H   UNL     1      -6.901   0.630   2.345  0.00  0.00    +0.155 HD
BRANCH  17  20
ATOM     20  C   UNL     1      -7.103   1.417   4.844  0.00  0.00    +0.180 C 
ATOM     21  C   UNL     1      -7.788   2.613   4.179  0.00  0.00    +0.065 C 
ATOM     22  C   UNL     1      -8.078   0.239   4.903  0.00  0.00    +0.065 C 
BRANCH  20  23
ATOM     23  O   UNL     1      -6.706   1.773   6.170  0.00  0.00    -0.477 OA
BRANCH  23  24
ATOM     24  C   UNL     1      -6.097   0.810   6.911  0.00  0.00    +0.122 A 
ATOM     25  C   UNL     1      -5.771  -0.409   6.333  0.00  0.00    +0.047 A 
ATOM     26  C   UNL     1      -5.153  -1.387   7.088  0.00  0.00    +0.023 A 
ATOM     27  C   UNL     1      -4.858  -1.151   8.419  0.00  0.00    +0.041 A 
ATOM     28  C   UNL     1      -5.183   0.064   8.997  0.00  0.00    +0.023 A 
ATOM     29  C   UNL     1      -5.795   1.046   8.244  0.00  0.00    +0.047 A 
ATOM     30 CL   UNL     1      -4.081  -2.381   9.366  0.00  0.00    -0.084 Cl
ENDBRANCH  23  24
ENDBRANCH  20  23
ENDBRANCH  17  20
ENDBRANCH   6  16
BRANCH   5  31
ATOM     31  C   UNL     1      -6.073  -0.225  -0.113  0.00  0.00    +0.342 C 
ATOM     32  O   UNL     1      -6.700  -1.267  -0.141  0.00  0.00    -0.245 OA
BRANCH  31  33
ATOM     33  O   UNL     1      -6.500   0.838  -0.826  0.00  0.00    -0.464 OA
ATOM     34  C   UNL     1      -7.695   0.669  -1.590  0.00  0.00    +0.280 C 
ENDBRANCH  31  33
ENDBRANCH   5  31
TORSDOF 6
