REMARK  Name = ZINC12610350
REMARK  2 active torsions:
REMARK  status: ('A' for Active; 'I' for Inactive)
REMARK    1  A    between atoms: C_8  and  C_21
REMARK    2  A    between atoms: C_10  and  C_17
REMARK                            x       y       z     vdW  Elec       q    Type
REMARK                         _______ _______ _______ _____ _____    ______ ____
ROOT
ATOM      1  C   UNL     1      -0.976   5.834  -1.539  0.00  0.00    +0.001 A 
ATOM      2  C   UNL     1      -2.066   5.114  -2.008  0.00  0.00    +0.001 A 
ATOM      3  C   UNL     1      -2.060   3.736  -1.985  0.00  0.00    +0.014 A 
ATOM      4  C   UNL     1      -0.949   3.059  -1.486  0.00  0.00    +0.047 A 
ATOM      5  C   UNL     1       0.159   3.792  -1.010  0.00  0.00    -0.001 A 
ATOM      6  C   UNL     1       0.134   5.183  -1.042  0.00  0.00    +0.009 A 
ATOM      7  C   UNL     1       1.316   3.047  -0.490  0.00  0.00    +0.033 A 
ATOM      8  C   UNL     1       2.453   3.721  -0.001  0.00  0.00    +0.002 A 
ATOM      9  C   UNL     1       3.517   2.947   0.478  0.00  0.00    +0.042 A 
ATOM     10  C   UNL     1       3.410   1.572   0.452  0.00  0.00    +0.146 A 
ATOM     11  N   UNL     1       2.333   0.971  -0.012  0.00  0.00    -0.225 NA
ATOM     12  C   UNL     1       1.289   1.646  -0.481  0.00  0.00    +0.143 A 
ATOM     13  N   UNL     1       0.186   0.961  -0.955  0.00  0.00    -0.306 N 
ATOM     14  H   UNL     1       0.195  -0.009  -0.936  0.00  0.00    +0.170 HD
ATOM     15  C   UNL     1      -0.896   1.591  -1.445  0.00  0.00    +0.258 A 
ATOM     16  O   UNL     1      -1.839   0.940  -1.855  0.00  0.00    -0.267 OA
ENDROOT
BRANCH   8  17
ATOM     17  C   UNL     1       2.520   5.194   0.006  0.00  0.00    +0.020 A 
ATOM     18  C   UNL     1       3.235   6.030  -0.812  0.00  0.00    +0.016 A 
ATOM     19  C   UNL     1       3.136   7.389  -0.619  0.00  0.00    +0.008 A 
ATOM     20  C   UNL     1       2.345   7.859   0.382  0.00  0.00    +0.046 A 
ATOM     21  S   UNL     1       1.697   6.353   1.087  0.00  0.00    -0.097 S 
ENDBRANCH   8  17
BRANCH  10  22
ATOM     22  C   UNL     1       4.553   0.737   0.967  0.00  0.00    +0.434 C 
ATOM     23  F   UNL     1       4.280  -0.617   0.743  0.00  0.00    -0.164 F 
ATOM     24  F   UNL     1       5.729   1.093   0.298  0.00  0.00    -0.164 F 
ATOM     25  F   UNL     1       4.712   0.959   2.339  0.00  0.00    -0.164 F 
ENDBRANCH  10  22
TORSDOF 2
