REMARK  Name = ZINC58989856
REMARK  10 active torsions:
REMARK  status: ('A' for Active; 'I' for Inactive)
REMARK    1  A    between atoms: C_4  and  C_7
REMARK    2  A    between atoms: C_8  and  C_9
REMARK    3  A    between atoms: N_10  and  N_11
REMARK    4  A    between atoms: C_12  and  C_14
REMARK    5  A    between atoms: C_14  and  C_15
REMARK    6  A    between atoms: C_15  and  C_16
REMARK    7  A    between atoms: C_16  and  S_17
REMARK    8  A    between atoms: S_17  and  C_18
REMARK    9  A    between atoms: C_21  and  C_24
REMARK   10  A    between atoms: N_22  and  N_23
REMARK                            x       y       z     vdW  Elec       q    Type
REMARK                         _______ _______ _______ _____ _____    ______ ____
ROOT
ATOM      1  C   UNL     1       8.622  -9.030  -0.131  0.00  0.00    +0.078 C 
ENDROOT
BRANCH   1   2
ATOM      2  C   UNL     1       7.285  -8.287  -0.113  0.00  0.00    +0.020 C 
BRANCH   2   3
ATOM      3  C   UNL     1       7.539  -6.778  -0.108  0.00  0.00    +0.098 C 
BRANCH   3   5
ATOM      4  N   UNL     1       6.200  -4.699  -0.084  0.00  0.00    -0.207 N 
ATOM      5  C   UNL     1       6.222  -6.047  -0.091  0.00  0.00    +0.232 C 
ATOM      6  O   UNL     1       5.182  -6.671  -0.084  0.00  0.00    -0.274 OA
ATOM      7  H   UNL     1       7.032  -4.200  -0.089  0.00  0.00    +0.177 HD
BRANCH   4   9
ATOM      8  C   UNL     1       4.954  -2.717  -0.060  0.00  0.00    +0.130 C 
ATOM      9  N   UNL     1       4.975  -4.019  -0.068  0.00  0.00    -0.188 NA
BRANCH   8  11
ATOM     10  C   UNL     1       3.692  -0.680  -0.037  0.00  0.00    +0.009 C 
ATOM     11  C   UNL     1       3.714  -2.028  -0.045  0.00  0.00    +0.022 C 
BRANCH  10  15
ATOM     12  C   UNL     1      -0.017   1.380   0.010  0.00  0.00    +0.000 A 
ATOM     13  C   UNL     1       1.168   2.095   0.002  0.00  0.00    +0.001 A 
ATOM     14  C   UNL     1       2.377   1.433  -0.013  0.00  0.00    +0.008 A 
ATOM     15  C   UNL     1       2.405   0.035  -0.021  0.00  0.00    -0.025 A 
ATOM     16  C   UNL     1       1.203  -0.681  -0.013  0.00  0.00    +0.008 A 
ATOM     17  C   UNL     1       0.002  -0.004   0.002  0.00  0.00    +0.001 A 
ENDBRANCH  10  15
ENDBRANCH   8  11
ENDBRANCH   4   9
ENDBRANCH   3   5
ENDBRANCH   2   3
ENDBRANCH   1   2
BRANCH   1  18
ATOM     18  S   UNL     1       8.320 -10.819  -0.137  0.00  0.00    -0.084 S 
BRANCH  18  19
ATOM     19  C   UNL     1       9.935 -11.523  -0.157  0.00  0.00    +0.209 A 
ATOM     20  N   UNL     1      11.073 -10.865  -0.159  0.00  0.00    -0.121 NA
ATOM     21  N   UNL     1      12.059 -11.689  -0.175  0.00  0.00    -0.127 NA
ATOM     22  C   UNL     1      11.612 -12.923  -0.184  0.00  0.00    +0.182 A 
ATOM     23  N   UNL     1      10.238 -12.855  -0.167  0.00  0.00    -0.224 N 
BRANCH  22  24
ATOM     24  C   UNL     1      12.430 -14.154  -0.203  0.00  0.00    +0.021 A 
ATOM     25  C   UNL     1      11.846 -15.379  -0.530  0.00  0.00    +0.013 A 
ATOM     26  C   UNL     1      12.615 -16.524  -0.546  0.00  0.00    +0.016 A 
ATOM     27  C   UNL     1      13.963 -16.461  -0.238  0.00  0.00    +0.018 A 
ATOM     28  C   UNL     1      14.548 -15.249   0.087  0.00  0.00    +0.016 A 
ATOM     29  C   UNL     1      13.791 -14.096   0.100  0.00  0.00    +0.013 A 
ATOM     30 BR   UNL     1      15.010 -18.035  -0.262  0.00  0.00    -0.050 Br
ENDBRANCH  22  24
BRANCH  23  31
ATOM     31  N   UNL     1       9.359 -13.901  -0.163  0.00  0.00    -0.295 N 
ATOM     32  H   UNL     1       9.117 -14.173  -1.104  0.00  0.00    +0.163 HD
ATOM     33  H   UNL     1       9.730 -14.683   0.355  0.00  0.00    +0.163 HD
ENDBRANCH  23  31
ENDBRANCH  18  19
ENDBRANCH   1  18
TORSDOF 10
