REMARK  Name = ZINC02598965
REMARK  9 active torsions:
REMARK  status: ('A' for Active; 'I' for Inactive)
REMARK    1  A    between atoms: C_1  and  C_2
REMARK    2  A    between atoms: C_2  and  C_3
REMARK    3  A    between atoms: C_3  and  C_5
REMARK    4  A    between atoms: C_3  and  C_6
REMARK    5  A    between atoms: C_11  and  C_23
REMARK    6  A    between atoms: C_14  and  C_17
REMARK    7  A    between atoms: C_17  and  C_18
REMARK    8  A    between atoms: C_18  and  C_19
REMARK    9  A    between atoms: C_19  and  N_20
REMARK                            x       y       z     vdW  Elec       q    Type
REMARK                         _______ _______ _______ _____ _____    ______ ____
ROOT
ATOM      1  C   UNL     1       1.319  -4.260   3.212  0.00  0.00    +0.111 A 
ATOM      2  C   UNL     1       1.600  -5.376   2.412  0.00  0.00    +0.279 A 
ATOM      3  O   UNL     1       2.007  -6.465   2.795  0.00  0.00    -0.265 OA
ATOM      4  N   UNL     1       1.350  -5.015   1.138  0.00  0.00    -0.263 N 
ATOM      5  C   UNL     1       1.454  -5.681  -0.071  0.00  0.00    +0.122 A 
ATOM      6  C   UNL     1       1.125  -5.049  -1.215  0.00  0.00    +0.066 A 
ATOM      7  N   UNL     1       0.683  -3.733  -1.189  0.00  0.00    -0.354 N 
ATOM      8  H   UNL     1       0.449  -3.288  -2.018  0.00  0.00    +0.166 HD
ATOM      9  C   UNL     1       0.575  -3.067  -0.020  0.00  0.00    +0.060 A 
ATOM     10  C   UNL     1       0.911  -3.693   1.165  0.00  0.00    +0.160 A 
ATOM     11  N   UNL     1       0.906  -3.282   2.433  0.00  0.00    -0.227 NA
ENDROOT
BRANCH   6  12
ATOM     12  C   UNL     1       1.236  -5.761  -2.505  0.00  0.00    +0.025 A 
ATOM     13  C   UNL     1       0.367  -5.693  -3.546  0.00  0.00    +0.093 A 
ATOM     14  N   UNL     1       0.805  -6.490  -4.565  0.00  0.00    -0.360 N 
ATOM     15  H   UNL     1       0.351  -6.605  -5.415  0.00  0.00    +0.165 HD
ATOM     16  C   UNL     1       1.986  -7.106  -4.212  0.00  0.00    +0.047 A 
ATOM     17  C   UNL     1       2.314  -6.676  -2.915  0.00  0.00    +0.009 A 
ATOM     18  C   UNL     1       3.475  -7.140  -2.299  0.00  0.00    +0.010 A 
ATOM     19  C   UNL     1       4.299  -8.016  -2.969  0.00  0.00    +0.001 A 
ATOM     20  C   UNL     1       3.978  -8.439  -4.251  0.00  0.00    +0.002 A 
ATOM     21  C   UNL     1       2.830  -7.996  -4.870  0.00  0.00    +0.026 A 
ENDBRANCH   6  12
BRANCH   1  22
ATOM     22  C   UNL     1       1.454  -4.194   4.712  0.00  0.00    +0.040 C 
ATOM     23  C   UNL     1       0.091  -3.887   5.334  0.00  0.00    +0.014 C 
BRANCH  22  25
ATOM     24  C   UNL     1       2.679  -3.107   6.598  0.00  0.00    +0.004 C 
ATOM     25  C   UNL     1       2.447  -3.092   5.086  0.00  0.00    +0.006 C 
ENDBRANCH  22  25
ENDBRANCH   1  22
BRANCH   9  26
ATOM     26  C   UNL     1       0.094  -1.639  -0.008  0.00  0.00    +0.059 C 
BRANCH  26  27
ATOM     27  C   UNL     1       1.298  -0.695  -0.014  0.00  0.00    +0.027 C 
BRANCH  27  28
ATOM     28  C   UNL     1       0.810   0.755  -0.002  0.00  0.00    +0.116 C 
BRANCH  28  29
ATOM     29  N   UNL     1       1.963   1.658  -0.008  0.00  0.00    -0.358 N 
ATOM     30  C   UNL     1       1.770   3.019   0.001  0.00  0.00    +0.166 C 
ATOM     31  N   UNL     1       0.495   3.533   0.016  0.00  0.00    -0.372 N 
ATOM     32  H   UNL     1       2.863   1.296  -0.018  0.00  0.00    +0.162 HD
ATOM     33  H   UNL     1       2.762   4.798   0.002  0.00  0.00    +0.159 HD
ATOM     34  H   UNL     1      -0.269   2.934   0.020  0.00  0.00    +0.159 HD
ATOM     35  H   UNL     1       0.358   4.493   0.023  0.00  0.00    +0.159 HD
ATOM     36  N   UNL     1       2.854   3.782  -0.005  0.00  0.00    -0.372 N 
ATOM     37  H   UNL     1       3.785   3.351  -0.016  0.00  0.00    +0.159 HD
ENDBRANCH  28  29
ENDBRANCH  27  28
ENDBRANCH  26  27
ENDBRANCH   9  26
TORSDOF 7
