REMARK  Name = ZINC00828368
REMARK  5 active torsions:
REMARK  status: ('A' for Active; 'I' for Inactive)
REMARK    1  A    between atoms: C_1  and  C_2
REMARK    2  A    between atoms: C_5  and  N_25
REMARK    3  A    between atoms: C_14  and  C_16
REMARK    4  A    between atoms: C_20  and  N_22
REMARK    5  A    between atoms: N_25  and  C_26
REMARK                            x       y       z     vdW  Elec       q    Type
REMARK                         _______ _______ _______ _____ _____    ______ ____
ROOT
ATOM      1  C   UNL     1      -4.728  -0.540  -0.081  0.00  0.00    +0.028 C 
ATOM      2  C   UNL     1      -4.937   0.926   0.302  0.00  0.00    +0.081 C 
ATOM      3  C   UNL     1      -6.065   1.525  -0.540  0.00  0.00    +0.049 C 
ATOM      4  C   UNL     1      -6.303   2.969  -0.097  0.00  0.00    +0.104 C 
ATOM      5  C   UNL     1      -5.007   3.736  -0.082  0.00  0.00    -0.006 A 
ATOM      6  C   UNL     1      -5.046   5.120  -0.133  0.00  0.00    +0.007 A 
ATOM      7  C   UNL     1      -3.875   5.851  -0.118  0.00  0.00    +0.000 A 
ATOM      8  C   UNL     1      -2.654   5.206  -0.050  0.00  0.00    +0.002 A 
ATOM      9  C   UNL     1      -2.605   3.828  -0.000  0.00  0.00    +0.024 A 
ATOM     10  C   UNL     1      -3.783   3.089  -0.018  0.00  0.00    +0.042 A 
ATOM     11  N   UNL     1      -3.712   1.691   0.030  0.00  0.00    -0.264 N 
ATOM     12  C   UNL     1      -2.540   1.057  -0.176  0.00  0.00    +0.251 C 
ATOM     13  O   UNL     1      -2.451  -0.138   0.029  0.00  0.00    -0.270 OA
ENDROOT
BRANCH  12  14
ATOM     14  C   UNL     1      -1.364   1.815  -0.652  0.00  0.00    +0.039 A 
ATOM     15  C   UNL     1      -1.508   2.780  -1.651  0.00  0.00    +0.013 A 
ATOM     16  C   UNL     1      -0.405   3.479  -2.094  0.00  0.00    +0.003 A 
ATOM     17  C   UNL     1       0.842   3.230  -1.548  0.00  0.00    +0.033 A 
ATOM     18  C   UNL     1       0.991   2.279  -0.554  0.00  0.00    +0.127 A 
ATOM     19  C   UNL     1      -0.104   1.573  -0.101  0.00  0.00    +0.045 A 
BRANCH  18  20
ATOM     20  N   UNL     1       2.328   2.020   0.025  0.00  0.00    +0.056 N 
ATOM     21  O   UNL     1       2.461   1.183   0.900  0.00  0.00    -0.126 OA
ATOM     22  O   UNL     1       3.296   2.643  -0.374  0.00  0.00    -0.126 OA
ENDBRANCH  18  20
ENDBRANCH  12  14
BRANCH   4  23
ATOM     23  N   UNL     1      -6.883   2.974   1.248  0.00  0.00    -0.337 N 
ATOM     24  H   UNL     1      -6.321   3.149   2.019  0.00  0.00    +0.147 HD
BRANCH  23  25
ATOM     25  C   UNL     1      -8.247   2.725   1.421  0.00  0.00    +0.028 A 
ATOM     26  C   UNL     1      -9.075   2.586   0.315  0.00  0.00    +0.023 A 
ATOM     27  C   UNL     1     -10.422   2.336   0.489  0.00  0.00    +0.002 A 
ATOM     28  C   UNL     1     -10.948   2.235   1.764  0.00  0.00    +0.000 A 
ATOM     29  C   UNL     1     -10.128   2.379   2.868  0.00  0.00    +0.002 A 
ATOM     30  C   UNL     1      -8.779   2.624   2.700  0.00  0.00    +0.023 A 
ENDBRANCH  23  25
ENDBRANCH   4  23
TORSDOF 4
