REMARK  Name = ZINC39353198
REMARK  8 active torsions:
REMARK  status: ('A' for Active; 'I' for Inactive)
REMARK    1  A    between atoms: C_1  and  C_2
REMARK    2  A    between atoms: C_3  and  C_30
REMARK    3  A    between atoms: C_7  and  N_8
REMARK    4  A    between atoms: C_9  and  C_29
REMARK    5  A    between atoms: C_12  and  C_16
REMARK    6  A    between atoms: C_13  and  C_15
REMARK    7  A    between atoms: C_17  and  C_18
REMARK    8  A    between atoms: C_17  and  C_20
REMARK                            x       y       z     vdW  Elec       q    Type
REMARK                         _______ _______ _______ _____ _____    ______ ____
ROOT
ATOM      1  N   UNL     1       0.020  -0.214   2.615  0.00  0.00    -0.317 N 
ATOM      2  C   UNL     1      -0.955   0.055   3.679  0.00  0.00    +0.094 C 
ATOM      3  C   UNL     1      -0.254   0.872   4.733  0.00  0.00    +0.000 C 
ATOM      4  C   UNL     1       1.006   1.086   4.369  0.00  0.00    -0.028 C 
ATOM      5  C   UNL     1       1.270   0.428   3.040  0.00  0.00    +0.101 C 
ATOM      6  C   UNL     1       1.689   1.483   2.014  0.00  0.00    +0.033 C 
ATOM      7  C   UNL     1      -1.447  -1.263   4.281  0.00  0.00    +0.032 C 
ENDROOT
BRANCH   1  14
ATOM      8  C   UNL     1      -0.869   1.198   0.314  0.00  0.00    +0.046 C 
ATOM      9  C   UNL     1      -0.630  -0.289   0.295  0.00  0.00    -0.015 A 
ATOM     10  C   UNL     1      -0.839  -1.018  -0.878  0.00  0.00    +0.068 A 
ATOM     11  C   UNL     1      -0.615  -2.397  -0.887  0.00  0.00    +0.015 A 
ATOM     12  C   UNL     1      -0.188  -3.034   0.260  0.00  0.00    +0.003 A 
ATOM     13  C   UNL     1       0.019  -2.313   1.421  0.00  0.00    +0.023 A 
ATOM     14  C   UNL     1      -0.196  -0.939   1.440  0.00  0.00    +0.034 A 
BRANCH  10  15
ATOM     15  C   UNL     1      -1.296  -0.334  -2.103  0.00  0.00    +0.387 C 
ATOM     16  O   UNL     1      -2.290  -0.735  -2.693  0.00  0.00    -0.241 OA
ATOM     17  O   UNL     1      -0.682   0.635  -2.528  0.00  0.00    -0.241 OA
ENDBRANCH  10  15
ENDBRANCH   1  14
BRANCH   4  18
ATOM     18  C   UNL     1       1.990   1.842   5.145  0.00  0.00    +0.023 C 
ATOM     19  C   UNL     1       1.709   3.101   5.549  0.00  0.00    +0.072 C 
BRANCH  19  20
ATOM     20  C   UNL     1       2.683   3.847   6.424  0.00  0.00    +0.216 C 
ATOM     21  N   UNL     1       2.023   4.271   7.665  0.00  0.00    -0.359 N 
ATOM     22  C   UNL     1       2.075   5.571   7.711  0.00  0.00    +0.060 A 
ATOM     23  C   UNL     1       1.594   6.557   8.689  0.00  0.00    +0.027 A 
ATOM     24  C   UNL     1       1.797   7.870   8.464  0.00  0.00    +0.002 A 
ATOM     25  C   UNL     1       2.457   8.351   7.319  0.00  0.00    +0.002 A 
ATOM     26  C   UNL     1       2.937   7.533   6.360  0.00  0.00    +0.027 A 
ATOM     27  C   UNL     1       2.775   6.079   6.499  0.00  0.00    +0.060 A 
ATOM     28  N   UNL     1       3.127   5.074   5.751  0.00  0.00    -0.359 N 
ATOM     29  H   UNL     1       1.622   3.689   8.329  0.00  0.00    +0.162 HD
ATOM     30  H   UNL     1       3.598   5.126   4.904  0.00  0.00    +0.162 HD
ENDBRANCH  19  20
BRANCH  19  31
ATOM     31  C   UNL     1       0.485   3.726   5.146  0.00  0.00    +0.099 C 
ATOM     32  N   UNL     1      -0.486   4.222   4.826  0.00  0.00    -0.191 NA
ENDBRANCH  19  31
ENDBRANCH   4  18
TORSDOF 5
