REMARK  Name = ZINC35747595
REMARK  11 active torsions:
REMARK  status: ('A' for Active; 'I' for Inactive)
REMARK    1  A    between atoms: C_1  and  O_2
REMARK    2  A    between atoms: O_2  and  C_3
REMARK    3  A    between atoms: C_3  and  C_4
REMARK    4  A    between atoms: C_4  and  C_6
REMARK    5  A    between atoms: C_4  and  O_33
REMARK    6  A    between atoms: C_6  and  N_7
REMARK    7  A    between atoms: N_7  and  C_8
REMARK    8  A    between atoms: N_7  and  C_14
REMARK    9  A    between atoms: C_8  and  C_9
REMARK   10  A    between atoms: C_14  and  C_15
REMARK   11  A    between atoms: C_21  and  C_26
REMARK                            x       y       z     vdW  Elec       q    Type
REMARK                         _______ _______ _______ _____ _____    ______ ____
ROOT
ATOM      1  C   UNL     1       0.301  -4.288   4.428  0.00  0.00    +0.094 A 
ATOM      2  N   UNL     1       0.366  -4.757   5.701  0.00  0.00    -0.312 N 
ATOM      3  H   UNL     1       1.007  -5.452   5.919  0.00  0.00    +0.170 HD
ATOM      4  C   UNL     1      -0.440  -4.276   6.665  0.00  0.00    +0.260 A 
ATOM      5  O   UNL     1      -0.368  -4.707   7.803  0.00  0.00    -0.267 OA
ATOM      6  C   UNL     1      -1.382  -3.251   6.335  0.00  0.00    +0.080 A 
ATOM      7  C   UNL     1      -2.350  -2.576   7.191  0.00  0.00    +0.004 A 
ATOM      8  C   UNL     1      -3.148  -1.624   6.649  0.00  0.00    +0.056 A 
ATOM      9  S   UNL     1      -2.636  -1.581   4.942  0.00  0.00    -0.076 S 
ATOM     10  C   UNL     1      -1.377  -2.829   4.995  0.00  0.00    +0.116 A 
ATOM     11  N   UNL     1      -0.544  -3.349   4.097  0.00  0.00    -0.229 NA
ENDROOT
BRANCH   7  12
ATOM     12  C   UNL     1      -2.461  -2.926   8.627  0.00  0.00    -0.015 A 
ATOM     13  C   UNL     1      -2.573  -4.261   9.016  0.00  0.00    +0.008 A 
ATOM     14  C   UNL     1      -2.675  -4.581  10.354  0.00  0.00    +0.002 A 
ATOM     15  C   UNL     1      -2.668  -3.581  11.310  0.00  0.00    +0.020 A 
ATOM     16  C   UNL     1      -2.557  -2.254  10.931  0.00  0.00    +0.042 A 
ATOM     17  C   UNL     1      -2.447  -1.923   9.595  0.00  0.00    +0.028 A 
ATOM     18 CL   UNL     1      -2.549  -1.006  12.137  0.00  0.00    -0.084 Cl
ENDBRANCH   7  12
BRANCH   1  19
ATOM     19  C   UNL     1       1.224  -4.857   3.381  0.00  0.00    -0.003 C 
BRANCH  19  20
ATOM     20  N   UNL     1       1.075  -4.097   2.133  0.00  0.00    +0.391 N 
ATOM     21  H   UNL     1       0.101  -4.071   1.870  0.00  0.00    -0.080 HD
BRANCH  20  22
ATOM     22  C   UNL     1       1.567  -2.727   2.332  0.00  0.00    -0.044 C 
BRANCH  22  23
ATOM     23  C   UNL     1       1.243  -1.885   1.096  0.00  0.00    +0.124 C 
BRANCH  23  24
ATOM     24  O   UNL     1       2.027  -2.340  -0.009  0.00  0.00    -0.391 OA
ATOM     25  H   UNL     1       2.982  -2.280   0.135  0.00  0.00    +0.210 HD
ENDBRANCH  23  24
BRANCH  23  26
ATOM     26  C   UNL     1       1.566  -0.417   1.380  0.00  0.00    +0.188 C 
BRANCH  26  28
ATOM     27  C   UNL     1       1.414   1.780   0.435  0.00  0.00    +0.194 C 
ATOM     28  O   UNL     1       1.156   0.385   0.270  0.00  0.00    -0.381 OA
ENDBRANCH  26  28
ENDBRANCH  23  26
ENDBRANCH  22  23
ENDBRANCH  20  22
BRANCH  20  29
ATOM     29  C   UNL     1       1.852  -4.747   1.069  0.00  0.00    -0.002 C 
BRANCH  29  30
ATOM     30  C   UNL     1       1.313  -6.133   0.828  0.00  0.00    +0.089 A 
ATOM     31  C   UNL     1       0.406  -6.473  -0.106  0.00  0.00    +0.042 A 
ATOM     32  C   UNL     1       0.191  -7.865   0.020  0.00  0.00    +0.041 A 
ATOM     33  C   UNL     1       0.979  -8.292   1.023  0.00  0.00    +0.195 A 
ATOM     34  O   UNL     1       1.661  -7.240   1.505  0.00  0.00    -0.470 OA
ENDBRANCH  29  30
ENDBRANCH  20  29
ENDBRANCH  19  20
ENDBRANCH   1  19
TORSDOF 10
