REMARK  Name = ZINC35675789
REMARK  3 active torsions:
REMARK  status: ('A' for Active; 'I' for Inactive)
REMARK    1  A    between atoms: C_3  and  O_9
REMARK    2  A    between atoms: O_9  and  C_10
REMARK    3  A    between atoms: C_13  and  N_19
REMARK                            x       y       z     vdW  Elec       q    Type
REMARK                         _______ _______ _______ _____ _____    ______ ____
ROOT
ATOM      1  C   UNL     1       3.379   3.455  -0.005  0.00  0.00    +0.159 A 
ATOM      2  C   UNL     1       2.131   3.987   0.073  0.00  0.00    +0.050 A 
ATOM      3  C   UNL     1       1.903   5.364   0.092  0.00  0.00    +0.029 A 
ATOM      4  C   UNL     1       2.914   6.271   0.034  0.00  0.00    +0.056 A 
ATOM      5  C   UNL     1       4.301   5.802  -0.052  0.00  0.00    +0.158 A 
ATOM      6  C   UNL     1       4.541   4.345  -0.066  0.00  0.00    +0.178 A 
ATOM      7  N   UNL     1       5.835   4.146  -0.140  0.00  0.00    -0.045 NA
ATOM      8  O   UNL     1       6.470   5.413  -0.169  0.00  0.00    -0.241 OA
ATOM      9  N   UNL     1       5.461   6.407  -0.120  0.00  0.00    -0.047 NA
ENDROOT
BRANCH   4  10
ATOM     10  N   UNL     1       2.634   7.638   0.055  0.00  0.00    -0.356 N 
ATOM     11  H   UNL     1       1.715   7.944   0.112  0.00  0.00    +0.142 HD
ATOM     12  H   UNL     1       3.358   8.283   0.013  0.00  0.00    +0.142 HD
ENDBRANCH   4  10
BRANCH   1  13
ATOM     13  O   UNL     1       3.548   2.107  -0.021  0.00  0.00    -0.453 OA
BRANCH  13  16
ATOM     14  C   UNL     1       4.200   1.585   3.521  0.00  0.00    +0.042 A 
ATOM     15  C   UNL     1       3.958   2.224   2.320  0.00  0.00    +0.050 A 
ATOM     16  C   UNL     1       3.787   1.480   1.161  0.00  0.00    +0.143 A 
ATOM     17  C   UNL     1       3.861   0.094   1.210  0.00  0.00    +0.063 A 
ATOM     18  C   UNL     1       4.104  -0.541   2.413  0.00  0.00    +0.057 A 
ATOM     19  C   UNL     1       4.273   0.203   3.568  0.00  0.00    +0.125 A 
ATOM     20  F   UNL     1       4.511  -0.419   4.744  0.00  0.00    -0.205 F 
ATOM     21 BR   UNL     1       3.629  -0.922  -0.367  0.00  0.00    -0.046 Br
ENDBRANCH  13  16
ENDBRANCH   1  13
TORSDOF 3
