REMARK  Name = ZINC02349115
REMARK  7 active torsions:
REMARK  status: ('A' for Active; 'I' for Inactive)
REMARK    1  A    between atoms: C_1  and  C_2
REMARK    2  A    between atoms: C_5  and  C_9
REMARK    3  A    between atoms: C_7  and  C_8
REMARK    4  A    between atoms: C_9  and  S_10
REMARK    5  A    between atoms: S_10  and  C_11
REMARK    6  A    between atoms: C_14  and  C_17
REMARK    7  A    between atoms: N_15  and  N_16
REMARK                            x       y       z     vdW  Elec       q    Type
REMARK                         _______ _______ _______ _____ _____    ______ ____
ROOT
ATOM      1  C   UNL     1       1.750   5.666  -0.146  0.00  0.00    +0.209 A 
ATOM      2  N   UNL     1       0.487   5.571   0.205  0.00  0.00    -0.121 NA
ATOM      3  N   UNL     1       0.147   4.335   0.297  0.00  0.00    -0.127 NA
ATOM      4  C   UNL     1       1.171   3.565   0.009  0.00  0.00    +0.182 A 
ATOM      5  N   UNL     1       2.231   4.394  -0.277  0.00  0.00    -0.224 N 
ENDROOT
BRANCH   4   6
ATOM      6  C   UNL     1       1.184   2.087   0.002  0.00  0.00    +0.022 A 
ATOM      7  C   UNL     1      -0.017   1.375   0.010  0.00  0.00    +0.012 A 
ATOM      8  C   UNL     1       0.002  -0.004   0.002  0.00  0.00    +0.002 A 
ATOM      9  C   UNL     1       1.208  -0.683  -0.014  0.00  0.00    +0.020 A 
ATOM     10  C   UNL     1       2.402   0.017  -0.022  0.00  0.00    +0.042 A 
ATOM     11  C   UNL     1       2.397   1.397  -0.013  0.00  0.00    +0.031 A 
ATOM     12 CL   UNL     1       3.910  -0.844  -0.042  0.00  0.00    -0.084 Cl
ENDBRANCH   4   6
BRANCH   5  13
ATOM     13  N   UNL     1       3.499   4.023  -0.623  0.00  0.00    -0.295 N 
ATOM     14  H   UNL     1       3.587   3.926  -1.624  0.00  0.00    +0.163 HD
ATOM     15  H   UNL     1       4.178   4.675  -0.262  0.00  0.00    +0.163 HD
ENDBRANCH   5  13
BRANCH   1  16
ATOM     16  S   UNL     1       2.657   7.156  -0.394  0.00  0.00    -0.080 S 
BRANCH  16  17
ATOM     17  C   UNL     1       1.366   8.373  -0.032  0.00  0.00    +0.112 C 
BRANCH  17  22
ATOM     18  C   UNL     1       3.524  13.702  -0.617  0.00  0.00    +0.044 C 
ATOM     19  C   UNL     1       2.961  12.312  -0.465  0.00  0.00    -0.048 A 
ATOM     20  C   UNL     1       3.023  11.672   0.759  0.00  0.00    +0.004 A 
ATOM     21  C   UNL     1       2.503  10.399   0.900  0.00  0.00    +0.005 A 
ATOM     22  C   UNL     1       1.929   9.762  -0.185  0.00  0.00    -0.037 A 
ATOM     23  C   UNL     1       1.866  10.403  -1.408  0.00  0.00    +0.008 A 
ATOM     24  C   UNL     1       2.382  11.678  -1.548  0.00  0.00    -0.047 A 
ATOM     25  C   UNL     1       2.314  12.376  -2.882  0.00  0.00    +0.044 C 
ENDBRANCH  17  22
ENDBRANCH  16  17
ENDBRANCH   1  16
TORSDOF 5
