REMARK  Name = ZINC01240008
REMARK  5 active torsions:
REMARK  status: ('A' for Active; 'I' for Inactive)
REMARK    1  A    between atoms: C_1  and  C_2
REMARK    2  A    between atoms: C_3  and  C_30
REMARK    3  A    between atoms: C_4  and  C_23
REMARK    4  A    between atoms: C_10  and  C_11
REMARK    5  A    between atoms: N_32  and  C_33
REMARK                            x       y       z     vdW  Elec       q    Type
REMARK                         _______ _______ _______ _____ _____    ______ ____
ROOT
ATOM      1  C   UNL     1       3.687   4.584  -3.105  0.00  0.00    +0.066 C 
ATOM      2  C   UNL     1       3.560   3.799  -1.825  0.00  0.00    +0.051 C 
ATOM      3  C   UNL     1       2.459   3.020  -1.615  0.00  0.00    +0.063 C 
ATOM      4  C   UNL     1       2.369   2.249  -0.318  0.00  0.00    +0.160 C 
ATOM      5  N   UNL     1       3.499   2.399   0.642  0.00  0.00    -0.275 N 
ATOM      6  C   UNL     1       3.602   1.801   1.835  0.00  0.00    +0.268 A 
ATOM      7  O   UNL     1       2.731   1.054   2.240  0.00  0.00    -0.266 OA
ATOM      8  C   UNL     1       4.799   2.075   2.643  0.00  0.00    +0.081 A 
ATOM      9  C   UNL     1       5.139   1.601   3.870  0.00  0.00    +0.028 C 
ATOM     10  S   UNL     1       5.685   3.198   1.575  0.00  0.00    -0.046 S 
ATOM     11  C   UNL     1       4.513   3.235   0.233  0.00  0.00    +0.178 A 
ATOM     12  N   UNL     1       4.521   3.872  -0.911  0.00  0.00    -0.228 NA
ENDROOT
BRANCH   9  13
ATOM     13  C   UNL     1       6.267   2.194   4.599  0.00  0.00    -0.020 A 
ATOM     14  C   UNL     1       6.733   1.598   5.778  0.00  0.00    +0.012 A 
ATOM     15  C   UNL     1       7.795   2.154   6.456  0.00  0.00    +0.050 A 
ATOM     16  C   UNL     1       8.400   3.311   5.982  0.00  0.00    +0.166 A 
ATOM     17  C   UNL     1       7.938   3.914   4.811  0.00  0.00    +0.167 A 
ATOM     18  C   UNL     1       6.878   3.360   4.121  0.00  0.00    +0.057 A 
ATOM     19  O   UNL     1       8.694   5.024   4.565  0.00  0.00    -0.453 OA
ATOM     20  C   UNL     1       9.352   5.323   5.809  0.00  0.00    +0.466 C 
ATOM     21  O   UNL     1       9.443   4.045   6.465  0.00  0.00    -0.453 OA
ENDBRANCH   9  13
BRANCH   4  22
ATOM     22  C   UNL     1       1.105   2.671   0.386  0.00  0.00    -0.020 A 
ATOM     23  C   UNL     1       0.029   1.805   0.450  0.00  0.00    +0.009 A 
ATOM     24  C   UNL     1      -1.133   2.193   1.091  0.00  0.00    +0.039 A 
ATOM     25  C   UNL     1      -1.215   3.444   1.678  0.00  0.00    +0.123 A 
ATOM     26  C   UNL     1      -0.136   4.310   1.612  0.00  0.00    +0.039 A 
ATOM     27  C   UNL     1       1.022   3.922   0.967  0.00  0.00    +0.009 A 
ATOM     28  F   UNL     1      -2.348   3.821   2.309  0.00  0.00    -0.205 F 
ENDBRANCH   4  22
BRANCH   3  29
ATOM     29  C   UNL     1       1.437   2.937  -2.578  0.00  0.00    +0.248 C 
ATOM     30  O   UNL     1       1.365   1.964  -3.308  0.00  0.00    -0.270 OA
ATOM     31  N   UNL     1       0.537   3.934  -2.694  0.00  0.00    -0.282 N 
ATOM     32  H   UNL     1       0.665   4.860  -2.114  0.00  0.00    +0.155 HD
BRANCH  31  33
ATOM     33  C   UNL     1      -0.558   3.791  -3.551  0.00  0.00    +0.034 A 
ATOM     34  C   UNL     1      -1.099   2.533  -3.784  0.00  0.00    +0.023 A 
ATOM     35  C   UNL     1      -2.185   2.396  -4.628  0.00  0.00    +0.002 A 
ATOM     36  C   UNL     1      -2.726   3.507  -5.247  0.00  0.00    +0.000 A 
ATOM     37  C   UNL     1      -2.186   4.760  -5.021  0.00  0.00    +0.002 A 
ATOM     38  C   UNL     1      -1.104   4.905  -4.174  0.00  0.00    +0.023 A 
ENDBRANCH  31  33
ENDBRANCH   3  29
TORSDOF 4
