REMARK  Name = ZINC39280189
REMARK  6 active torsions:
REMARK  status: ('A' for Active; 'I' for Inactive)
REMARK    1  A    between atoms: C_1  and  O_2
REMARK    2  A    between atoms: O_2  and  C_3
REMARK    3  A    between atoms: C_6  and  C_9
REMARK    4  A    between atoms: C_25  and  N_38
REMARK    5  A    between atoms: C_26  and  C_36
REMARK    6  A    between atoms: C_27  and  C_29
REMARK                            x       y       z     vdW  Elec       q    Type
REMARK                         _______ _______ _______ _____ _____    ______ ____
ROOT
ATOM      1  C   UNL     1      -4.960  -2.618   0.035  0.00  0.00    +0.072 A 
ATOM      2  C   UNL     1      -5.011  -4.015   0.040  0.00  0.00    +0.029 A 
ATOM      3  C   UNL     1      -6.212  -4.660   0.016  0.00  0.00    +0.014 A 
ATOM      4  C   UNL     1      -7.407  -3.901  -0.008  0.00  0.00    +0.027 A 
ATOM      5  C   UNL     1      -7.259  -2.488   0.051  0.00  0.00    +0.107 A 
ATOM      6  N   UNL     1      -6.084  -1.906   0.045  0.00  0.00    -0.240 NA
ATOM      7  S   UNL     1      -8.924  -1.853   0.177  0.00  0.00    -0.088 S 
ATOM      8  C   UNL     1      -9.725  -3.439   0.661  0.00  0.00    +0.166 C 
ATOM      9  C   UNL     1      -8.784  -4.387  -0.101  0.00  0.00    +0.065 C 
ATOM     10  N   UNL     1      -9.338  -5.417  -0.688  0.00  0.00    -0.179 NA
ATOM     11  C   UNL     1     -10.662  -5.517  -0.871  0.00  0.00    +0.268 C 
ATOM     12  O   UNL     1     -11.114  -6.557  -1.318  0.00  0.00    -0.268 OA
ATOM     13  C   UNL     1     -11.588  -4.428  -0.553  0.00  0.00    +0.068 C 
ATOM     14  C   UNL     1     -11.162  -3.383   0.211  0.00  0.00    +0.135 C 
ATOM     15  O   UNL     1     -11.950  -2.352   0.547  0.00  0.00    -0.444 OA
ATOM     16  C   UNL     1     -13.288  -2.489   0.505  0.00  0.00    +0.198 C 
ATOM     17  C   UNL     1     -13.871  -3.480  -0.213  0.00  0.00    +0.098 C 
ATOM     18  C   UNL     1     -13.012  -4.486  -1.032  0.00  0.00    +0.103 C 
ENDROOT
BRANCH  18  19
ATOM     19  C   UNL     1     -13.060  -4.151  -2.500  0.00  0.00    -0.034 A 
ATOM     20  C   UNL     1     -12.601  -2.925  -2.944  0.00  0.00    +0.007 A 
ATOM     21  C   UNL     1     -12.643  -2.616  -4.290  0.00  0.00    +0.038 A 
ATOM     22  C   UNL     1     -13.146  -3.536  -5.195  0.00  0.00    +0.123 A 
ATOM     23  C   UNL     1     -13.605  -4.764  -4.750  0.00  0.00    +0.038 A 
ATOM     24  C   UNL     1     -13.557  -5.072  -3.403  0.00  0.00    +0.007 A 
ATOM     25  F   UNL     1     -13.188  -3.235  -6.511  0.00  0.00    -0.205 F 
ENDBRANCH  18  19
BRANCH   1  29
ATOM     26  C   UNL     1      -1.199  -0.637   0.010  0.00  0.00    +0.120 A 
ATOM     27  C   UNL     1      -2.374   0.105   0.019  0.00  0.00    +0.046 A 
ATOM     28  C   UNL     1      -3.595  -0.534   0.028  0.00  0.00    +0.013 A 
ATOM     29  C   UNL     1      -3.651  -1.928   0.026  0.00  0.00    +0.001 A 
ATOM     30  C   UNL     1      -2.469  -2.671   0.016  0.00  0.00    +0.013 A 
ATOM     31  C   UNL     1      -1.251  -2.025   0.003  0.00  0.00    +0.046 A 
BRANCH  26  33
ATOM     32  C   UNL     1      -0.017   1.425   0.010  0.00  0.00    +0.277 C 
ATOM     33  O   UNL     1       0.002  -0.004   0.002  0.00  0.00    -0.495 OA
ENDBRANCH  26  33
ENDBRANCH   1  29
BRANCH  16  34
ATOM     34  N   UNL     1     -14.078  -1.609   1.203  0.00  0.00    -0.328 N 
ATOM     35  H   UNL     1     -13.670  -0.897   1.720  0.00  0.00    +0.145 HD
ATOM     36  H   UNL     1     -15.043  -1.699   1.179  0.00  0.00    +0.145 HD
ENDBRANCH  16  34
BRANCH  17  37
ATOM     37  C   UNL     1     -15.299  -3.595  -0.228  0.00  0.00    +0.101 C 
ATOM     38  N   UNL     1     -16.431  -3.687  -0.239  0.00  0.00    -0.191 NA
ENDBRANCH  17  37
TORSDOF 5
