REMARK  Name = ZINC65266449
REMARK  5 active torsions:
REMARK  status: ('A' for Active; 'I' for Inactive)
REMARK    1  A    between atoms: C_1  and  C_2
REMARK    2  A    between atoms: C_2  and  C_3
REMARK    3  A    between atoms: C_2  and  C_4
REMARK    4  A    between atoms: C_2  and  N_5
REMARK    5  A    between atoms: C_20  and  C_22
REMARK                            x       y       z     vdW  Elec       q    Type
REMARK                         _______ _______ _______ _____ _____    ______ ____
ROOT
ATOM      1  N   UNL     1       0.721  -0.443  -1.210  0.00  0.00    -0.370 N 
ATOM      2  C   UNL     1       1.968  -0.143  -1.374  0.00  0.00    +0.099 C 
ATOM      3  N   UNL     1       2.701   0.496  -0.387  0.00  0.00    -0.286 N 
ATOM      4  C   UNL     1       3.655   1.439  -0.790  0.00  0.00    +0.145 A 
ATOM      5  C   UNL     1       4.033   1.531  -2.131  0.00  0.00    +0.069 A 
ATOM      6  C   UNL     1       4.989   2.462  -2.507  0.00  0.00    +0.028 A 
ATOM      7  C   UNL     1       5.533   3.280  -1.525  0.00  0.00    +0.022 A 
ATOM      8  C   UNL     1       5.108   3.141  -0.219  0.00  0.00    +0.113 A 
ATOM      9  N   UNL     1       4.198   2.243   0.111  0.00  0.00    -0.238 NA
ATOM     10  N   UNL     1       3.446   0.699  -3.098  0.00  0.00    -0.328 N 
ATOM     11  C   UNL     1       2.701  -0.477  -2.646  0.00  0.00    +0.103 C 
ATOM     12  C   UNL     1       1.724  -0.968  -3.730  0.00  0.00    +0.054 C 
ATOM     13  C   UNL     1       2.615  -1.875  -4.609  0.00  0.00    +0.111 C 
ATOM     14  N   UNL     1       3.770  -2.279  -3.791  0.00  0.00    -0.295 N 
ATOM     15  C   UNL     1       3.628  -1.688  -2.446  0.00  0.00    +0.141 C 
ATOM     16  C   UNL     1       4.788  -3.061  -4.202  0.00  0.00    +0.253 C 
ATOM     17  O   UNL     1       5.694  -3.332  -3.437  0.00  0.00    -0.269 OA
ATOM     18  H   UNL     1       0.209  -0.812  -1.946  0.00  0.00    +0.161 HD
ATOM     19  H   UNL     1       3.534   0.898  -4.043  0.00  0.00    +0.147 HD
ATOM     20  H   UNL     1       2.558   0.298   0.551  0.00  0.00    +0.155 HD
ENDROOT
BRANCH  16  21
ATOM     21  C   UNL     1       4.803  -3.584  -5.570  0.00  0.00    +0.075 A 
ATOM     22  C   UNL     1       5.742  -4.400  -6.183  0.00  0.00    +0.022 A 
ATOM     23  C   UNL     1       5.484  -4.729  -7.492  0.00  0.00    +0.028 A 
ATOM     24  C   UNL     1       4.359  -4.249  -8.082  0.00  0.00    +0.079 A 
ATOM     25  S   UNL     1       3.616  -3.344  -6.878  0.00  0.00    -0.072 S 
ATOM     26 CL   UNL     1       3.811  -4.517  -9.708  0.00  0.00    -0.076 Cl
ENDBRANCH  16  21
BRANCH   1  28
ATOM     27  C   UNL     1       0.258   1.237   0.506  0.00  0.00    +0.033 C 
ATOM     28  C   UNL     1       0.080  -0.224   0.090  0.00  0.00    +0.031 C 
ATOM     29  C   UNL     1       0.726  -1.135   1.136  0.00  0.00    +0.033 C 
ATOM     30  C   UNL     1      -1.411  -0.547  -0.016  0.00  0.00    +0.033 C 
ENDBRANCH   1  28
TORSDOF 2
