REMARK  Name = ZINC40035866
REMARK  13 active torsions:
REMARK  status: ('A' for Active; 'I' for Inactive)
REMARK    1  A    between atoms: C_1  and  C_2
REMARK    2  A    between atoms: C_2  and  C_3
REMARK    3  A    between atoms: C_3  and  C_4
REMARK    4  A    between atoms: C_4  and  C_5
REMARK    5  A    between atoms: C_5  and  C_6
REMARK    6  A    between atoms: C_6  and  O_7
REMARK    7  A    between atoms: O_7  and  C_8
REMARK    8  A    between atoms: C_13  and  C_14
REMARK    9  A    between atoms: N_15  and  N_16
REMARK   10  A    between atoms: N_23  and  C_24
REMARK   11  A    between atoms: C_30  and  C_38
REMARK   12  A    between atoms: C_30  and  C_39
REMARK   13  A    between atoms: C_39  and  C_40
REMARK                            x       y       z     vdW  Elec       q    Type
REMARK                         _______ _______ _______ _____ _____    ______ ____
ROOT
ATOM      1  N   UNL     1       4.432  -3.542   5.509  0.00  0.00    -0.206 N 
ATOM      2  C   UNL     1       4.481  -2.178   5.393  0.00  0.00    +0.223 A 
ATOM      3  N   UNL     1       3.429  -1.532   4.930  0.00  0.00    -0.214 NA
ATOM      4  C   UNL     1       3.442  -0.201   4.804  0.00  0.00    +0.084 A 
ATOM      5  C   UNL     1       4.570   0.520   5.167  0.00  0.00    +0.050 A 
ATOM      6  C   UNL     1       5.685  -0.172   5.656  0.00  0.00    +0.264 A 
ATOM      7  O   UNL     1       6.696   0.427   5.984  0.00  0.00    -0.267 OA
ATOM      8  N   UNL     1       5.615  -1.517   5.764  0.00  0.00    -0.248 N 
ATOM      9  C   UNL     1       4.585   2.017   5.042  0.00  0.00    +0.004 C 
ATOM     10  C   UNL     1       3.802   2.461   3.809  0.00  0.00    +0.047 C 
ATOM     11  C   UNL     1       2.438   1.827   3.792  0.00  0.00    -0.037 A 
ATOM     12  C   UNL     1       2.267   0.528   4.274  0.00  0.00    +0.004 A 
ATOM     13  C   UNL     1       1.008  -0.064   4.254  0.00  0.00    +0.010 A 
ATOM     14  C   UNL     1      -0.071   0.641   3.759  0.00  0.00    +0.001 A 
ATOM     15  C   UNL     1       0.100   1.929   3.285  0.00  0.00    +0.000 A 
ATOM     16  C   UNL     1       1.351   2.521   3.302  0.00  0.00    +0.004 A 
ATOM     17  C   UNL     1       6.033   2.498   4.920  0.00  0.00    +0.016 C 
ATOM     18  H   UNL     1       5.191  -4.026   5.870  0.00  0.00    +0.177 HD
ENDROOT
BRANCH   8  19
ATOM     19  C   UNL     1       6.713  -2.236   6.252  0.00  0.00    +0.053 A 
ATOM     20  C   UNL     1       7.485  -3.001   5.388  0.00  0.00    +0.026 A 
ATOM     21  C   UNL     1       8.568  -3.708   5.872  0.00  0.00    +0.002 A 
ATOM     22  C   UNL     1       8.883  -3.655   7.218  0.00  0.00    +0.000 A 
ATOM     23  C   UNL     1       8.117  -2.895   8.082  0.00  0.00    +0.002 A 
ATOM     24  C   UNL     1       7.036  -2.181   7.602  0.00  0.00    +0.026 A 
ENDBRANCH   8  19
BRANCH   1  26
ATOM     25  C   UNL     1       3.199  -5.519   5.306  0.00  0.00    +0.142 C 
ATOM     26  N   UNL     1       3.284  -4.239   5.107  0.00  0.00    -0.187 NA
BRANCH  25  32
ATOM     27  C   UNL     1       1.896  -7.632   5.081  0.00  0.00    +0.129 A 
ATOM     28  C   UNL     1       0.804  -8.328   4.589  0.00  0.00    +0.046 A 
ATOM     29  C   UNL     1      -0.133  -7.682   3.804  0.00  0.00    +0.004 A 
ATOM     30  C   UNL     1       0.013  -6.339   3.502  0.00  0.00    +0.001 A 
ATOM     31  C   UNL     1       1.094  -5.631   3.984  0.00  0.00    +0.013 A 
ATOM     32  C   UNL     1       2.044  -6.270   4.783  0.00  0.00    +0.036 A 
BRANCH  27  33
ATOM     33  O   UNL     1       2.817  -8.265   5.853  0.00  0.00    -0.491 OA
BRANCH  33  34
ATOM     34  C   UNL     1       2.667  -9.677   6.015  0.00  0.00    +0.229 C 
BRANCH  34  35
ATOM     35  C   UNL     1       3.815 -10.217   6.870  0.00  0.00    +0.041 C 
BRANCH  35  36
ATOM     36  C   UNL     1       3.715 -11.741   6.954  0.00  0.00    +0.003 C 
BRANCH  36  37
ATOM     37  C   UNL     1       4.918 -12.290   7.724  0.00  0.00    -0.000 C 
BRANCH  37  39
ATOM     38  C   UNL     1       6.017 -14.366   8.576  0.00  0.00    +0.004 C 
ATOM     39  C   UNL     1       4.873 -13.819   7.720  0.00  0.00    -0.003 C 
ENDBRANCH  37  39
ENDBRANCH  36  37
ENDBRANCH  35  36
ENDBRANCH  34  35
ENDBRANCH  33  34
ENDBRANCH  27  33
ENDBRANCH  25  32
ENDBRANCH   1  26
BRANCH   9  40
ATOM     40  C   UNL     1       3.953   2.634   6.291  0.00  0.00    +0.008 C 
ATOM     41  C   UNL     1       4.751   2.215   7.527  0.00  0.00    +0.005 C 
ENDBRANCH   9  40
TORSDOF 10
