REMARK  Name = ZINC40008879
REMARK  16 active torsions:
REMARK  status: ('A' for Active; 'I' for Inactive)
REMARK    1  A    between atoms: C_1  and  C_2
REMARK    2  A    between atoms: C_2  and  C_3
REMARK    3  A    between atoms: C_3  and  C_4
REMARK    4  A    between atoms: C_4  and  N_5
REMARK    5  A    between atoms: N_5  and  C_6
REMARK    6  A    between atoms: N_5  and  C_10
REMARK    7  A    between atoms: C_6  and  C_7
REMARK    8  A    between atoms: C_7  and  C_8
REMARK    9  A    between atoms: C_8  and  C_9
REMARK   10  A    between atoms: C_10  and  C_11
REMARK   11  A    between atoms: C_11  and  C_12
REMARK   12  A    between atoms: C_12  and  N_13
REMARK   13  A    between atoms: C_14  and  C_31
REMARK   14  A    between atoms: C_21  and  C_30
REMARK   15  A    between atoms: C_22  and  C_29
REMARK   16  A    between atoms: C_34  and  O_37
REMARK                            x       y       z     vdW  Elec       q    Type
REMARK                         _______ _______ _______ _____ _____    ______ ____
ROOT
ATOM      1  N   UNL     1       2.882  -6.492  -5.143  0.00  0.00    -0.284 N 
ATOM      2  C   UNL     1       2.402  -6.620  -6.529  0.00  0.00    +0.144 C 
ATOM      3  C   UNL     1       3.570  -7.111  -7.321  0.00  0.00    +0.072 A 
ATOM      4  C   UNL     1       3.705  -7.434  -8.745  0.00  0.00    +0.199 A 
ATOM      5  O   UNL     1       2.851  -7.170  -9.573  0.00  0.00    -0.287 OA
ATOM      6  C   UNL     1       4.981  -8.114  -9.082  0.00  0.00    +0.065 A 
ATOM      7  C   UNL     1       5.176  -8.662 -10.349  0.00  0.00    +0.019 A 
ATOM      8  C   UNL     1       6.356  -9.289 -10.642  0.00  0.00    -0.047 A 
ATOM      9  C   UNL     1       7.355  -9.381  -9.684  0.00  0.00    -0.044 A 
ATOM     10  C   UNL     1       7.180  -8.844  -8.428  0.00  0.00    +0.050 A 
ATOM     11  C   UNL     1       5.987  -8.196  -8.105  0.00  0.00    +0.140 A 
ATOM     12  O   UNL     1       5.841  -7.667  -6.870  0.00  0.00    -0.450 OA
ATOM     13  C   UNL     1       4.626  -7.246  -6.465  0.00  0.00    +0.199 A 
ATOM     14  C   UNL     1       4.181  -6.855  -5.116  0.00  0.00    +0.283 C 
ATOM     15  O   UNL     1       4.881  -6.859  -4.123  0.00  0.00    -0.267 OA
ATOM     16  C   UNL     1       8.648 -10.077 -10.021  0.00  0.00    +0.044 C 
ATOM     17  C   UNL     1       6.570  -9.883 -12.010  0.00  0.00    +0.044 C 
ENDROOT
BRANCH   2  18
ATOM     18  C   UNL     1       1.272  -7.614  -6.598  0.00  0.00    -0.022 A 
ATOM     19  C   UNL     1       1.323  -8.771  -5.843  0.00  0.00    +0.009 A 
ATOM     20  C   UNL     1       0.287  -9.684  -5.904  0.00  0.00    +0.046 A 
ATOM     21  C   UNL     1      -0.804  -9.438  -6.725  0.00  0.00    +0.117 A 
ATOM     22  C   UNL     1      -0.853  -8.277  -7.481  0.00  0.00    +0.046 A 
ATOM     23  C   UNL     1       0.182  -7.364  -7.412  0.00  0.00    +0.009 A 
BRANCH  21  24
ATOM     24  O   UNL     1      -1.824 -10.335  -6.788  0.00  0.00    -0.507 OA
ATOM     25  H   UNL     1      -2.525 -10.179  -6.141  0.00  0.00    +0.292 HD
ENDBRANCH  21  24
ENDBRANCH   2  18
BRANCH   1  26
ATOM     26  C   UNL     1       2.089  -6.044  -3.996  0.00  0.00    +0.107 C 
BRANCH  26  27
ATOM     27  C   UNL     1       2.200  -4.524  -3.863  0.00  0.00    +0.000 C 
BRANCH  27  28
ATOM     28  C   UNL     1       1.372  -4.055  -2.665  0.00  0.00    -0.077 C 
BRANCH  28  29
ATOM     29  N   UNL     1       1.561  -2.611  -2.473  0.00  0.00    +0.380 N 
ATOM     30  H   UNL     1       2.546  -2.409  -2.390  0.00  0.00    -0.082 HD
BRANCH  29  31
ATOM     31  C   UNL     1       1.008  -1.888  -3.626  0.00  0.00    -0.079 C 
BRANCH  31  32
ATOM     32  C   UNL     1       1.315  -0.395  -3.487  0.00  0.00    -0.019 C 
BRANCH  32  34
ATOM     33  C   UNL     1       1.045   1.850  -4.549  0.00  0.00    +0.004 C 
ATOM     34  C   UNL     1       0.739   0.358  -4.688  0.00  0.00    -0.005 C 
ENDBRANCH  32  34
ENDBRANCH  31  32
ENDBRANCH  29  31
BRANCH  29  35
ATOM     35  C   UNL     1       0.869  -2.184  -1.250  0.00  0.00    -0.079 C 
BRANCH  35  36
ATOM     36  C   UNL     1       1.550  -2.812  -0.033  0.00  0.00    -0.019 C 
BRANCH  36  37
ATOM     37  C   UNL     1       0.801  -2.406   1.238  0.00  0.00    -0.005 C 
ATOM     38  C   UNL     1       1.483  -3.034   2.455  0.00  0.00    +0.004 C 
ENDBRANCH  36  37
ENDBRANCH  35  36
ENDBRANCH  29  35
ENDBRANCH  28  29
ENDBRANCH  27  28
ENDBRANCH  26  27
ENDBRANCH   1  26
TORSDOF 12
