REMARK  Name = ZINC63743888
REMARK  6 active torsions:
REMARK  status: ('A' for Active; 'I' for Inactive)
REMARK    1  A    between atoms: C_1  and  O_2
REMARK    2  A    between atoms: O_2  and  C_3
REMARK    3  A    between atoms: C_3  and  C_5
REMARK    4  A    between atoms: C_14  and  N_16
REMARK    5  A    between atoms: N_19  and  C_20
REMARK    6  A    between atoms: C_23  and  C_26
REMARK                            x       y       z     vdW  Elec       q    Type
REMARK                         _______ _______ _______ _____ _____    ______ ____
ROOT
ATOM      1  N   UNL     1       0.423  -2.436  -1.332  0.00  0.00    -0.283 N 
ATOM      2  C   UNL     1       0.812  -3.308  -2.284  0.00  0.00    +0.305 C 
ATOM      3  O   UNL     1       0.847  -4.499  -2.039  0.00  0.00    -0.252 OA
ATOM      4  N   UNL     1       1.160  -2.861  -3.506  0.00  0.00    -0.269 N 
ATOM      5  H   UNL     1       0.395  -1.486  -1.527  0.00  0.00    +0.152 HD
ATOM      6  H   UNL     1       1.068  -1.920  -3.723  0.00  0.00    +0.156 HD
ENDROOT
BRANCH   1  15
ATOM      7  C   UNL     1       0.669  -2.074   1.089  0.00  0.00    +0.067 C 
ATOM      8  C   UNL     1       1.265  -2.671   2.090  0.00  0.00    -0.044 C 
ATOM      9  C   UNL     1       2.033  -1.966   3.208  0.00  0.00    +0.032 C 
ATOM     10  C   UNL     1       2.294  -3.020   4.287  0.00  0.00    +0.004 C 
ATOM     11  C   UNL     1       3.126  -4.180   3.760  0.00  0.00    +0.002 C 
ATOM     12  C   UNL     1       2.719  -4.614   2.354  0.00  0.00    +0.018 C 
ATOM     13  C   UNL     1       1.268  -4.207   2.094  0.00  0.00    +0.075 C 
ATOM     14  S   UNL     1       0.816  -4.564   0.348  0.00  0.00    -0.126 S 
ATOM     15  C   UNL     1       0.044  -2.923  -0.003  0.00  0.00    +0.170 C 
BRANCH   7  16
ATOM     16  C   UNL     1       0.599  -0.607   1.027  0.00  0.00    +0.338 C 
ATOM     17  O   UNL     1       1.103   0.063   1.908  0.00  0.00    -0.245 OA
BRANCH  16  19
ATOM     18  C   UNL     1      -0.052   1.424  -0.001  0.00  0.00    +0.280 C 
ATOM     19  O   UNL     1      -0.022  -0.004  -0.006  0.00  0.00    -0.465 OA
ENDBRANCH  16  19
ENDBRANCH   7  16
ENDBRANCH   1  15
BRANCH   4  20
ATOM     20  C   UNL     1       1.655  -3.754  -4.463  0.00  0.00    +0.035 A 
ATOM     21  C   UNL     1       2.642  -3.345  -5.351  0.00  0.00    +0.024 A 
ATOM     22  C   UNL     1       3.128  -4.229  -6.295  0.00  0.00    +0.008 A 
ATOM     23  C   UNL     1       2.635  -5.519  -6.355  0.00  0.00    -0.021 A 
ATOM     24  C   UNL     1       1.653  -5.929  -5.472  0.00  0.00    +0.008 A 
ATOM     25  C   UNL     1       1.166  -5.052  -4.523  0.00  0.00    +0.024 A 
BRANCH  23  26
ATOM     26  C   UNL     1       3.168  -6.481  -7.385  0.00  0.00    +0.133 C 
ATOM     27  C   UNL     1       2.189  -6.615  -8.530  0.00  0.00    +0.012 C 
ATOM     28  C   UNL     1       1.824  -7.917  -8.560  0.00  0.00    -0.002 A 
ATOM     29  C   UNL     1       0.912  -8.674  -9.426  0.00  0.00    +0.029 A 
ATOM     30  C   UNL     1       0.748  -9.999  -9.206  0.00  0.00    +0.042 A 
ATOM     31  C   UNL     1       1.426 -10.666  -8.175  0.00  0.00    +0.022 A 
ATOM     32  C   UNL     1       2.279 -10.037  -7.339  0.00  0.00    +0.027 A 
ATOM     33  C   UNL     1       2.527  -8.644  -7.479  0.00  0.00    +0.043 A 
ATOM     34  N   UNL     1       3.298  -7.822  -6.805  0.00  0.00    -0.374 N 
ATOM     35 CL   UNL     1      -0.331 -10.898 -10.228  0.00  0.00    -0.084 Cl
ATOM     36  H   UNL     1       3.860  -8.061  -6.051  0.00  0.00    +0.161 HD
ENDBRANCH  23  26
ENDBRANCH   4  20
TORSDOF 5
