REMARK  Name = ZINC12883771
REMARK  8 active torsions:
REMARK  status: ('A' for Active; 'I' for Inactive)
REMARK    1  A    between atoms: C_1  and  C_2
REMARK    2  A    between atoms: C_2  and  C_3
REMARK    3  A    between atoms: C_3  and  C_5
REMARK    4  A    between atoms: C_3  and  C_6
REMARK    5  A    between atoms: C_6  and  C_8
REMARK    6  A    between atoms: C_6  and  N_17
REMARK    7  A    between atoms: N_10  and  C_11
REMARK    8  A    between atoms: C_18  and  C_20
REMARK                            x       y       z     vdW  Elec       q    Type
REMARK                         _______ _______ _______ _____ _____    ______ ____
ROOT
ATOM      1  C   UNL     1      -1.254   4.310   0.697  0.00  0.00    +0.167 C 
ATOM      2  C   UNL     1      -0.699   4.052  -0.711  0.00  0.00    +0.069 C 
ATOM      3  C   UNL     1      -0.102   2.670  -0.791  0.00  0.00    -0.015 A 
ATOM      4  C   UNL     1       0.785   2.155  -1.820  0.00  0.00    +0.003 A 
ATOM      5  C   UNL     1       1.340   2.737  -2.963  0.00  0.00    +0.010 A 
ATOM      6  C   UNL     1       2.153   1.940  -3.731  0.00  0.00    +0.001 A 
ATOM      7  C   UNL     1       2.418   0.622  -3.398  0.00  0.00    +0.002 A 
ATOM      8  C   UNL     1       1.882   0.022  -2.272  0.00  0.00    +0.026 A 
ATOM      9  C   UNL     1       1.052   0.807  -1.474  0.00  0.00    +0.047 A 
ATOM     10  N   UNL     1       0.374   0.542  -0.319  0.00  0.00    -0.356 N 
ATOM     11  H   UNL     1       0.373  -0.309   0.145  0.00  0.00    +0.166 HD
ATOM     12  C   UNL     1      -0.307   1.659   0.083  0.00  0.00    +0.046 A 
ATOM     13  C   UNL     1      -1.158   1.805   1.321  0.00  0.00    +0.155 C 
ATOM     14  N   UNL     1      -1.901   3.075   1.155  0.00  0.00    -0.273 N 
ATOM     15  C   UNL     1      -3.212   2.822   1.405  0.00  0.00    +0.248 C 
ATOM     16  O   UNL     1      -4.072   3.673   1.524  0.00  0.00    -0.270 OA
ATOM     17  C   UNL     1      -3.431   1.377   1.526  0.00  0.00    +0.042 A 
ATOM     18  C   UNL     1      -2.182   0.729   1.443  0.00  0.00    -0.009 A 
ATOM     19  C   UNL     1      -2.079  -0.644   1.483  0.00  0.00    +0.006 A 
ATOM     20  C   UNL     1      -3.263  -1.363   1.622  0.00  0.00    +0.000 A 
ATOM     21  C   UNL     1      -4.489  -0.737   1.717  0.00  0.00    +0.001 A 
ATOM     22  C   UNL     1      -4.611   0.644   1.672  0.00  0.00    +0.013 A 
ENDROOT
BRANCH   1  24
ATOM     23  N   UNL     1      -3.423   5.265  -0.012  0.00  0.00    -0.302 N 
ATOM     24  C   UNL     1      -2.262   5.429   0.654  0.00  0.00    +0.235 C 
ATOM     25  O   UNL     1      -2.029   6.477   1.217  0.00  0.00    -0.274 OA
ATOM     26  H   UNL     1      -3.637   4.406  -0.409  0.00  0.00    +0.150 HD
BRANCH  23  27
ATOM     27  C   UNL     1      -4.361   6.383  -0.135  0.00  0.00    +0.162 C 
BRANCH  27  28
ATOM     28  C   UNL     1      -5.771   5.854  -0.173  0.00  0.00    +0.234 C 
ATOM     29  O   UNL     1      -5.971   4.658  -0.139  0.00  0.00    -0.274 OA
ATOM     30  N   UNL     1      -6.810   6.709  -0.244  0.00  0.00    -0.311 N 
ATOM     31  H   UNL     1      -6.649   7.660  -0.347  0.00  0.00    +0.149 HD
BRANCH  30  32
ATOM     32  C   UNL     1      -8.183   6.203  -0.166  0.00  0.00    +0.073 C 
ATOM     33  C   UNL     1      -8.642   5.759  -1.557  0.00  0.00    +0.022 C 
ATOM     34  C   UNL     1     -10.076   5.230  -1.475  0.00  0.00    +0.002 C 
ATOM     35  C   UNL     1     -10.999   6.337  -0.962  0.00  0.00    +0.000 C 
ATOM     36  C   UNL     1     -10.540   6.780   0.428  0.00  0.00    +0.002 C 
ATOM     37  C   UNL     1      -9.106   7.309   0.347  0.00  0.00    +0.022 C 
ENDBRANCH  30  32
ENDBRANCH  27  28
BRANCH  27  38
ATOM     38  C   UNL     1      -4.070   7.153  -1.425  0.00  0.00    +0.015 C 
ATOM     39  C   UNL     1      -2.706   7.837  -1.314  0.00  0.00    +0.010 C 
BRANCH  38  41
ATOM     40  C   UNL     1      -5.477   5.659  -2.851  0.00  0.00    +0.004 C 
ATOM     41  C   UNL     1      -4.059   6.182  -2.607  0.00  0.00    +0.002 C 
ENDBRANCH  38  41
ENDBRANCH  27  38
ENDBRANCH  23  27
ENDBRANCH   1  24
TORSDOF 6
