REMARK  Name = ZINC08876762
REMARK  10 active torsions:
REMARK  status: ('A' for Active; 'I' for Inactive)
REMARK    1  A    between atoms: C_1  and  C_2
REMARK    2  A    between atoms: C_2  and  O_3
REMARK    3  A    between atoms: O_3  and  C_4
REMARK    4  A    between atoms: C_4  and  C_6
REMARK    5  A    between atoms: C_9  and  N_12
REMARK    6  A    between atoms: C_13  and  C_15
REMARK    7  A    between atoms: C_18  and  C_31
REMARK    8  A    between atoms: C_31  and  C_32
REMARK    9  A    between atoms: C_32  and  C_33
REMARK   10  A    between atoms: C_32  and  C_34
REMARK                            x       y       z     vdW  Elec       q    Type
REMARK                         _______ _______ _______ _____ _____    ______ ____
ROOT
ATOM      1  C   UNL     1       1.569  -3.993  -2.449  0.00  0.00    +0.076 C 
ATOM      2  C   UNL     1       1.427  -2.550  -3.007  0.00  0.00    -0.004 C 
ATOM      3  C   UNL     1       0.605  -1.861  -1.889  0.00  0.00    -0.069 C 
ATOM      4  C   UNL     1       1.687  -3.764  -0.934  0.00  0.00    +0.049 C 
ATOM      5  C   UNL     1       0.995  -4.862  -0.172  0.00  0.00    -0.027 A 
ATOM      6  C   UNL     1      -0.309  -5.303  -0.127  0.00  0.00    +0.019 A 
ATOM      7  C   UNL     1      -0.652  -6.366   0.692  0.00  0.00    +0.018 A 
ATOM      8  C   UNL     1       0.318  -6.981   1.464  0.00  0.00    +0.017 A 
ATOM      9  C   UNL     1       1.624  -6.540   1.422  0.00  0.00    +0.024 A 
ATOM     10  C   UNL     1       1.977  -5.471   0.602  0.00  0.00    +0.036 A 
ATOM     11  N   UNL     1       3.211  -4.852   0.390  0.00  0.00    -0.286 N 
ATOM     12  C   UNL     1       3.127  -3.841  -0.495  0.00  0.00    +0.211 C 
ATOM     13  O   UNL     1       4.035  -3.128  -0.867  0.00  0.00    -0.277 OA
ATOM     14 BR   UNL     1      -2.441  -6.975   0.756  0.00  0.00    -0.050 Br
ATOM     15  H   UNL     1       4.033  -5.119   0.830  0.00  0.00    +0.155 HD
ATOM     16  N   UNL     1       1.107  -2.455  -0.635  0.00  0.00    +0.394 N 
ATOM     17  H   UNL     1       0.332  -2.564   0.029  0.00  0.00    -0.083 HD
ATOM     18  H   UNL     1       1.825  -1.845  -0.227  0.00  0.00    -0.083 HD
ENDROOT
BRANCH   1  20
ATOM     19  N   UNL     1       0.445  -6.155  -2.874  0.00  0.00    -0.285 N 
ATOM     20  C   UNL     1       0.348  -4.815  -2.771  0.00  0.00    +0.220 C 
ATOM     21  O   UNL     1      -0.723  -4.270  -2.937  0.00  0.00    -0.275 OA
ATOM     22  H   UNL     1       1.284  -6.597  -2.673  0.00  0.00    +0.155 HD
BRANCH  19  26
ATOM     23  C   UNL     1      -2.859  -8.398  -4.059  0.00  0.00    +0.059 A 
ATOM     24  C   UNL     1      -1.574  -8.785  -4.449  0.00  0.00    +0.017 A 
ATOM     25  C   UNL     1      -0.484  -8.041  -4.056  0.00  0.00    +0.024 A 
ATOM     26  C   UNL     1      -0.661  -6.905  -3.271  0.00  0.00    +0.033 A 
ATOM     27  C   UNL     1      -1.939  -6.521  -2.877  0.00  0.00    +0.024 A 
ATOM     28  C   UNL     1      -3.033  -7.256  -3.271  0.00  0.00    +0.017 A 
BRANCH  23  29
ATOM     29  C   UNL     1      -4.029  -9.192  -4.478  0.00  0.00    +0.339 C 
ATOM     30  O   UNL     1      -3.876 -10.184  -5.162  0.00  0.00    -0.245 OA
BRANCH  29  31
ATOM     31  O   UNL     1      -5.268  -8.818  -4.101  0.00  0.00    -0.461 OA
BRANCH  31  33
ATOM     32  C   UNL     1      -7.689  -9.068  -4.028  0.00  0.00    +0.048 C 
ATOM     33  C   UNL     1      -6.372  -9.647  -4.550  0.00  0.00    +0.229 C 
ENDBRANCH  31  33
ENDBRANCH  29  31
ENDBRANCH  23  29
ENDBRANCH  19  26
ENDBRANCH   1  20
BRANCH   3  34
ATOM     34  C   UNL     1       0.849  -0.350  -1.903  0.00  0.00    -0.013 C 
BRANCH  34  35
ATOM     35  C   UNL     1       0.030   0.309  -0.791  0.00  0.00    -0.019 C 
ATOM     36  C   UNL     1      -1.461   0.156  -1.097  0.00  0.00    +0.007 C 
ATOM     37  C   UNL     1       0.384   1.795  -0.710  0.00  0.00    +0.007 C 
ENDBRANCH  34  35
ENDBRANCH   3  34
TORSDOF 7
