REMARK  Name = ZINC07000795
REMARK  8 active torsions:
REMARK  status: ('A' for Active; 'I' for Inactive)
REMARK    1  A    between atoms: C_1  and  C_2
REMARK    2  A    between atoms: C_2  and  C_3
REMARK    3  A    between atoms: C_6  and  N_9
REMARK    4  A    between atoms: N_12  and  C_13
REMARK    5  A    between atoms: N_15  and  C_24
REMARK    6  A    between atoms: C_24  and  C_25
REMARK    7  A    between atoms: C_25  and  C_26
REMARK    8  A    between atoms: C_25  and  C_27
REMARK                            x       y       z     vdW  Elec       q    Type
REMARK                         _______ _______ _______ _____ _____    ______ ____
ROOT
ATOM      1  C   UNL     1      -2.791   5.784   6.953  0.00  0.00    +0.059 A 
ATOM      2  C   UNL     1      -1.817   6.532   6.397  0.00  0.00    +0.113 A 
ATOM      3  N   UNL     1      -1.436   7.740   6.918  0.00  0.00    -0.313 N 
ATOM      4  C   UNL     1      -2.010   8.261   8.020  0.00  0.00    +0.259 A 
ATOM      5  O   UNL     1      -1.643   9.339   8.453  0.00  0.00    -0.267 OA
ATOM      6  C   UNL     1      -3.080   7.518   8.694  0.00  0.00    +0.048 A 
ATOM      7  C   UNL     1      -3.477   6.273   8.154  0.00  0.00    +0.010 A 
ATOM      8  C   UNL     1      -4.488   5.541   8.775  0.00  0.00    +0.010 A 
ATOM      9  C   UNL     1      -5.093   6.040   9.896  0.00  0.00    +0.001 A 
ATOM     10  C   UNL     1      -4.710   7.264  10.428  0.00  0.00    +0.001 A 
ATOM     11  C   UNL     1      -3.711   8.006   9.838  0.00  0.00    +0.014 A 
ENDROOT
BRANCH   1  15
ATOM     12  N   UNL     1      -3.262   2.224   6.519  0.00  0.00    -0.269 N 
ATOM     13  C   UNL     1      -3.011   3.416   7.096  0.00  0.00    +0.308 C 
ATOM     14  O   UNL     1      -2.659   3.466   8.259  0.00  0.00    -0.252 OA
ATOM     15  N   UNL     1      -3.150   4.552   6.384  0.00  0.00    -0.267 N 
ATOM     16  H   UNL     1      -3.470   2.178   5.572  0.00  0.00    +0.156 HD
ATOM     17  H   UNL     1      -3.497   4.518   5.479  0.00  0.00    +0.156 HD
BRANCH  12  21
ATOM     18  C   UNL     1      -3.147  -1.261   8.798  0.00  0.00    -0.048 A 
ATOM     19  C   UNL     1      -2.757  -1.291   7.472  0.00  0.00    +0.005 A 
ATOM     20  C   UNL     1      -2.799  -0.138   6.712  0.00  0.00    +0.023 A 
ATOM     21  C   UNL     1      -3.223   1.054   7.284  0.00  0.00    +0.035 A 
ATOM     22  C   UNL     1      -3.610   1.081   8.618  0.00  0.00    +0.023 A 
ATOM     23  C   UNL     1      -3.571  -0.076   9.371  0.00  0.00    +0.005 A 
BRANCH  18  25
ATOM     24  C   UNL     1      -4.449  -3.246   9.516  0.00  0.00    +0.009 C 
ATOM     25  C   UNL     1      -3.106  -2.522   9.623  0.00  0.00    +0.032 C 
ENDBRANCH  18  25
ENDBRANCH  12  21
ENDBRANCH   1  15
BRANCH   3  26
ATOM     26  C   UNL     1      -0.368   8.491   6.253  0.00  0.00    +0.128 C 
BRANCH  26  27
ATOM     27  C   UNL     1      -0.977   9.417   5.198  0.00  0.00    +0.003 C 
ATOM     28  C   UNL     1       0.123  10.291   4.592  0.00  0.00    +0.009 C 
ATOM     29  C   UNL     1      -1.627   8.578   4.097  0.00  0.00    +0.009 C 
ENDBRANCH  26  27
ENDBRANCH   3  26
TORSDOF 5
