REMARK  Name = ZINC32863254
REMARK  5 active torsions:
REMARK  status: ('A' for Active; 'I' for Inactive)
REMARK    1  A    between atoms: C_1  and  C_2
REMARK    2  A    between atoms: C_5  and  S_8
REMARK    3  A    between atoms: S_8  and  N_11
REMARK    4  A    between atoms: N_19  and  C_20
REMARK    5  A    between atoms: C_26  and  C_28
REMARK                            x       y       z     vdW  Elec       q    Type
REMARK                         _______ _______ _______ _____ _____    ______ ____
ROOT
ATOM      1  N   UNL     1       6.091  -0.365  -3.497  0.00  0.00    -0.174 NA
ATOM      2  C   UNL     1       6.851  -0.115  -2.264  0.00  0.00    +0.128 C 
ATOM      3  C   UNL     1       6.305  -1.028  -1.158  0.00  0.00    +0.126 C 
ATOM      4  N   UNL     1       4.841  -0.902  -1.126  0.00  0.00    -0.283 N 
ATOM      5  C   UNL     1       4.081  -1.157  -2.358  0.00  0.00    +0.126 C 
ATOM      6  C   UNL     1       4.628  -0.239  -3.465  0.00  0.00    +0.128 C 
ATOM      7  C   UNL     1       4.206  -0.564   0.014  0.00  0.00    +0.303 C 
ATOM      8  O   UNL     1       2.991  -0.553   0.053  0.00  0.00    -0.253 OA
ATOM      9  N   UNL     1       4.919  -0.239   1.111  0.00  0.00    -0.296 N 
ATOM     10  H   UNL     1       6.015  -0.329   1.101  0.00  0.00    +0.151 HD
ENDROOT
BRANCH   9  11
ATOM     11  C   UNL     1       4.233   0.235   2.315  0.00  0.00    +0.077 C 
ATOM     12  C   UNL     1       3.776  -0.965   3.147  0.00  0.00    +0.022 C 
ATOM     13  C   UNL     1       4.994  -1.800   3.549  0.00  0.00    +0.002 C 
ATOM     14  C   UNL     1       5.952  -0.941   4.376  0.00  0.00    +0.000 C 
ATOM     15  C   UNL     1       6.408   0.259   3.544  0.00  0.00    +0.005 C 
ATOM     16  C   UNL     1       5.191   1.094   3.143  0.00  0.00    +0.006 C 
ATOM     17  C   UNL     1       5.647   2.294   2.311  0.00  0.00    +0.009 C 
ENDBRANCH   9  11
BRANCH   1  18
ATOM     18  S   UNL     1       6.871  -0.781  -4.897  0.00  0.00    +0.061 S 
ATOM     19  O   UNL     1       6.011  -0.412  -5.966  0.00  0.00    -0.153 OA
ATOM     20  O   UNL     1       8.200  -0.290  -4.784  0.00  0.00    -0.153 OA
BRANCH  18  25
ATOM     21  C   UNL     1       7.263  -6.801  -5.000  0.00  0.00    +0.044 C 
ATOM     22  C   UNL     1       7.165  -5.298  -4.975  0.00  0.00    -0.050 A 
ATOM     23  C   UNL     1       6.068  -4.667  -5.531  0.00  0.00    +0.005 A 
ATOM     24  C   UNL     1       5.978  -3.287  -5.507  0.00  0.00    +0.029 A 
ATOM     25  C   UNL     1       6.985  -2.539  -4.927  0.00  0.00    +0.105 A 
ATOM     26  C   UNL     1       8.085  -3.170  -4.376  0.00  0.00    +0.029 A 
ATOM     27  C   UNL     1       8.172  -4.549  -4.395  0.00  0.00    +0.005 A 
ENDBRANCH  18  25
ENDBRANCH   1  18
TORSDOF 3
