REMARK  Name = ZINC02219295
REMARK  1 active torsions:
REMARK  status: ('A' for Active; 'I' for Inactive)
REMARK    1  A    between atoms: C_10  and  C_13
REMARK                            x       y       z     vdW  Elec       q    Type
REMARK                         _______ _______ _______ _____ _____    ______ ____
ROOT
ATOM      1  C   UNL     1      -0.017   1.376   0.010  0.00  0.00    +0.001 A 
ATOM      2  C   UNL     1       1.169   2.092   0.002  0.00  0.00    +0.004 A 
ATOM      3  C   UNL     1       2.387   1.438  -0.013  0.00  0.00    +0.046 A 
ATOM      4  C   UNL     1       2.423   0.055  -0.021  0.00  0.00    +0.136 A 
ATOM      5  C   UNL     1       1.222  -0.672  -0.013  0.00  0.00    +0.078 A 
ATOM      6  C   UNL     1       0.002  -0.004   0.002  0.00  0.00    +0.017 A 
ATOM      7  C   UNL     1       1.302  -2.147  -0.021  0.00  0.00    +0.250 C 
ATOM      8  O   UNL     1       0.329  -2.828  -0.282  0.00  0.00    -0.270 OA
ATOM      9  N   UNL     1       2.495  -2.715   0.271  0.00  0.00    -0.273 N 
ATOM     10  C   UNL     1       3.634  -1.877   0.650  0.00  0.00    +0.296 C 
ATOM     11  O   UNL     1       3.596  -0.625  -0.035  0.00  0.00    -0.466 OA
ATOM     12  H   UNL     1       2.596  -3.679   0.230  0.00  0.00    +0.153 HD
ENDROOT
BRANCH  10  13
ATOM     13  C   UNL     1       4.913  -2.593   0.301  0.00  0.00    +0.033 A 
ATOM     14  C   UNL     1       4.885  -3.679  -0.555  0.00  0.00    +0.060 A 
ATOM     15  C   UNL     1       6.059  -4.338  -0.877  0.00  0.00    +0.167 A 
ATOM     16  C   UNL     1       7.268  -3.905  -0.338  0.00  0.00    +0.168 A 
ATOM     17  C   UNL     1       7.290  -2.816   0.518  0.00  0.00    +0.070 A 
ATOM     18  C   UNL     1       6.114  -2.159   0.833  0.00  0.00    +0.053 A 
ATOM     19 CL   UNL     1       6.144  -0.791   1.900  0.00  0.00    -0.083 Cl
ATOM     20  O   UNL     1       8.267  -4.710  -0.803  0.00  0.00    -0.453 OA
ATOM     21  C   UNL     1       7.609  -5.888  -1.306  0.00  0.00    +0.466 C 
ATOM     22  O   UNL     1       6.301  -5.415  -1.681  0.00  0.00    -0.453 OA
ENDBRANCH  10  13
TORSDOF 1
