REMARK  Name = ZINC38975501
REMARK  3 active torsions:
REMARK  status: ('A' for Active; 'I' for Inactive)
REMARK    1  A    between atoms: C_4  and  C_7
REMARK    2  A    between atoms: C_9  and  C_13
REMARK    3  A    between atoms: C_20  and  C_22
REMARK                            x       y       z     vdW  Elec       q    Type
REMARK                         _______ _______ _______ _____ _____    ______ ____
ROOT
ATOM      1  C   UNL     1       5.763  -2.987  -1.332  0.00  0.00    +0.230 C 
ATOM      2  N   UNL     1       5.572  -2.136  -2.515  0.00  0.00    -0.242 N 
ATOM      3  N   UNL     1       6.841  -1.967  -3.081  0.00  0.00    -0.161 NA
ATOM      4  C   UNL     1       7.738  -2.592  -2.405  0.00  0.00    +0.201 C 
ATOM      5  N   UNL     1       7.221  -3.266  -1.302  0.00  0.00    -0.175 N 
ATOM      6  N   UNL     1       8.136  -3.966  -0.524  0.00  0.00    -0.173 NA
ATOM      7  C   UNL     1       9.397  -3.989  -0.812  0.00  0.00    +0.103 C 
ATOM      8  S   UNL     1       9.474  -2.977  -2.289  0.00  0.00    -0.034 S 
ATOM      9  H   UNL     1       4.735  -1.766  -2.838  0.00  0.00    +0.170 HD
ENDROOT
BRANCH   7  10
ATOM     10  C   UNL     1      10.518  -4.688  -0.087  0.00  0.00    +0.046 C 
ATOM     11  C   UNL     1       9.956  -5.879   0.693  0.00  0.00    +0.010 C 
ATOM     12  C   UNL     1      11.094  -6.589   1.429  0.00  0.00    +0.001 C 
ATOM     13  C   UNL     1      11.762  -5.612   2.399  0.00  0.00    +0.000 C 
ATOM     14  C   UNL     1      12.323  -4.422   1.619  0.00  0.00    +0.001 C 
ATOM     15  C   UNL     1      11.185  -3.712   0.883  0.00  0.00    +0.010 C 
ENDBRANCH   7  10
BRANCH   1  18
ATOM     16  C   UNL     1       3.699  -0.689  -0.037  0.00  0.00    +0.091 C 
ATOM     17  C   UNL     1       3.832  -2.029  -0.051  0.00  0.00    +0.035 C 
ATOM     18  C   UNL     1       5.335  -2.245  -0.065  0.00  0.00    +0.194 C 
ATOM     19  N   UNL     1       5.871  -0.874  -0.056  0.00  0.00    -0.176 NA
ATOM     20  N   UNL     1       4.919  -0.090  -0.047  0.00  0.00    -0.154 NA
BRANCH  16  24
ATOM     21  C   UNL     1      -0.017   1.379   0.010  0.00  0.00    +0.000 A 
ATOM     22  C   UNL     1       1.169   2.092   0.002  0.00  0.00    +0.001 A 
ATOM     23  C   UNL     1       2.377   1.426  -0.013  0.00  0.00    +0.010 A 
ATOM     24  C   UNL     1       2.402   0.033  -0.021  0.00  0.00    +0.002 A 
ATOM     25  C   UNL     1       1.205  -0.680  -0.013  0.00  0.00    +0.010 A 
ATOM     26  C   UNL     1       0.002  -0.004   0.002  0.00  0.00    +0.001 A 
ENDBRANCH  16  24
ENDBRANCH   1  18
TORSDOF 3
