REMARK  Name = ZINC45041871
REMARK  10 active torsions:
REMARK  status: ('A' for Active; 'I' for Inactive)
REMARK    1  A    between atoms: C_1  and  C_2
REMARK    2  A    between atoms: C_5  and  S_9
REMARK    3  A    between atoms: C_6  and  N_8
REMARK    4  A    between atoms: S_9  and  C_10
REMARK    5  A    between atoms: C_10  and  C_11
REMARK    6  A    between atoms: C_10  and  C_12
REMARK    7  A    between atoms: C_10  and  C_16
REMARK    8  A    between atoms: C_12  and  C_13
REMARK    9  A    between atoms: C_13  and  O_14
REMARK   10  A    between atoms: O_14  and  C_15
REMARK                            x       y       z     vdW  Elec       q    Type
REMARK                         _______ _______ _______ _____ _____    ______ ____
ROOT
ATOM      1  C   UNL     1       0.393   1.498  -0.036  0.00  0.00    +0.044 C 
ATOM      2  C   UNL     1       0.311  -0.007  -0.033  0.00  0.00    -0.049 A 
ATOM      3  C   UNL     1       0.322  -0.700  -1.230  0.00  0.00    +0.004 A 
ATOM      4  C   UNL     1       0.247  -2.081  -1.234  0.00  0.00    +0.017 A 
ATOM      5  C   UNL     1       0.161  -2.774  -0.036  0.00  0.00    +0.030 A 
ATOM      6  C   UNL     1       0.150  -2.075   1.171  0.00  0.00    +0.038 A 
ATOM      7  C   UNL     1       0.231  -0.691   1.166  0.00  0.00    +0.027 A 
ENDROOT
BRANCH   6   8
ATOM      8  N   UNL     1       0.063  -2.768   2.385  0.00  0.00    -0.357 N 
ATOM      9  H   UNL     1       0.009  -3.737   2.387  0.00  0.00    +0.142 HD
ATOM     10  H   UNL     1       0.055  -2.280   3.223  0.00  0.00    +0.142 HD
ENDBRANCH   6   8
BRANCH   5  11
ATOM     11  S   UNL     1       0.064  -4.534  -0.038  0.00  0.00    -0.105 S 
BRANCH  11  12
ATOM     12  C   UNL     1      -0.095  -4.962  -1.793  0.00  0.00    +0.121 C 
ATOM     13  C   UNL     1      -1.344  -4.294  -2.370  0.00  0.00    +0.035 C 
BRANCH  12  14
ATOM     14  C   UNL     1       1.122  -4.481  -2.540  0.00  0.00    +0.372 C 
ATOM     15  O   UNL     1       2.015  -3.903  -1.943  0.00  0.00    -0.245 OA
ATOM     16  O   UNL     1       1.215  -4.670  -3.741  0.00  0.00    -0.245 OA
ENDBRANCH  12  14
BRANCH  12  17
ATOM     17  C   UNL     1      -0.216  -6.481  -1.939  0.00  0.00    +0.057 C 
BRANCH  17  18
ATOM     18  C   UNL     1      -1.517  -6.954  -1.287  0.00  0.00    +0.161 C 
BRANCH  18  19
ATOM     19  O   UNL     1      -1.629  -8.372  -1.423  0.00  0.00    -0.383 OA
ATOM     20  C   UNL     1      -2.816  -8.918  -0.845  0.00  0.00    +0.193 C 
ENDBRANCH  18  19
ENDBRANCH  17  18
ENDBRANCH  12  17
ENDBRANCH  11  12
ENDBRANCH   5  11
TORSDOF 7
