REMARK  Name = ZINC04631608
REMARK  7 active torsions:
REMARK  status: ('A' for Active; 'I' for Inactive)
REMARK    1  A    between atoms: C_1  and  C_2
REMARK    2  A    between atoms: C_2  and  C_3
REMARK    3  A    between atoms: C_3  and  C_4
REMARK    4  A    between atoms: C_4  and  C_5
REMARK    5  A    between atoms: C_12  and  N_28
REMARK    6  A    between atoms: C_13  and  C_26
REMARK    7  A    between atoms: C_14  and  C_16
REMARK                            x       y       z     vdW  Elec       q    Type
REMARK                         _______ _______ _______ _____ _____    ______ ____
ROOT
ATOM      1  C   UNL     1       0.024   1.067   4.986  0.00  0.00    +0.044 A 
ATOM      2  C   UNL     1       1.084   1.647   5.568  0.00  0.00    +0.049 A 
ATOM      3  C   UNL     1       1.458   0.863   6.681  0.00  0.00    +0.245 A 
ATOM      4  N   UNL     1       0.647  -0.153   6.748  0.00  0.00    -0.135 NA
ATOM      5  N   UNL     1      -0.269  -0.051   5.690  0.00  0.00    -0.278 N 
ATOM      6  H   UNL     1      -1.010  -0.693   5.490  0.00  0.00    +0.189 HD
ATOM      7  O   UNL     1       2.507   1.197   7.479  0.00  0.00    -0.421 OA
ATOM      8  C   UNL     1       3.356   2.143   7.024  0.00  0.00    +0.201 C 
ATOM      9  C   UNL     1       3.101   2.960   5.981  0.00  0.00    +0.098 C 
ATOM     10  C   UNL     1       1.818   2.909   5.190  0.00  0.00    +0.103 C 
ENDROOT
BRANCH  10  11
ATOM     11  C   UNL     1       0.969   4.109   5.519  0.00  0.00    -0.013 A 
ATOM     12  C   UNL     1       0.571   4.336   6.824  0.00  0.00    +0.055 A 
ATOM     13  C   UNL     1      -0.210   5.439   7.129  0.00  0.00    +0.167 A 
ATOM     14  C   UNL     1      -0.592   6.318   6.118  0.00  0.00    +0.168 A 
ATOM     15  C   UNL     1      -0.191   6.086   4.814  0.00  0.00    +0.069 A 
ATOM     16  C   UNL     1       0.594   4.985   4.516  0.00  0.00    +0.049 A 
ATOM     17 CL   UNL     1       1.102   4.699   2.881  0.00  0.00    -0.083 Cl
ATOM     18  O   UNL     1      -1.348   7.313   6.669  0.00  0.00    -0.453 OA
ATOM     19  C   UNL     1      -1.084   7.259   8.083  0.00  0.00    +0.466 C 
ATOM     20  O   UNL     1      -0.726   5.883   8.312  0.00  0.00    -0.453 OA
ENDBRANCH  10  11
BRANCH   8  21
ATOM     21  N   UNL     1       4.558   2.288   7.670  0.00  0.00    -0.328 N 
ATOM     22  H   UNL     1       5.190   2.961   7.373  0.00  0.00    +0.145 HD
ATOM     23  H   UNL     1       4.775   1.718   8.424  0.00  0.00    +0.145 HD
ENDBRANCH   8  21
BRANCH   9  24
ATOM     24  C   UNL     1       4.094   3.922   5.608  0.00  0.00    +0.101 C 
ATOM     25  N   UNL     1       4.882   4.685   5.313  0.00  0.00    -0.191 NA
ENDBRANCH   9  24
BRANCH   1  26
ATOM     26  C   UNL     1      -0.705   1.566   3.765  0.00  0.00    +0.055 C 
BRANCH  26  27
ATOM     27  C   UNL     1       0.011   1.072   2.506  0.00  0.00    +0.006 C 
BRANCH  27  29
ATOM     28  C   UNL     1      -0.013   1.086   0.008  0.00  0.00    +0.004 C 
ATOM     29  C   UNL     1      -0.729   1.579   1.267  0.00  0.00    -0.003 C 
ENDBRANCH  27  29
ENDBRANCH  26  27
ENDBRANCH   1  26
TORSDOF 6
