REMARK  Name = ZINC57434717
REMARK  4 active torsions:
REMARK  status: ('A' for Active; 'I' for Inactive)
REMARK    1  A    between atoms: C_6  and  C_7
REMARK    2  A    between atoms: C_10  and  C_12
REMARK    3  A    between atoms: N_18  and  C_19
REMARK    4  A    between atoms: C_22  and  O_25
REMARK                            x       y       z     vdW  Elec       q    Type
REMARK                         _______ _______ _______ _____ _____    ______ ____
ROOT
ATOM      1  C   UNL     1      -5.179  -1.973   0.038  0.00  0.00    +0.035 C 
ATOM      2  C   UNL     1      -6.065  -0.935   0.045  0.00  0.00    +0.078 C 
ATOM      3  C   UNL     1      -7.535  -0.964   0.062  0.00  0.00    +0.256 C 
ATOM      4  O   UNL     1      -8.150  -2.015   0.072  0.00  0.00    -0.269 OA
ATOM      5  N   UNL     1      -8.161   0.201   0.066  0.00  0.00    -0.260 N 
ATOM      6  C   UNL     1      -7.447   1.380   0.056  0.00  0.00    +0.166 C 
ATOM      7  N   UNL     1      -7.904   2.612   0.058  0.00  0.00    -0.226 NA
ATOM      8  S   UNL     1      -5.750   0.824   0.046  0.00  0.00    -0.049 S 
ATOM      9  H   UNL     1      -9.130   0.226   0.077  0.00  0.00    +0.157 HD
ENDROOT
BRANCH   7  10
ATOM     10  C   UNL     1      -9.254   2.842   0.073  0.00  0.00    +0.067 A 
ATOM     11  C   UNL     1     -10.098   2.112  -0.766  0.00  0.00    +0.031 A 
ATOM     12  C   UNL     1     -11.457   2.347  -0.748  0.00  0.00    +0.047 A 
ATOM     13  C   UNL     1     -11.986   3.307   0.103  0.00  0.00    +0.117 A 
ATOM     14  C   UNL     1     -11.151   4.036   0.939  0.00  0.00    +0.047 A 
ATOM     15  C   UNL     1      -9.791   3.804   0.931  0.00  0.00    +0.031 A 
BRANCH  13  16
ATOM     16  O   UNL     1     -13.326   3.536   0.118  0.00  0.00    -0.507 OA
ATOM     17  H   UNL     1     -13.811   2.990   0.752  0.00  0.00    +0.292 HD
ENDBRANCH  13  16
ENDBRANCH   7  10
BRANCH   1  21
ATOM     18  C   UNL     1      -1.265  -0.763   0.010  0.00  0.00    +0.020 A 
ATOM     19  C   UNL     1      -1.456  -2.135   0.010  0.00  0.00    +0.017 A 
ATOM     20  C   UNL     1      -2.733  -2.622   0.019  0.00  0.00    +0.016 A 
ATOM     21  C   UNL     1      -3.790  -1.716   0.028  0.00  0.00    +0.014 A 
ATOM     22  S   UNL     1      -2.940  -0.146   0.030  0.00  0.00    -0.089 S 
BRANCH  18  28
ATOM     23  C   UNL     1      -0.017   1.393   0.010  0.00  0.00    +0.010 A 
ATOM     24  C   UNL     1       1.170   2.095   0.002  0.00  0.00    +0.016 A 
ATOM     25  C   UNL     1       2.378   1.419  -0.013  0.00  0.00    +0.018 A 
ATOM     26  C   UNL     1       2.404   0.035  -0.021  0.00  0.00    +0.016 A 
ATOM     27  C   UNL     1       1.224  -0.680  -0.014  0.00  0.00    +0.010 A 
ATOM     28  C   UNL     1       0.002  -0.004   0.002  0.00  0.00    -0.011 A 
ATOM     29 BR   UNL     1       4.000   2.391  -0.025  0.00  0.00    -0.050 Br
ENDBRANCH  18  28
ENDBRANCH   1  21
TORSDOF 4
