REMARK  Name = ZINC09500936
REMARK  7 active torsions:
REMARK  status: ('A' for Active; 'I' for Inactive)
REMARK    1  A    between atoms: C_1  and  C_2
REMARK    2  A    between atoms: C_2  and  C_4
REMARK    3  A    between atoms: C_2  and  S_23
REMARK    4  A    between atoms: N_6  and  C_7
REMARK    5  A    between atoms: C_9  and  S_14
REMARK    6  A    between atoms: S_14  and  N_17
REMARK    7  A    between atoms: S_23  and  C_24
REMARK                            x       y       z     vdW  Elec       q    Type
REMARK                         _______ _______ _______ _____ _____    ______ ____
ROOT
ATOM      1  C   UNL     1       6.583   1.329  -2.116  0.00  0.00    +0.230 C 
ATOM      2  O   UNL     1       6.199   1.601  -0.999  0.00  0.00    -0.274 OA
ATOM      3  N   UNL     1       6.215   0.167  -2.692  0.00  0.00    -0.283 N 
ATOM      4  H   UNL     1       6.586  -0.087  -3.551  0.00  0.00    +0.155 HD
ENDROOT
BRANCH   3   5
ATOM      5  C   UNL     1       5.298  -0.672  -2.049  0.00  0.00    +0.054 A 
ATOM      6  C   UNL     1       4.393  -0.146  -1.137  0.00  0.00    +0.053 A 
ATOM      7  C   UNL     1       3.489  -0.976  -0.504  0.00  0.00    +0.107 A 
ATOM      8  C   UNL     1       3.487  -2.333  -0.775  0.00  0.00    +0.030 A 
ATOM      9  C   UNL     1       4.382  -2.860  -1.687  0.00  0.00    +0.024 A 
ATOM     10  C   UNL     1       5.289  -2.034  -2.323  0.00  0.00    +0.062 A 
ATOM     11 CL   UNL     1       6.417  -2.698  -3.464  0.00  0.00    -0.082 Cl
BRANCH   7  12
ATOM     12  S   UNL     1       2.342  -0.308   0.654  0.00  0.00    +0.061 S 
ATOM     13  O   UNL     1       2.913   0.898   1.141  0.00  0.00    -0.153 OA
ATOM     14  O   UNL     1       1.965  -1.375   1.514  0.00  0.00    -0.153 OA
BRANCH  12  15
ATOM     15  N   UNL     1       0.984   0.119  -0.193  0.00  0.00    -0.177 NA
ATOM     16  C   UNL     1      -0.111  -0.842  -0.386  0.00  0.00    +0.109 C 
ATOM     17  C   UNL     1      -0.418  -0.944  -1.883  0.00  0.00    +0.017 C 
ATOM     18  C   UNL     1      -0.703   0.454  -2.438  0.00  0.00    +0.003 C 
ATOM     19  C   UNL     1       0.533   1.338  -2.258  0.00  0.00    +0.017 C 
ATOM     20  C   UNL     1       0.851   1.466  -0.765  0.00  0.00    +0.109 C 
ENDBRANCH  12  15
ENDBRANCH   7  12
ENDBRANCH   3   5
BRANCH   1  22
ATOM     21  C   UNL     1       8.926   1.823  -2.761  0.00  0.00    +0.029 C 
ATOM     22  C   UNL     1       7.473   2.290  -2.862  0.00  0.00    +0.137 C 
BRANCH  22  23
ATOM     23  S   UNL     1       7.318   3.942  -2.137  0.00  0.00    -0.074 S 
BRANCH  23  24
ATOM     24  C   UNL     1       8.313   4.864  -3.262  0.00  0.00    +0.192 A 
ATOM     25  N   UNL     1       8.957   4.392  -4.306  0.00  0.00    -0.122 NA
ATOM     26  N   UNL     1       9.575   5.348  -4.907  0.00  0.00    -0.134 NA
ATOM     27  C   UNL     1       9.367   6.471  -4.285  0.00  0.00    +0.134 A 
ATOM     28  N   UNL     1       8.567   6.200  -3.212  0.00  0.00    -0.306 N 
ATOM     29  C   UNL     1       8.096   7.159  -2.213  0.00  0.00    +0.125 C 
ATOM     30  C   UNL     1       8.007   8.550  -2.850  0.00  0.00    +0.022 C 
ATOM     31  C   UNL     1       9.343   9.274  -2.694  0.00  0.00    +0.002 C 
ATOM     32  C   UNL     1      10.454   8.514  -3.410  0.00  0.00    +0.008 C 
ATOM     33  C   UNL     1       9.890   7.833  -4.661  0.00  0.00    +0.076 C 
ENDBRANCH  23  24
ENDBRANCH  22  23
ENDBRANCH   1  22
TORSDOF 6
