REMARK  Name = ZINC63547134
REMARK  8 active torsions:
REMARK  status: ('A' for Active; 'I' for Inactive)
REMARK    1  A    between atoms: C_1  and  O_2
REMARK    2  A    between atoms: O_2  and  C_3
REMARK    3  A    between atoms: C_9  and  C_12
REMARK    4  A    between atoms: C_12  and  C_13
REMARK    5  A    between atoms: C_13  and  N_14
REMARK    6  A    between atoms: C_15  and  C_17
REMARK    7  A    between atoms: C_22  and  C_31
REMARK    8  A    between atoms: C_24  and  C_27
REMARK                            x       y       z     vdW  Elec       q    Type
REMARK                         _______ _______ _______ _____ _____    ______ ____
ROOT
ATOM      1  C   UNL     1       2.187  -8.518  -1.720  0.00  0.00    +0.185 C 
ATOM      2  C   UNL     1       1.036  -8.139  -2.623  0.00  0.00    +0.045 C 
ATOM      3  C   UNL     1       1.452  -8.345  -3.892  0.00  0.00    +0.116 C 
ATOM      4  N   UNL     1       0.771  -8.148  -5.048  0.00  0.00    -0.339 N 
ATOM      5  C   UNL     1       1.329  -8.402  -6.218  0.00  0.00    +0.085 C 
ATOM      6  C   UNL     1       2.703  -8.905  -6.267  0.00  0.00    +0.058 C 
ATOM      7  C   UNL     1       3.370  -9.096  -5.113  0.00  0.00    +0.133 C 
ATOM      8  N   UNL     1       2.754  -8.820  -3.913  0.00  0.00    -0.215 N 
ATOM      9  N   UNL     1       3.253  -8.948  -2.641  0.00  0.00    -0.218 NA
ATOM     10  H   UNL     1       4.083  -8.387  -2.519  0.00  0.00    +0.146 HD
ATOM     11  H   UNL     1      -0.139  -7.816  -5.016  0.00  0.00    +0.167 HD
ENDROOT
BRANCH   5  12
ATOM     12  C   UNL     1       0.575  -8.183  -7.462  0.00  0.00    +0.151 A 
ATOM     13  C   UNL     1       1.032  -8.411  -8.726  0.00  0.00    +0.051 A 
ATOM     14  C   UNL     1      -0.013  -8.067  -9.602  0.00  0.00    +0.042 A 
ATOM     15  C   UNL     1      -1.047  -7.651  -8.841  0.00  0.00    +0.196 A 
ATOM     16  O   UNL     1      -0.691  -7.728  -7.551  0.00  0.00    -0.461 OA
ENDBRANCH   5  12
BRANCH   1  18
ATOM     17  N   UNL     1       1.793  -6.755  -0.031  0.00  0.00    -0.313 N 
ATOM     18  C   UNL     1       2.636  -7.328  -0.912  0.00  0.00    +0.236 C 
ATOM     19  O   UNL     1       3.756  -6.886  -1.055  0.00  0.00    -0.274 OA
ATOM     20  H   UNL     1       0.897  -7.108   0.083  0.00  0.00    +0.149 HD
BRANCH  17  21
ATOM     21  C   UNL     1       2.230  -5.598   0.754  0.00  0.00    +0.108 C 
BRANCH  21  22
ATOM     22  C   UNL     1       1.092  -5.144   1.671  0.00  0.00    +0.052 C 
BRANCH  22  29
ATOM     23  C   UNL     1       0.626  -0.619   1.042  0.00  0.00    +0.121 A 
ATOM     24  C   UNL     1       1.202   0.173   2.051  0.00  0.00    +0.047 A 
ATOM     25  C   UNL     1       1.839  -0.358   3.116  0.00  0.00    +0.029 A 
ATOM     26  C   UNL     1       1.947  -1.815   3.248  0.00  0.00    +0.043 A 
ATOM     27  N   UNL     1       2.500  -2.573   4.161  0.00  0.00    -0.380 N 
ATOM     28  C   UNL     1       2.308  -3.978   3.782  0.00  0.00    +0.144 C 
ATOM     29  C   UNL     1       1.541  -3.954   2.479  0.00  0.00    -0.040 C 
ATOM     30  C   UNL     1       1.340  -2.650   2.185  0.00  0.00    +0.002 A 
ATOM     31  C   UNL     1       0.667  -1.972   1.072  0.00  0.00    +0.055 A 
ATOM     32  H   UNL     1       2.961  -2.259   4.955  0.00  0.00    +0.160 HD
BRANCH  23  34
ATOM     33  C   UNL     1      -0.017   1.425   0.010  0.00  0.00    +0.277 C 
ATOM     34  O   UNL     1       0.002  -0.004   0.002  0.00  0.00    -0.495 OA
ENDBRANCH  23  34
ENDBRANCH  22  29
ENDBRANCH  21  22
ENDBRANCH  17  21
ENDBRANCH   1  18
BRANCH   7  35
ATOM     35  C   UNL     1       4.785  -9.613  -5.134  0.00  0.00    +0.432 C 
ATOM     36  F   UNL     1       5.187  -9.818  -6.459  0.00  0.00    -0.165 F 
ATOM     37  F   UNL     1       5.632  -8.678  -4.529  0.00  0.00    -0.165 F 
ATOM     38  F   UNL     1       4.851 -10.823  -4.435  0.00  0.00    -0.165 F 
ENDBRANCH   7  35
TORSDOF 7
