REMARK  Name = ZINC27345012
REMARK  9 active torsions:
REMARK  status: ('A' for Active; 'I' for Inactive)
REMARK    1  A    between atoms: C_1  and  C_2
REMARK    2  A    between atoms: C_2  and  C_32
REMARK    3  A    between atoms: C_6  and  N_24
REMARK    4  A    between atoms: C_13  and  N_18
REMARK    5  A    between atoms: N_18  and  C_19
REMARK    6  A    between atoms: C_19  and  C_20
REMARK    7  A    between atoms: C_20  and  C_21
REMARK    8  A    between atoms: C_21  and  O_22
REMARK    9  A    between atoms: O_22  and  C_23
REMARK                            x       y       z     vdW  Elec       q    Type
REMARK                         _______ _______ _______ _____ _____    ______ ____
ROOT
ATOM      1  C   UNL     1      -4.917  -0.896   0.196  0.00  0.00    +0.041 C 
ATOM      2  C   UNL     1      -3.517  -1.390  -0.175  0.00  0.00    +0.068 C 
ATOM      3  C   UNL     1      -2.483  -0.315   0.169  0.00  0.00    +0.070 C 
ATOM      4  C   UNL     1      -1.097  -0.895   0.074  0.00  0.00    -0.025 A 
ATOM      5  C   UNL     1      -0.878  -2.236   0.061  0.00  0.00    +0.020 A 
ATOM      6  C   UNL     1       0.429  -2.729  -0.020  0.00  0.00    +0.105 A 
ATOM      7  N   UNL     1       1.457  -1.898  -0.088  0.00  0.00    -0.337 N 
ATOM      8  C   UNL     1       1.280  -0.595  -0.080  0.00  0.00    +0.089 A 
ATOM      9  C   UNL     1       0.002  -0.004   0.002  0.00  0.00    +0.031 A 
ATOM     10  C   UNL     1      -0.018   1.463  -0.001  0.00  0.00    +0.055 A 
ATOM     11  C   UNL     1       1.190   2.093  -0.075  0.00  0.00    +0.050 A 
ATOM     12  S   UNL     1       2.385   0.796  -0.153  0.00  0.00    -0.070 S 
ATOM     13  C   UNL     1       1.370   3.580  -0.073  0.00  0.00    +0.188 C 
ATOM     14  N   UNL     1       0.077   4.147  -0.510  0.00  0.00    -0.359 N 
ATOM     15  C   UNL     1      -1.089   3.518  -0.148  0.00  0.00    +0.157 C 
ATOM     16  N   UNL     1      -1.168   2.242   0.078  0.00  0.00    -0.306 N 
ATOM     17  C   UNL     1      -2.017  -3.221   0.129  0.00  0.00    +0.199 C 
ATOM     18  O   UNL     1      -3.207  -2.571   0.573  0.00  0.00    -0.369 OA
ATOM     19  C   UNL     1      -3.460  -1.699  -1.673  0.00  0.00    +0.041 C 
ATOM     20  H   UNL     1       0.042   5.063  -1.117  0.00  0.00    +0.162 HD
ATOM     21  H   UNL     1       2.481  -2.294  -0.154  0.00  0.00    +0.168 HD
ATOM     22  H   UNL     1      -2.132   1.776   0.330  0.00  0.00    +0.153 HD
ENDROOT
BRANCH   6  23
ATOM     23  N   UNL     1       0.650  -4.102  -0.030  0.00  0.00    -0.312 N 
ATOM     24  C   UNL     1       1.455  -4.514   1.129  0.00  0.00    +0.134 C 
ATOM     25  C   UNL     1       1.623  -6.036   1.111  0.00  0.00    +0.178 C 
ATOM     26  O   UNL     1       2.218  -6.430  -0.129  0.00  0.00    -0.377 OA
ATOM     27  C   UNL     1       1.460  -6.045  -1.279  0.00  0.00    +0.178 C 
ATOM     28  C   UNL     1       1.290  -4.523  -1.285  0.00  0.00    +0.134 C 
ENDBRANCH   6  23
BRANCH  13  29
ATOM     29  N   UNL     1       1.697   4.049   1.280  0.00  0.00    -0.293 NA
ATOM     30  H   UNL     1       0.816   4.536   1.722  0.00  0.00    +0.124 HD
BRANCH  29  31
ATOM     31  C   UNL     1       2.804   5.014   1.249  0.00  0.00    +0.085 C 
BRANCH  31  32
ATOM     32  C   UNL     1       3.115   5.479   2.673  0.00  0.00    +0.043 C 
BRANCH  32  33
ATOM     33  C   UNL     1       4.268   6.484   2.641  0.00  0.00    +0.160 C 
BRANCH  33  34
ATOM     34  O   UNL     1       4.559   6.918   3.972  0.00  0.00    -0.383 OA
ATOM     35  C   UNL     1       5.626   7.865   4.054  0.00  0.00    +0.193 C 
ENDBRANCH  33  34
ENDBRANCH  32  33
ENDBRANCH  31  32
ENDBRANCH  29  31
ENDBRANCH  13  29
TORSDOF 6
