REMARK  Name = ZINC08420091
REMARK  11 active torsions:
REMARK  status: ('A' for Active; 'I' for Inactive)
REMARK    1  A    between atoms: C_1  and  C_2
REMARK    2  A    between atoms: C_2  and  C_3
REMARK    3  A    between atoms: C_2  and  C_4
REMARK    4  A    between atoms: C_4  and  C_5
REMARK    5  A    between atoms: C_5  and  N_6
REMARK    6  A    between atoms: N_6  and  C_7
REMARK    7  A    between atoms: C_7  and  N_9
REMARK    8  A    between atoms: N_9  and  N_10
REMARK    9  A    between atoms: C_11  and  C_13
REMARK   10  A    between atoms: C_13  and  N_14
REMARK   11  A    between atoms: C_15  and  C_17
REMARK                            x       y       z     vdW  Elec       q    Type
REMARK                         _______ _______ _______ _____ _____    ______ ____
ROOT
ATOM      1  N   UNL     1       3.671   1.218  -0.026  0.00  0.00    -0.234 N 
ATOM      2  C   UNL     1       2.406   0.752  -0.017  0.00  0.00    +0.246 C 
ATOM      3  O   UNL     1       2.201  -0.443  -0.021  0.00  0.00    -0.273 OA
ATOM      4  H   UNL     1       3.835   2.174  -0.023  0.00  0.00    +0.173 HD
ENDROOT
BRANCH   1   5
ATOM      5  N   UNL     1       4.748   0.323  -0.042  0.00  0.00    -0.246 N 
ATOM      6  H   UNL     1       4.583  -0.633  -0.045  0.00  0.00    +0.172 HD
BRANCH   5   7
ATOM      7  C   UNL     1       6.012   0.789  -0.051  0.00  0.00    +0.147 C 
ATOM      8  S   UNL     1       7.328  -0.306  -0.070  0.00  0.00    -0.017 S 
BRANCH   7   9
ATOM      9  N   UNL     1       6.240   2.117  -0.046  0.00  0.00    -0.325 N 
ATOM     10  H   UNL     1       5.495   2.738  -0.036  0.00  0.00    +0.148 HD
BRANCH   9  11
ATOM     11  C   UNL     1       7.615   2.624  -0.057  0.00  0.00    +0.103 C 
BRANCH  11  12
ATOM     12  C   UNL     1       7.594   4.154  -0.048  0.00  0.00    +0.021 C 
BRANCH  12  14
ATOM     13  C   UNL     1       9.706   4.295  -1.375  0.00  0.00    +0.007 C 
ATOM     14  C   UNL     1       9.029   4.684  -0.059  0.00  0.00    -0.016 C 
ATOM     15  C   UNL     1       9.012   6.208   0.075  0.00  0.00    +0.007 C 
ENDBRANCH  12  14
ENDBRANCH  11  12
ENDBRANCH   9  11
ENDBRANCH   7   9
ENDBRANCH   5   7
ENDBRANCH   1   5
BRANCH   2  16
ATOM     16  C   UNL     1       1.248   1.716  -0.001  0.00  0.00    +0.202 C 
BRANCH  16  17
ATOM     17  N   UNL     1      -0.011   0.966   0.007  0.00  0.00    -0.303 N 
ATOM     18  C   UNL     1      -1.187   1.624   0.017  0.00  0.00    +0.246 C 
ATOM     19  O   UNL     1      -1.204   2.839   0.023  0.00  0.00    -0.270 OA
ATOM     20  H   UNL     1       0.002  -0.004   0.002  0.00  0.00    +0.150 HD
BRANCH  18  21
ATOM     21  C   UNL     1      -2.456   0.868   0.018  0.00  0.00    +0.055 A 
ATOM     22  C   UNL     1      -2.441  -0.529   0.011  0.00  0.00    +0.016 A 
ATOM     23  C   UNL     1      -3.628  -1.228   0.013  0.00  0.00    +0.021 A 
ATOM     24  C   UNL     1      -4.837  -0.550   0.023  0.00  0.00    +0.042 A 
ATOM     25  C   UNL     1      -4.860   0.834   0.031  0.00  0.00    +0.040 A 
ATOM     26  C   UNL     1      -3.678   1.547   0.034  0.00  0.00    +0.054 A 
ATOM     27 CL   UNL     1      -3.708   3.283   0.051  0.00  0.00    -0.083 Cl
ATOM     28 CL   UNL     1      -6.327  -1.440   0.025  0.00  0.00    -0.083 Cl
ENDBRANCH  18  21
ENDBRANCH  16  17
ENDBRANCH   2  16
TORSDOF 9
