REMARK  Name = ZINC36206493
REMARK  14 active torsions:
REMARK  status: ('A' for Active; 'I' for Inactive)
REMARK    1  A    between atoms: C_1  and  C_2
REMARK    2  A    between atoms: C_5  and  C_36
REMARK    3  A    between atoms: C_6  and  C_8
REMARK    4  A    between atoms: C_17  and  C_19
REMARK    5  A    between atoms: C_19  and  N_20
REMARK    6  A    between atoms: N_20  and  C_21
REMARK    7  A    between atoms: N_20  and  C_32
REMARK    8  A    between atoms: C_21  and  C_22
REMARK    9  A    between atoms: C_22  and  C_24
REMARK   10  A    between atoms: C_22  and  O_31
REMARK   11  A    between atoms: C_24  and  C_25
REMARK   12  A    between atoms: C_32  and  C_33
REMARK   13  A    between atoms: C_33  and  C_34
REMARK   14  A    between atoms: C_33  and  C_35
REMARK                            x       y       z     vdW  Elec       q    Type
REMARK                         _______ _______ _______ _____ _____    ______ ____
ROOT
ATOM      1  C   UNL     1       0.444  -2.104   1.594  0.00  0.00    +0.004 A 
ATOM      2  C   UNL     1      -0.674  -1.736   2.265  0.00  0.00    +0.056 A 
ATOM      3  S   UNL     1      -0.567  -2.662   3.785  0.00  0.00    -0.076 S 
ATOM      4  C   UNL     1       0.962  -3.511   3.487  0.00  0.00    +0.116 A 
ATOM      5  C   UNL     1       1.351  -3.062   2.215  0.00  0.00    +0.080 A 
ATOM      6  C   UNL     1       2.577  -3.604   1.714  0.00  0.00    +0.260 A 
ATOM      7  O   UNL     1       3.000  -3.271   0.620  0.00  0.00    -0.267 OA
ATOM      8  N   UNL     1       3.258  -4.486   2.469  0.00  0.00    -0.312 N 
ATOM      9  H   UNL     1       4.090  -4.856   2.135  0.00  0.00    +0.170 HD
ATOM     10  C   UNL     1       2.802  -4.867   3.690  0.00  0.00    +0.094 A 
ATOM     11  N   UNL     1       1.692  -4.383   4.178  0.00  0.00    -0.229 NA
ENDROOT
BRANCH   1  17
ATOM     12  C   UNL     1       1.554   1.800  -1.313  0.00  0.00    +0.044 C 
ATOM     13  C   UNL     1       1.271   0.329  -1.149  0.00  0.00    -0.050 A 
ATOM     14  C   UNL     1       1.284  -0.504  -2.254  0.00  0.00    +0.003 A 
ATOM     15  C   UNL     1       1.024  -1.855  -2.111  0.00  0.00    +0.004 A 
ATOM     16  C   UNL     1       0.751  -2.380  -0.864  0.00  0.00    -0.043 A 
ATOM     17  C   UNL     1       0.737  -1.546   0.253  0.00  0.00    -0.013 A 
ATOM     18  C   UNL     1       1.005  -0.186   0.103  0.00  0.00    +0.012 A 
ATOM     19  C   UNL     1       0.468  -3.852  -0.710  0.00  0.00    +0.044 C 
ENDBRANCH   1  17
BRANCH  10  20
ATOM     20  C   UNL     1       3.598  -5.858   4.501  0.00  0.00    -0.003 C 
BRANCH  20  21
ATOM     21  N   UNL     1       3.003  -5.986   5.838  0.00  0.00    +0.386 N 
ATOM     22  H   UNL     1       2.026  -6.219   5.750  0.00  0.00    -0.081 HD
BRANCH  21  23
ATOM     23  C   UNL     1       3.695  -7.047   6.582  0.00  0.00    -0.046 C 
BRANCH  23  24
ATOM     24  C   UNL     1       2.867  -7.433   7.809  0.00  0.00    +0.102 C 
BRANCH  24  25
ATOM     25  O   UNL     1       2.853  -6.345   8.736  0.00  0.00    -0.393 OA
ATOM     26  H   UNL     1       3.731  -6.072   9.035  0.00  0.00    +0.210 HD
ENDBRANCH  24  25
BRANCH  24  27
ATOM     27  C   UNL     1       3.486  -8.663   8.476  0.00  0.00    +0.064 C 
BRANCH  27  28
ATOM     28  C   UNL     1       2.604  -9.117   9.610  0.00  0.00    -0.045 A 
ATOM     29  C   UNL     1       2.797  -8.610  10.882  0.00  0.00    +0.004 A 
ATOM     30  C   UNL     1       1.988  -9.027  11.922  0.00  0.00    +0.000 A 
ATOM     31  C   UNL     1       0.985  -9.949  11.691  0.00  0.00    +0.000 A 
ATOM     32  C   UNL     1       0.791 -10.455  10.419  0.00  0.00    +0.000 A 
ATOM     33  C   UNL     1       1.598 -10.036   9.378  0.00  0.00    +0.004 A 
ENDBRANCH  27  28
ENDBRANCH  24  27
ENDBRANCH  23  24
ENDBRANCH  21  23
BRANCH  21  34
ATOM     34  C   UNL     1       3.141  -4.713   6.559  0.00  0.00    -0.075 C 
BRANCH  34  35
ATOM     35  C   UNL     1       4.491  -4.078   6.220  0.00  0.00    -0.034 C 
ATOM     36  C   UNL     1       4.561  -2.675   6.827  0.00  0.00    +0.005 C 
ATOM     37  C   UNL     1       5.618  -4.939   6.794  0.00  0.00    +0.005 C 
ENDBRANCH  34  35
ENDBRANCH  21  34
ENDBRANCH  20  21
ENDBRANCH  10  20
TORSDOF 10
