REMARK  Name = ZINC39675245
REMARK  9 active torsions:
REMARK  status: ('A' for Active; 'I' for Inactive)
REMARK    1  A    between atoms: C_1  and  C_2
REMARK    2  A    between atoms: C_2  and  C_4
REMARK    3  A    between atoms: C_2  and  N_14
REMARK    4  A    between atoms: C_4  and  C_5
REMARK    5  A    between atoms: C_5  and  C_6
REMARK    6  A    between atoms: C_9  and  O_12
REMARK    7  A    between atoms: O_12  and  C_13
REMARK    8  A    between atoms: C_15  and  C_17
REMARK    9  A    between atoms: C_28  and  C_30
REMARK                            x       y       z     vdW  Elec       q    Type
REMARK                         _______ _______ _______ _____ _____    ______ ____
ROOT
ATOM      1  C   UNL     1       2.868  -1.320   3.044  0.00  0.00    +0.100 C 
ATOM      2  C   UNL     1       2.240  -2.731   3.096  0.00  0.00    +0.121 C 
ATOM      3  N   UNL     1       3.211  -3.599   2.389  0.00  0.00    -0.296 N 
ATOM      4  C   UNL     1       4.537  -3.097   2.822  0.00  0.00    +0.115 C 
ATOM      5  C   UNL     1       4.376  -1.565   2.869  0.00  0.00    -0.004 C 
ATOM      6  C   UNL     1       5.146  -0.988   4.052  0.00  0.00    -0.010 C 
ATOM      7  C   UNL     1       6.647  -1.191   3.826  0.00  0.00    -0.082 C 
ATOM      8  N   UNL     1       7.051  -0.526   2.582  0.00  0.00    +0.379 N 
ATOM      9  C   UNL     1       6.375  -1.149   1.438  0.00  0.00    -0.082 C 
ATOM     10  C   UNL     1       4.863  -0.944   1.563  0.00  0.00    -0.010 C 
ATOM     11  C   UNL     1       2.949  -4.615   1.544  0.00  0.00    +0.247 C 
ATOM     12  O   UNL     1       1.806  -4.829   1.187  0.00  0.00    -0.270 OA
ATOM     13  H   UNL     1       6.801   0.451   2.627  0.00  0.00    -0.086 HD
ATOM     14  H   UNL     1       8.050  -0.609   2.467  0.00  0.00    -0.086 HD
ENDROOT
BRANCH  11  15
ATOM     15  C   UNL     1       4.049  -5.470   1.051  0.00  0.00    +0.042 A 
ATOM     16  C   UNL     1       5.254  -5.534   1.752  0.00  0.00    +0.051 A 
ATOM     17  C   UNL     1       6.280  -6.335   1.287  0.00  0.00    +0.127 A 
ATOM     18  C   UNL     1       6.114  -7.074   0.127  0.00  0.00    +0.076 A 
ATOM     19  C   UNL     1       4.920  -7.014  -0.573  0.00  0.00    +0.127 A 
ATOM     20  C   UNL     1       3.885  -6.221  -0.114  0.00  0.00    +0.051 A 
ATOM     21  F   UNL     1       4.764  -7.737  -1.704  0.00  0.00    -0.205 F 
ATOM     22  F   UNL     1       7.447  -6.397   1.964  0.00  0.00    -0.205 F 
ENDBRANCH  11  15
BRANCH   1  24
ATOM     23  N   UNL     1       2.336   0.802   1.890  0.00  0.00    -0.312 N 
ATOM     24  C   UNL     1       2.321  -0.546   1.873  0.00  0.00    +0.218 C 
ATOM     25  O   UNL     1       1.869  -1.135   0.914  0.00  0.00    -0.275 OA
ATOM     26  H   UNL     1       2.698   1.273   2.656  0.00  0.00    +0.149 HD
BRANCH  23  28
ATOM     27  C   UNL     1       2.893   1.702  -0.315  0.00  0.00    +0.028 C 
ATOM     28  C   UNL     1       1.805   1.555   0.751  0.00  0.00    +0.070 C 
BRANCH  28  29
ATOM     29  C   UNL     1       1.359   2.941   1.219  0.00  0.00    +0.026 C 
BRANCH  29  30
ATOM     30  C   UNL     1       0.186   2.797   2.191  0.00  0.00    +0.037 C 
BRANCH  30  31
ATOM     31  C   UNL     1      -0.254   4.163   2.653  0.00  0.00    -0.047 A 
ATOM     32  C   UNL     1       0.317   4.728   3.778  0.00  0.00    +0.007 A 
ATOM     33  C   UNL     1      -0.085   5.980   4.203  0.00  0.00    +0.046 A 
ATOM     34  C   UNL     1      -1.062   6.670   3.500  0.00  0.00    +0.120 A 
ATOM     35  C   UNL     1      -1.633   6.100   2.371  0.00  0.00    +0.046 A 
ATOM     36  C   UNL     1      -1.224   4.851   1.947  0.00  0.00    +0.007 A 
BRANCH  34  37
ATOM     37  O   UNL     1      -1.459   7.901   3.917  0.00  0.00    -0.495 OA
ATOM     38  C   UNL     1      -2.469   8.552   3.144  0.00  0.00    +0.277 C 
ENDBRANCH  34  37
ENDBRANCH  30  31
ENDBRANCH  29  30
ENDBRANCH  28  29
ENDBRANCH  23  28
ENDBRANCH   1  24
TORSDOF 7
