REMARK  Name = ZINC40896020
REMARK  7 active torsions:
REMARK  status: ('A' for Active; 'I' for Inactive)
REMARK    1  A    between atoms: C_4  and  C_7
REMARK    2  A    between atoms: C_10  and  O_14
REMARK    3  A    between atoms: O_14  and  C_15
REMARK    4  A    between atoms: C_15  and  C_16
REMARK    5  A    between atoms: C_16  and  O_18
REMARK    6  A    between atoms: O_18  and  C_19
REMARK    7  A    between atoms: C_24  and  C_30
REMARK                            x       y       z     vdW  Elec       q    Type
REMARK                         _______ _______ _______ _____ _____    ______ ____
ROOT
ATOM      1  C   UNL     1       9.702  -2.793  -0.066  0.00  0.00    +0.350 C 
ATOM      2  O   UNL     1       9.561  -3.992  -0.041  0.00  0.00    -0.247 OA
ENDROOT
BRANCH   1   3
ATOM      3  C   UNL     1       8.495  -1.891  -0.048  0.00  0.00    +0.349 C 
BRANCH   3   4
ATOM      4  O   UNL     1       7.308  -2.686  -0.000  0.00  0.00    -0.480 OA
BRANCH   4   8
ATOM      5  C   UNL     1       3.704  -0.670   0.067  0.00  0.00    -0.017 A 
ATOM      6  C   UNL     1       4.902   0.042   0.020  0.00  0.00    +0.012 A 
ATOM      7  C   UNL     1       6.104  -0.634  -0.003  0.00  0.00    +0.047 A 
ATOM      8  C   UNL     1       6.122  -2.022   0.022  0.00  0.00    +0.135 A 
ATOM      9  C   UNL     1       4.931  -2.734   0.068  0.00  0.00    +0.060 A 
ATOM     10  C   UNL     1       3.725  -2.063   0.097  0.00  0.00    +0.027 A 
ATOM     11 BR   UNL     1       4.960  -4.625   0.101  0.00  0.00    -0.046 Br
BRANCH   5  15
ATOM     12  C   UNL     1      -0.005   1.408   0.134  0.00  0.00    +0.000 A 
ATOM     13  C   UNL     1       1.181   2.117   0.082  0.00  0.00    +0.001 A 
ATOM     14  C   UNL     1       2.388   1.448   0.060  0.00  0.00    +0.008 A 
ATOM     15  C   UNL     1       2.410   0.055   0.090  0.00  0.00    -0.018 A 
ATOM     16  C   UNL     1       1.212  -0.654   0.143  0.00  0.00    +0.008 A 
ATOM     17  C   UNL     1       0.011   0.025   0.164  0.00  0.00    +0.001 A 
ENDBRANCH   5  15
ENDBRANCH   4   8
ENDBRANCH   3   4
ENDBRANCH   1   3
BRANCH   1  18
ATOM     18  O   UNL     1      10.936  -2.263  -0.111  0.00  0.00    -0.423 OA
BRANCH  18  19
ATOM     19  C   UNL     1      11.995  -3.106  -0.023  0.00  0.00    +0.135 A 
ATOM     20  C   UNL     1      12.375  -3.859  -1.134  0.00  0.00    +0.047 A 
ATOM     21  C   UNL     1      13.429  -4.720  -1.059  0.00  0.00    +0.015 A 
ATOM     22  C   UNL     1      14.134  -4.859   0.147  0.00  0.00    +0.019 A 
ATOM     23  C   UNL     1      15.209  -5.775   0.250  0.00  0.00    +0.031 A 
ATOM     24  C   UNL     1      15.741  -6.022   1.510  0.00  0.00    +0.121 A 
ATOM     25  C   UNL     1      15.121  -5.331   2.654  0.00  0.00    +0.350 A 
ATOM     26  O   UNL     1      15.180  -5.795   3.777  0.00  0.00    -0.244 OA
ATOM     27  O   UNL     1      14.484  -4.162   2.412  0.00  0.00    -0.422 OA
ATOM     28  C   UNL     1      13.772  -4.077   1.262  0.00  0.00    +0.143 A 
ATOM     29  C   UNL     1      12.696  -3.209   1.168  0.00  0.00    +0.093 A 
BRANCH  24  30
ATOM     30  C   UNL     1      16.880  -6.937   1.694  0.00  0.00    +0.248 C 
ATOM     31  O   UNL     1      17.373  -7.494   0.732  0.00  0.00    -0.270 OA
ATOM     32  N   UNL     1      17.375  -7.157   2.928  0.00  0.00    -0.325 N 
ATOM     33  H   UNL     1      16.981  -6.712   3.695  0.00  0.00    +0.145 HD
ATOM     34  H   UNL     1      18.125  -7.759   3.049  0.00  0.00    +0.145 HD
ENDBRANCH  24  30
ENDBRANCH  18  19
ENDBRANCH   1  18
TORSDOF 7
