REMARK  Name = ZINC25682385
REMARK  6 active torsions:
REMARK  status: ('A' for Active; 'I' for Inactive)
REMARK    1  A    between atoms: C_4  and  C_7
REMARK    2  A    between atoms: C_8  and  C_9
REMARK    3  A    between atoms: N_14  and  C_16
REMARK    4  A    between atoms: C_16  and  N_17
REMARK    5  A    between atoms: N_20  and  C_23
REMARK    6  A    between atoms: C_28  and  N_29
REMARK                            x       y       z     vdW  Elec       q    Type
REMARK                         _______ _______ _______ _____ _____    ______ ____
ROOT
ATOM      1  N   UNL     1       4.071  -1.198  -0.083  0.00  0.00    +0.395 N 
ATOM      2  C   UNL     1       3.917  -0.419   1.154  0.00  0.00    -0.057 C 
ATOM      3  C   UNL     1       2.539   0.245   1.167  0.00  0.00    +0.086 C 
ATOM      4  N   UNL     1       2.401   1.107  -0.015  0.00  0.00    -0.332 N 
ATOM      5  C   UNL     1       2.554   0.328  -1.252  0.00  0.00    +0.086 C 
ATOM      6  C   UNL     1       3.933  -0.336  -1.265  0.00  0.00    -0.057 C 
ATOM      7  H   UNL     1       3.267  -1.948  -0.114  0.00  0.00    -0.079 HD
ENDROOT
BRANCH   4   8
ATOM      8  C   UNL     1       1.181   1.787   0.000  0.00  0.00    +0.060 A 
ATOM      9  C   UNL     1      -0.013   1.076   0.008  0.00  0.00    +0.027 A 
ATOM     10  C   UNL     1      -1.217   1.751   0.017  0.00  0.00    +0.022 A 
ATOM     11  C   UNL     1      -1.237   3.134   0.030  0.00  0.00    +0.043 A 
ATOM     12  C   UNL     1      -0.050   3.846   0.022  0.00  0.00    +0.054 A 
ATOM     13  C   UNL     1       1.158   3.176   0.008  0.00  0.00    +0.148 A 
ATOM     14 CL   UNL     1      -2.753   3.979   0.048  0.00  0.00    -0.083 Cl
BRANCH  13  15
ATOM     15  N   UNL     1       2.427   3.937   0.000  0.00  0.00    +0.058 N 
ATOM     16  O   UNL     1       2.407   5.155   0.006  0.00  0.00    -0.126 OA
ATOM     17  O   UNL     1       3.492   3.346  -0.013  0.00  0.00    -0.126 OA
ENDBRANCH  13  15
ENDBRANCH   4   8
BRANCH   1  18
ATOM     18  C   UNL     1       5.354  -1.913  -0.099  0.00  0.00    +0.072 C 
BRANCH  18  24
ATOM     19  C   UNL     1       5.120  -4.703  -2.374  0.00  0.00    +0.153 A 
ATOM     20  N   UNL     1       5.656  -3.727  -3.196  0.00  0.00    -0.318 N 
ATOM     21  H   UNL     1       5.880  -3.955  -4.248  0.00  0.00    +0.169 HD
ATOM     22  C   UNL     1       5.804  -2.600  -2.470  0.00  0.00    +0.174 A 
ATOM     23  S   UNL     1       6.429  -1.110  -3.037  0.00  0.00    -0.012 S 
ATOM     24  N   UNL     1       5.373  -2.857  -1.219  0.00  0.00    -0.257 N 
ATOM     25  N   UNL     1       4.951  -4.193  -1.182  0.00  0.00    -0.153 NA
BRANCH  19  27
ATOM     26  C   UNL     1       4.282  -6.936  -1.875  0.00  0.00    +0.011 C 
ATOM     27  C   UNL     1       4.801  -6.079  -2.773  0.00  0.00    +0.048 C 
BRANCH  26  31
ATOM     28  C   UNL     1       3.359 -10.914  -3.026  0.00  0.00    +0.000 A 
ATOM     29  C   UNL     1       3.124 -10.502  -1.726  0.00  0.00    +0.001 A 
ATOM     30  C   UNL     1       3.422  -9.210  -1.345  0.00  0.00    +0.008 A 
ATOM     31  C   UNL     1       3.962  -8.317  -2.275  0.00  0.00    -0.025 A 
ATOM     32  C   UNL     1       4.191  -8.740  -3.587  0.00  0.00    +0.008 A 
ATOM     33  C   UNL     1       3.893 -10.036  -3.953  0.00  0.00    +0.001 A 
ENDBRANCH  26  31
ENDBRANCH  19  27
ENDBRANCH  18  24
ENDBRANCH   1  18
TORSDOF 6
