REMARK  Name = ZINC39631469
REMARK  11 active torsions:
REMARK  status: ('A' for Active; 'I' for Inactive)
REMARK    1  A    between atoms: C_1  and  C_2
REMARK    2  A    between atoms: C_2  and  C_4
REMARK    3  A    between atoms: C_2  and  N_11
REMARK    4  A    between atoms: C_4  and  C_5
REMARK    5  A    between atoms: C_5  and  C_6
REMARK    6  A    between atoms: C_6  and  C_7
REMARK    7  A    between atoms: C_7  and  C_8
REMARK    8  A    between atoms: C_7  and  C_9
REMARK    9  A    between atoms: C_7  and  O_10
REMARK   10  A    between atoms: C_12  and  C_14
REMARK   11  A    between atoms: C_25  and  C_27
REMARK                            x       y       z     vdW  Elec       q    Type
REMARK                         _______ _______ _______ _____ _____    ______ ____
ROOT
ATOM      1  C   UNL     1       0.276  -0.835   3.372  0.00  0.00    +0.100 C 
ATOM      2  C   UNL     1       1.598  -0.100   3.684  0.00  0.00    +0.121 C 
ATOM      3  N   UNL     1       1.269   0.797   4.817  0.00  0.00    -0.296 N 
ATOM      4  C   UNL     1       0.367  -0.009   5.675  0.00  0.00    +0.115 C 
ATOM      5  C   UNL     1      -0.528  -0.776   4.681  0.00  0.00    -0.004 C 
ATOM      6  C   UNL     1      -1.838  -0.025   4.464  0.00  0.00    -0.010 C 
ATOM      7  C   UNL     1      -2.645  -0.029   5.766  0.00  0.00    -0.082 C 
ATOM      8  N   UNL     1      -2.913  -1.414   6.173  0.00  0.00    +0.379 N 
ATOM      9  C   UNL     1      -1.651  -2.102   6.469  0.00  0.00    -0.082 C 
ATOM     10  C   UNL     1      -0.802  -2.186   5.198  0.00  0.00    -0.010 C 
ATOM     11  C   UNL     1       1.694   2.059   5.023  0.00  0.00    +0.250 C 
ATOM     12  O   UNL     1       1.411   2.636   6.055  0.00  0.00    -0.270 OA
ATOM     13  H   UNL     1      -3.497  -1.414   6.996  0.00  0.00    -0.086 HD
ATOM     14  H   UNL     1      -3.391  -1.896   5.426  0.00  0.00    -0.086 HD
ENDROOT
BRANCH  11  15
ATOM     15  C   UNL     1       2.504   2.743   3.993  0.00  0.00    +0.074 A 
ATOM     16  C   UNL     1       3.428   2.026   3.223  0.00  0.00    +0.017 A 
ATOM     17  C   UNL     1       4.161   2.713   2.271  0.00  0.00    +0.021 A 
ATOM     18  C   UNL     1       3.960   4.072   2.112  0.00  0.00    +0.112 A 
ATOM     19  N   UNL     1       3.082   4.723   2.851  0.00  0.00    -0.243 NA
ATOM     20  C   UNL     1       2.356   4.113   3.767  0.00  0.00    +0.141 A 
ATOM     21 CL   UNL     1       1.211   5.022   4.704  0.00  0.00    -0.061 Cl
ENDBRANCH  11  15
BRANCH   1  23
ATOM     22  N   UNL     1      -1.292  -0.826   1.458  0.00  0.00    -0.312 N 
ATOM     23  C   UNL     1      -0.469  -0.130   2.267  0.00  0.00    +0.218 C 
ATOM     24  O   UNL     1      -0.327   1.064   2.107  0.00  0.00    -0.275 OA
ATOM     25  H   UNL     1      -1.405  -1.781   1.586  0.00  0.00    +0.149 HD
BRANCH  22  27
ATOM     26  C   UNL     1      -1.120  -0.043  -0.853  0.00  0.00    +0.028 C 
ATOM     27  C   UNL     1      -2.015  -0.141   0.384  0.00  0.00    +0.070 C 
BRANCH  27  28
ATOM     28  C   UNL     1      -3.280  -0.929   0.037  0.00  0.00    +0.022 C 
BRANCH  28  29
ATOM     29  C   UNL     1      -4.231  -0.920   1.236  0.00  0.00    +0.005 C 
BRANCH  29  30
ATOM     30  C   UNL     1      -5.496  -1.708   0.890  0.00  0.00    +0.034 C 
BRANCH  30  31
ATOM     31  C   UNL     1      -6.446  -1.699   2.088  0.00  0.00    +0.061 C 
ATOM     32  C   UNL     1      -6.822  -0.256   2.430  0.00  0.00    +0.041 C 
ATOM     33  C   UNL     1      -7.711  -2.487   1.742  0.00  0.00    +0.041 C 
BRANCH  31  34
ATOM     34  O   UNL     1      -5.802  -2.303   3.212  0.00  0.00    -0.389 OA
ATOM     35  H   UNL     1      -5.535  -3.220   3.066  0.00  0.00    +0.210 HD
ENDBRANCH  31  34
ENDBRANCH  30  31
ENDBRANCH  29  30
ENDBRANCH  28  29
ENDBRANCH  27  28
ENDBRANCH  22  27
ENDBRANCH   1  23
TORSDOF 8
