REMARK  Name = ZINC14323129
REMARK  5 active torsions:
REMARK  status: ('A' for Active; 'I' for Inactive)
REMARK    1  A    between atoms: C_4  and  C_7
REMARK    2  A    between atoms: C_15  and  N_17
REMARK    3  A    between atoms: N_20  and  C_23
REMARK    4  A    between atoms: C_23  and  C_24
REMARK    5  A    between atoms: C_32  and  N_34
REMARK                            x       y       z     vdW  Elec       q    Type
REMARK                         _______ _______ _______ _____ _____    ______ ____
ROOT
ATOM      1  N   UNL     1       4.787  -4.097  -0.078  0.00  0.00    -0.314 N 
ATOM      2  C   UNL     1       6.031  -4.873  -0.199  0.00  0.00    +0.122 C 
ATOM      3  C   UNL     1       5.861  -5.892  -1.331  0.00  0.00    +0.104 C 
ATOM      4  N   UNL     1       4.651  -6.690  -1.090  0.00  0.00    -0.292 NA
ATOM      5  C   UNL     1       3.446  -5.851  -1.112  0.00  0.00    +0.104 C 
ATOM      6  C   UNL     1       3.517  -4.830   0.035  0.00  0.00    +0.122 C 
ENDROOT
BRANCH   1  15
ATOM      7  C   UNL     1       4.742  -0.696  -1.193  0.00  0.00    +0.140 A 
ATOM      8  N   UNL     1       4.857   0.017  -0.088  0.00  0.00    -0.229 NA
ATOM      9  C   UNL     1       4.956  -0.589   1.103  0.00  0.00    +0.077 A 
ATOM     10  C   UNL     1       5.078   0.137   2.296  0.00  0.00    +0.028 A 
ATOM     11  C   UNL     1       5.176  -0.528   3.482  0.00  0.00    +0.002 A 
ATOM     12  C   UNL     1       5.156  -1.919   3.528  0.00  0.00    +0.001 A 
ATOM     13  C   UNL     1       5.039  -2.656   2.386  0.00  0.00    +0.013 A 
ATOM     14  C   UNL     1       4.937  -2.005   1.153  0.00  0.00    +0.038 A 
ATOM     15  C   UNL     1       4.812  -2.719  -0.065  0.00  0.00    +0.110 A 
ATOM     16  N   UNL     1       4.715  -2.028  -1.191  0.00  0.00    -0.327 N 
ATOM     17  H   UNL     1       4.625  -2.501  -2.033  0.00  0.00    +0.169 HD
BRANCH   7  21
ATOM     18  C   UNL     1       4.434   1.343  -4.910  0.00  0.00    +0.000 A 
ATOM     19  C   UNL     1       4.560   2.065  -3.737  0.00  0.00    +0.001 A 
ATOM     20  C   UNL     1       4.660   1.408  -2.527  0.00  0.00    +0.011 A 
ATOM     21  C   UNL     1       4.635   0.015  -2.489  0.00  0.00    +0.017 A 
ATOM     22  C   UNL     1       4.508  -0.707  -3.675  0.00  0.00    +0.011 A 
ATOM     23  C   UNL     1       4.409  -0.039  -4.879  0.00  0.00    +0.001 A 
ENDBRANCH   7  21
ENDBRANCH   1  15
BRANCH   4  24
ATOM     24  C   UNL     1       4.545  -7.790  -2.058  0.00  0.00    +0.160 C 
BRANCH  24  25
ATOM     25  C   UNL     1       3.440  -8.725  -1.636  0.00  0.00    +0.146 A 
ATOM     26  N   UNL     1       3.736  -9.725  -0.841  0.00  0.00    -0.231 NA
ATOM     27  C   UNL     1       2.783 -10.580  -0.441  0.00  0.00    +0.076 A 
ATOM     28  C   UNL     1       3.063 -11.660   0.408  0.00  0.00    +0.028 A 
ATOM     29  C   UNL     1       2.056 -12.499   0.784  0.00  0.00    +0.002 A 
ATOM     30  C   UNL     1       0.753 -12.301   0.337  0.00  0.00    +0.001 A 
ATOM     31  C   UNL     1       0.446 -11.261  -0.491  0.00  0.00    +0.013 A 
ATOM     32  C   UNL     1       1.456 -10.381  -0.895  0.00  0.00    +0.040 A 
ATOM     33  C   UNL     1       1.200  -9.283  -1.752  0.00  0.00    +0.127 A 
ATOM     34  N   UNL     1       2.215  -8.496  -2.081  0.00  0.00    -0.216 NA
BRANCH  33  35
ATOM     35  N   UNL     1      -0.071  -9.037  -2.226  0.00  0.00    -0.343 N 
ATOM     36  H   UNL     1      -0.804  -9.620  -1.974  0.00  0.00    +0.144 HD
ATOM     37  H   UNL     1      -0.232  -8.281  -2.812  0.00  0.00    +0.144 HD
ENDBRANCH  33  35
ENDBRANCH  24  25
ENDBRANCH   4  24
TORSDOF 5
