REMARK  Name = ZINC39948475
REMARK  5 active torsions:
REMARK  status: ('A' for Active; 'I' for Inactive)
REMARK    1  A    between atoms: C_6  and  S_10
REMARK    2  A    between atoms: S_10  and  C_11
REMARK    3  A    between atoms: C_11  and  C_12
REMARK    4  A    between atoms: N_14  and  C_15
REMARK    5  A    between atoms: C_21  and  N_25
REMARK                            x       y       z     vdW  Elec       q    Type
REMARK                         _______ _______ _______ _____ _____    ______ ____
ROOT
ATOM      1  C   UNL     1      -6.413  -4.340   0.013  0.00  0.00    +0.225 C 
ATOM      2  O   UNL     1      -5.931  -5.452   0.006  0.00  0.00    -0.275 OA
ATOM      3  N   UNL     1      -7.752  -4.186   0.021  0.00  0.00    -0.288 N 
ATOM      4  H   UNL     1      -8.138  -3.296   0.027  0.00  0.00    +0.151 HD
ENDROOT
BRANCH   3   5
ATOM      5  C   UNL     1      -8.625  -5.362   0.020  0.00  0.00    +0.224 C 
ATOM      6  N   UNL     1     -10.020  -4.985  -0.246  0.00  0.00    -0.316 N 
ATOM      7  C   UNL     1     -10.960  -5.251   0.748  0.00  0.00    +0.043 A 
ATOM      8  C   UNL     1     -12.335  -4.962   0.672  0.00  0.00    +0.026 A 
ATOM      9  C   UNL     1     -13.184  -5.263   1.711  0.00  0.00    +0.034 A 
ATOM     10  C   UNL     1     -12.715  -5.861   2.866  0.00  0.00    +0.127 A 
ATOM     11  C   UNL     1     -11.366  -6.157   2.969  0.00  0.00    +0.049 A 
ATOM     12  C   UNL     1     -10.517  -5.855   1.928  0.00  0.00    +0.034 A 
ATOM     13  S   UNL     1      -8.766  -6.082   1.705  0.00  0.00    -0.082 S 
ATOM     14  H   UNL     1     -10.277  -4.568  -1.083  0.00  0.00    +0.149 HD
BRANCH  10  15
ATOM     15  N   UNL     1     -13.641  -6.179   3.977  0.00  0.00    +0.056 N 
ATOM     16  O   UNL     1     -14.816  -5.916   3.878  0.00  0.00    -0.126 OA
ATOM     17  O   UNL     1     -13.221  -6.702   4.983  0.00  0.00    -0.126 OA
ENDBRANCH  10  15
ENDBRANCH   3   5
BRANCH   1  18
ATOM     18  C   UNL     1      -5.516  -3.129   0.015  0.00  0.00    +0.173 C 
BRANCH  18  19
ATOM     19  S   UNL     1      -3.782  -3.663   0.003  0.00  0.00    -0.079 S 
BRANCH  19  25
ATOM     20  C   UNL     1      -0.017   1.375   0.010  0.00  0.00    +0.002 A 
ATOM     21  C   UNL     1      -1.222   2.062   0.019  0.00  0.00    +0.002 A 
ATOM     22  C   UNL     1      -2.416   1.377   0.021  0.00  0.00    +0.030 A 
ATOM     23  C   UNL     1      -2.414  -0.021   0.014  0.00  0.00    +0.090 A 
ATOM     24  N   UNL     1      -3.401  -0.955   0.014  0.00  0.00    -0.222 NA
ATOM     25  C   UNL     1      -2.872  -2.154   0.005  0.00  0.00    +0.168 A 
ATOM     26  N   UNL     1      -1.509  -2.059  -0.001  0.00  0.00    -0.333 N 
ATOM     27  C   UNL     1      -1.191  -0.711   0.004  0.00  0.00    +0.067 A 
ATOM     28  C   UNL     1       0.002  -0.004   0.002  0.00  0.00    +0.028 A 
ATOM     29  H   UNL     1      -0.880  -2.798  -0.009  0.00  0.00    +0.168 HD
ENDBRANCH  19  25
ENDBRANCH  18  19
ENDBRANCH   1  18
TORSDOF 5
