REMARK  Name = ZINC20733926
REMARK  9 active torsions:
REMARK  status: ('A' for Active; 'I' for Inactive)
REMARK    1  A    between atoms: C_1  and  O_2
REMARK    2  A    between atoms: O_2  and  C_3
REMARK    3  A    between atoms: C_3  and  C_5
REMARK    4  A    between atoms: C_5  and  C_7
REMARK    5  A    between atoms: C_5  and  N_11
REMARK    6  A    between atoms: C_7  and  C_8
REMARK    7  A    between atoms: C_8  and  S_9
REMARK    8  A    between atoms: S_9  and  C_10
REMARK    9  A    between atoms: C_23  and  C_25
REMARK                            x       y       z     vdW  Elec       q    Type
REMARK                         _______ _______ _______ _____ _____    ______ ____
ROOT
ATOM      1  N   UNL     1      -2.563  -2.247   2.105  0.00  0.00    -0.286 N 
ATOM      2  C   UNL     1      -3.200  -2.658   0.991  0.00  0.00    +0.304 C 
ATOM      3  O   UNL     1      -2.608  -2.688  -0.071  0.00  0.00    -0.253 OA
ATOM      4  N   UNL     1      -4.492  -3.037   1.053  0.00  0.00    -0.273 N 
ATOM      5  C   UNL     1      -5.168  -3.604  -0.123  0.00  0.00    +0.116 C 
ATOM      6  C   UNL     1      -5.560  -5.057   0.176  0.00  0.00    +0.074 C 
ATOM      7  C   UNL     1      -6.173  -5.121   1.551  0.00  0.00    +0.040 A 
ATOM      8  C   UNL     1      -6.042  -4.169   2.499  0.00  0.00    +0.062 A 
ATOM      9  N   UNL     1      -6.713  -4.566   3.582  0.00  0.00    -0.348 N 
ATOM     10  C   UNL     1      -7.260  -5.730   3.344  0.00  0.00    +0.171 A 
ATOM     11  N   UNL     1      -6.946  -6.108   2.083  0.00  0.00    -0.349 N 
ATOM     12  H   UNL     1      -7.219  -6.928   1.642  0.00  0.00    +0.166 HD
ATOM     13  C   UNL     1      -5.260  -2.897   2.304  0.00  0.00    +0.159 C 
ATOM     14  H   UNL     1      -3.053  -2.154   2.937  0.00  0.00    +0.151 HD
ATOM     15  H   UNL     1      -6.784  -4.071   4.413  0.00  0.00    +0.167 HD
ENDROOT
BRANCH  13  16
ATOM     16  C   UNL     1      -6.206  -1.729   2.196  0.00  0.00    +0.015 A 
ATOM     17  C   UNL     1      -7.557  -1.949   2.005  0.00  0.00    +0.028 A 
ATOM     18  C   UNL     1      -8.426  -0.877   1.907  0.00  0.00    +0.041 A 
ATOM     19  C   UNL     1      -7.943   0.416   2.000  0.00  0.00    +0.023 A 
ATOM     20  C   UNL     1      -6.593   0.638   2.191  0.00  0.00    +0.040 A 
ATOM     21  C   UNL     1      -5.723  -0.435   2.295  0.00  0.00    +0.129 A 
ATOM     22  F   UNL     1      -4.404  -0.219   2.487  0.00  0.00    -0.205 F 
ATOM     23 CL   UNL     1     -10.122  -1.155   1.666  0.00  0.00    -0.084 Cl
ENDBRANCH  13  16
BRANCH   1  24
ATOM     24  C   UNL     1      -1.132  -1.939   2.060  0.00  0.00    +0.184 C 
BRANCH  24  25
ATOM     25  C   UNL     1      -0.340  -3.220   2.124  0.00  0.00    +0.327 C 
ATOM     26  O   UNL     1      -0.914  -4.281   2.200  0.00  0.00    -0.249 OA
BRANCH  25  28
ATOM     27  C   UNL     1       1.687  -4.435   2.162  0.00  0.00    +0.280 C 
ATOM     28  O   UNL     1       1.001  -3.183   2.098  0.00  0.00    -0.467 OA
ENDBRANCH  25  28
ENDBRANCH  24  25
BRANCH  24  29
ATOM     29  C   UNL     1      -0.763  -1.052   3.251  0.00  0.00    +0.044 C 
BRANCH  29  30
ATOM     30  C   UNL     1      -1.468   0.299   3.118  0.00  0.00    +0.071 C 
BRANCH  30  31
ATOM     31  S   UNL     1      -0.906   1.407   4.440  0.00  0.00    -0.164 S 
ATOM     32  C   UNL     1      -1.823   2.944   4.144  0.00  0.00    +0.084 C 
ENDBRANCH  30  31
ENDBRANCH  29  30
ENDBRANCH  24  29
ENDBRANCH   1  24
TORSDOF 7
