REMARK  Name = ZINC56556775
REMARK  6 active torsions:
REMARK  status: ('A' for Active; 'I' for Inactive)
REMARK    1  A    between atoms: C_3  and  O_25
REMARK    2  A    between atoms: C_6  and  N_7
REMARK    3  A    between atoms: N_10  and  C_11
REMARK    4  A    between atoms: N_20  and  C_22
REMARK    5  A    between atoms: O_25  and  C_26
REMARK    6  A    between atoms: C_26  and  C_27
REMARK                            x       y       z     vdW  Elec       q    Type
REMARK                         _______ _______ _______ _____ _____    ______ ____
ROOT
ATOM      1  N   UNL     1      -1.202  -0.722   0.010  0.00  0.00    -0.269 N 
ATOM      2  C   UNL     1      -1.187  -2.065  -0.099  0.00  0.00    +0.304 C 
ATOM      3  O   UNL     1      -0.127  -2.662  -0.113  0.00  0.00    -0.253 OA
ATOM      4  N   UNL     1      -2.345  -2.747  -0.193  0.00  0.00    -0.296 N 
ATOM      5  H   UNL     1      -2.046  -0.252   0.099  0.00  0.00    +0.156 HD
ATOM      6  H   UNL     1      -3.190  -2.271  -0.182  0.00  0.00    +0.151 HD
ENDROOT
BRANCH   4   7
ATOM      7  C   UNL     1      -2.329  -4.204  -0.311  0.00  0.00    +0.077 C 
ATOM      8  C   UNL     1      -2.283  -4.849   1.076  0.00  0.00    -0.007 C 
ATOM      9  C   UNL     1      -2.151  -6.361   0.924  0.00  0.00    +0.003 C 
ATOM     10  C   UNL     1      -3.257  -6.965   0.075  0.00  0.00    +0.001 C 
ATOM     11  C   UNL     1      -3.511  -6.203  -1.216  0.00  0.00    +0.003 C 
ATOM     12  C   UNL     1      -3.603  -4.696  -1.002  0.00  0.00    -0.007 C 
ATOM     13  C   UNL     1      -4.827  -4.319  -0.182  0.00  0.00    -0.073 C 
ATOM     14  N   UNL     1      -4.770  -4.797   1.195  0.00  0.00    +0.382 N 
ATOM     15  C   UNL     1      -3.521  -4.471   1.875  0.00  0.00    -0.073 C 
ATOM     16  H   UNL     1      -4.938  -5.790   1.228  0.00  0.00    -0.081 HD
BRANCH  14  17
ATOM     17  C   UNL     1      -5.870  -4.169   1.940  0.00  0.00    -0.069 C 
ATOM     18  C   UNL     1      -6.793  -5.087   2.744  0.00  0.00    -0.017 C 
ATOM     19  C   UNL     1      -7.295  -4.437   1.454  0.00  0.00    -0.017 C 
ENDBRANCH  14  17
ENDBRANCH   4   7
BRANCH   1  25
ATOM     20  C   UNL     1       1.070  -0.455  -0.768  0.00  0.00    +0.027 A 
ATOM     21  C   UNL     1       2.256   0.254  -0.782  0.00  0.00    +0.047 A 
ATOM     22  C   UNL     1       2.379   1.415  -0.034  0.00  0.00    +0.122 A 
ATOM     23  C   UNL     1       1.312   1.867   0.728  0.00  0.00    +0.047 A 
ATOM     24  C   UNL     1       0.126   1.159   0.744  0.00  0.00    +0.027 A 
ATOM     25  C   UNL     1       0.002  -0.004  -0.005  0.00  0.00    +0.035 A 
BRANCH  22  26
ATOM     26  O   UNL     1       3.546   2.112  -0.049  0.00  0.00    -0.477 OA
BRANCH  26  27
ATOM     27  C   UNL     1       3.603   3.300   0.744  0.00  0.00    +0.346 C 
BRANCH  27  28
ATOM     28  C   UNL     1       4.932   3.918   0.607  0.00  0.00    +0.104 C 
ATOM     29  N   UNL     1       5.957   4.395   0.501  0.00  0.00    -0.193 NA
ENDBRANCH  27  28
ENDBRANCH  26  27
ENDBRANCH  22  26
ENDBRANCH   1  25
TORSDOF 6
