REMARK  Name = ZINC24764790
REMARK  12 active torsions:
REMARK  status: ('A' for Active; 'I' for Inactive)
REMARK    1  A    between atoms: C_1  and  C_2
REMARK    2  A    between atoms: C_2  and  C_3
REMARK    3  A    between atoms: C_2  and  C_4
REMARK    4  A    between atoms: C_4  and  N_5
REMARK    5  A    between atoms: N_5  and  C_6
REMARK    6  A    between atoms: C_7  and  N_22
REMARK    7  A    between atoms: N_8  and  C_15
REMARK    8  A    between atoms: C_15  and  C_16
REMARK    9  A    between atoms: C_23  and  C_25
REMARK   10  A    between atoms: N_30  and  C_32
REMARK   11  A    between atoms: C_36  and  S_38
REMARK   12  A    between atoms: S_38  and  C_39
REMARK                            x       y       z     vdW  Elec       q    Type
REMARK                         _______ _______ _______ _____ _____    ______ ____
ROOT
ATOM      1  N   UNL     1      -1.244  -2.077  -0.004  0.00  0.00    -0.264 N 
ATOM      2  C   UNL     1      -1.679  -2.576  -1.180  0.00  0.00    +0.225 C 
ATOM      3  O   UNL     1      -2.287  -3.626  -1.206  0.00  0.00    -0.275 OA
ENDROOT
BRANCH   1   4
ATOM      4  C   UNL     1      -1.401  -2.826   1.181  0.00  0.00    +0.140 A 
ATOM      5  C   UNL     1      -2.175  -2.345   2.217  0.00  0.00    +0.128 A 
ATOM      6  N   UNL     1      -2.310  -3.098   3.361  0.00  0.00    -0.276 N 
ATOM      7  C   UNL     1      -1.694  -4.288   3.468  0.00  0.00    +0.331 A 
ATOM      8  O   UNL     1      -1.825  -4.939   4.487  0.00  0.00    -0.246 OA
ATOM      9  N   UNL     1      -0.935  -4.774   2.469  0.00  0.00    -0.273 N 
ATOM     10  H   UNL     1      -0.502  -5.635   2.571  0.00  0.00    +0.173 HD
ATOM     11  C   UNL     1      -0.776  -4.079   1.325  0.00  0.00    +0.277 A 
ATOM     12  O   UNL     1      -0.090  -4.530   0.423  0.00  0.00    -0.266 OA
BRANCH   5  13
ATOM     13  N   UNL     1      -2.804  -1.128   2.108  0.00  0.00    -0.343 N 
ATOM     14  H   UNL     1      -2.787  -0.647   1.266  0.00  0.00    +0.144 HD
ATOM     15  H   UNL     1      -3.266  -0.750   2.873  0.00  0.00    +0.144 HD
ENDBRANCH   5  13
BRANCH   6  16
ATOM     16  C   UNL     1      -3.129  -2.599   4.468  0.00  0.00    +0.163 C 
BRANCH  16  17
ATOM     17  C   UNL     1      -4.550  -3.068   4.293  0.00  0.00    -0.028 A 
ATOM     18  C   UNL     1      -5.449  -2.297   3.579  0.00  0.00    +0.005 A 
ATOM     19  C   UNL     1      -6.753  -2.728   3.418  0.00  0.00    +0.000 A 
ATOM     20  C   UNL     1      -7.158  -3.928   3.970  0.00  0.00    +0.000 A 
ATOM     21  C   UNL     1      -6.259  -4.699   4.683  0.00  0.00    +0.000 A 
ATOM     22  C   UNL     1      -4.954  -4.271   4.841  0.00  0.00    +0.005 A 
ENDBRANCH  16  17
ENDBRANCH   6  16
ENDBRANCH   1   4
BRANCH   2  23
ATOM     23  C   UNL     1      -1.410  -1.830  -2.461  0.00  0.00    +0.102 C 
ATOM     24  C   UNL     1      -2.445  -0.700  -2.671  0.00  0.00    +0.110 C 
ATOM     25  C   UNL     1      -2.694  -0.698  -4.164  0.00  0.00    +0.221 C 
ATOM     26  O   UNL     1      -3.221   0.205  -4.779  0.00  0.00    -0.275 OA
ATOM     27  N   UNL     1      -2.247  -1.842  -4.709  0.00  0.00    -0.271 N 
ATOM     28  C   UNL     1      -1.670  -2.729  -3.690  0.00  0.00    +0.127 C 
BRANCH  27  29
ATOM     29  C   UNL     1      -2.320  -2.149  -6.072  0.00  0.00    +0.037 A 
ATOM     30  C   UNL     1      -1.936  -3.406  -6.524  0.00  0.00    +0.023 A 
ATOM     31  C   UNL     1      -2.007  -3.710  -7.870  0.00  0.00    +0.003 A 
ATOM     32  C   UNL     1      -2.460  -2.766  -8.771  0.00  0.00    +0.015 A 
ATOM     33  C   UNL     1      -2.845  -1.507  -8.326  0.00  0.00    +0.009 A 
ATOM     34  C   UNL     1      -2.780  -1.200  -6.973  0.00  0.00    +0.038 A 
BRANCH  33  35
ATOM     35  S   UNL     1      -3.422  -0.303  -9.476  0.00  0.00    -0.129 S 
ATOM     36  C   UNL     1      -3.335  -1.149 -11.078  0.00  0.00    +0.090 C 
ENDBRANCH  33  35
ENDBRANCH  27  29
ENDBRANCH   2  23
BRANCH   1  37
ATOM     37  C   UNL     1      -0.607  -0.759   0.041  0.00  0.00    +0.117 C 
BRANCH  37  39
ATOM     38  C   UNL     1       1.534   0.478  -0.318  0.00  0.00    +0.009 C 
ATOM     39  C   UNL     1       0.894  -0.908  -0.213  0.00  0.00    +0.001 C 
ATOM     40  C   UNL     1       1.533  -1.678   0.944  0.00  0.00    +0.009 C 
ENDBRANCH  37  39
ENDBRANCH   1  37
TORSDOF 9
