REMARK  Name = ZINC00664336
REMARK  8 active torsions:
REMARK  status: ('A' for Active; 'I' for Inactive)
REMARK    1  A    between atoms: C_1  and  C_2
REMARK    2  A    between atoms: C_2  and  C_32
REMARK    3  A    between atoms: C_6  and  C_22
REMARK    4  A    between atoms: C_8  and  C_12
REMARK    5  A    between atoms: C_9  and  N_11
REMARK    6  A    between atoms: C_12  and  O_14
REMARK    7  A    between atoms: O_14  and  C_15
REMARK    8  A    between atoms: C_15  and  C_16
REMARK                            x       y       z     vdW  Elec       q    Type
REMARK                         _______ _______ _______ _____ _____    ______ ____
ROOT
ATOM      1  C   UNL     1      -4.218   8.413  -6.165  0.00  0.00    +0.012 C 
ATOM      2  C   UNL     1      -4.861   7.397  -7.112  0.00  0.00    -0.021 C 
ATOM      3  C   UNL     1      -6.028   6.704  -6.407  0.00  0.00    +0.081 C 
ATOM      4  C   UNL     1      -5.522   5.967  -5.189  0.00  0.00    +0.115 C 
ATOM      5  C   UNL     1      -4.279   5.452  -5.165  0.00  0.00    +0.045 C 
ATOM      6  C   UNL     1      -3.777   4.711  -3.950  0.00  0.00    +0.097 C 
ATOM      7  C   UNL     1      -4.620   5.052  -2.753  0.00  0.00    +0.105 C 
ATOM      8  C   UNL     1      -5.856   5.593  -2.916  0.00  0.00    +0.195 C 
ATOM      9  O   UNL     1      -6.353   5.842  -4.136  0.00  0.00    -0.446 OA
ATOM     10  C   UNL     1      -3.410   5.586  -6.266  0.00  0.00    +0.164 C 
ATOM     11  O   UNL     1      -2.303   5.089  -6.215  0.00  0.00    -0.292 OA
ATOM     12  C   UNL     1      -3.829   6.333  -7.502  0.00  0.00    +0.086 C 
ATOM     13  C   UNL     1      -5.368   8.108  -8.368  0.00  0.00    +0.012 C 
ENDROOT
BRANCH   6  14
ATOM     14  C   UNL     1      -3.849   3.228  -4.206  0.00  0.00    -0.035 A 
ATOM     15  C   UNL     1      -5.067   2.630  -4.467  0.00  0.00    +0.006 A 
ATOM     16  C   UNL     1      -5.133   1.270  -4.708  0.00  0.00    +0.020 A 
ATOM     17  C   UNL     1      -3.980   0.506  -4.676  0.00  0.00    +0.041 A 
ATOM     18  C   UNL     1      -2.761   1.104  -4.408  0.00  0.00    +0.020 A 
ATOM     19  C   UNL     1      -2.696   2.464  -4.173  0.00  0.00    +0.006 A 
ATOM     20 CL   UNL     1      -4.063  -1.203  -4.970  0.00  0.00    -0.084 Cl
ENDBRANCH   6  14
BRANCH   8  21
ATOM     21  N   UNL     1      -6.606   5.895  -1.812  0.00  0.00    -0.329 N 
ATOM     22  H   UNL     1      -6.173   6.200  -0.999  0.00  0.00    +0.145 HD
ATOM     23  H   UNL     1      -7.572   5.805  -1.842  0.00  0.00    +0.145 HD
ENDBRANCH   8  21
BRANCH   7  24
ATOM     24  C   UNL     1      -4.131   4.804  -1.461  0.00  0.00    +0.341 C 
ATOM     25  O   UNL     1      -4.854   4.969  -0.494  0.00  0.00    -0.245 OA
BRANCH  24  26
ATOM     26  O   UNL     1      -2.860   4.384  -1.289  0.00  0.00    -0.456 OA
BRANCH  26  27
ATOM     27  C   UNL     1      -2.429   4.152   0.054  0.00  0.00    +0.268 C 
BRANCH  27  28
ATOM     28  C   UNL     1      -0.994   3.692   0.049  0.00  0.00    -0.010 A 
ATOM     29  C   UNL     1      -0.700   2.344  -0.038  0.00  0.00    +0.007 A 
ATOM     30  C   UNL     1       0.616   1.921  -0.038  0.00  0.00    +0.000 A 
ATOM     31  C   UNL     1       1.639   2.848   0.038  0.00  0.00    +0.000 A 
ATOM     32  C   UNL     1       1.346   4.196   0.120  0.00  0.00    +0.000 A 
ATOM     33  C   UNL     1       0.029   4.618   0.126  0.00  0.00    +0.007 A 
ENDBRANCH  27  28
ENDBRANCH  26  27
ENDBRANCH  24  26
ENDBRANCH   7  24
TORSDOF 6
