REMARK  Name = ZINC58990495
REMARK  8 active torsions:
REMARK  status: ('A' for Active; 'I' for Inactive)
REMARK    1  A    between atoms: C_1  and  C_2
REMARK    2  A    between atoms: C_5  and  C_8
REMARK    3  A    between atoms: N_9  and  N_10
REMARK    4  A    between atoms: C_11  and  C_13
REMARK    5  A    between atoms: C_13  and  S_14
REMARK    6  A    between atoms: S_14  and  C_15
REMARK    7  A    between atoms: C_18  and  C_21
REMARK    8  A    between atoms: N_19  and  N_20
REMARK                            x       y       z     vdW  Elec       q    Type
REMARK                         _______ _______ _______ _____ _____    ______ ____
ROOT
ATOM      1  S   UNL     1       0.350  -9.108   3.935  0.00  0.00    -0.075 S 
ENDROOT
BRANCH   1   2
ATOM      2  C   UNL     1       0.245 -10.859   3.768  0.00  0.00    +0.209 A 
ATOM      3  N   UNL     1       0.085 -11.527   2.648  0.00  0.00    -0.121 NA
ATOM      4  N   UNL     1       0.050 -12.789   2.888  0.00  0.00    -0.127 NA
ATOM      5  C   UNL     1       0.187 -13.004   4.176  0.00  0.00    +0.183 A 
ATOM      6  N   UNL     1       0.322 -11.775   4.779  0.00  0.00    -0.224 N 
BRANCH   5   7
ATOM      7  C   UNL     1       0.199 -14.319   4.851  0.00  0.00    +0.035 A 
ATOM      8  C   UNL     1      -0.580 -14.530   5.989  0.00  0.00    +0.013 A 
ATOM      9  C   UNL     1      -0.565 -15.760   6.614  0.00  0.00    +0.001 A 
ATOM     10  C   UNL     1       0.220 -16.784   6.114  0.00  0.00    +0.001 A 
ATOM     11  C   UNL     1       0.995 -16.583   4.986  0.00  0.00    +0.016 A 
ATOM     12  C   UNL     1       0.985 -15.358   4.348  0.00  0.00    +0.029 A 
ATOM     13 BR   UNL     1       2.038 -15.087   2.801  0.00  0.00    -0.050 Br
ENDBRANCH   5   7
BRANCH   6  14
ATOM     14  N   UNL     1       0.493 -11.523   6.110  0.00  0.00    -0.295 N 
ATOM     15  H   UNL     1      -0.394 -11.495   6.590  0.00  0.00    +0.163 HD
ATOM     16  H   UNL     1       1.110 -12.201   6.530  0.00  0.00    +0.163 HD
ENDBRANCH   6  14
ENDBRANCH   1   2
BRANCH   1  17
ATOM     17  C   UNL     1       0.177  -8.494   2.237  0.00  0.00    +0.174 C 
BRANCH  17  19
ATOM     18  N   UNL     1       0.145  -6.309   1.077  0.00  0.00    -0.206 N 
ATOM     19  C   UNL     1       0.250  -6.989   2.236  0.00  0.00    +0.242 C 
ATOM     20  O   UNL     1       0.404  -6.389   3.280  0.00  0.00    -0.273 OA
ATOM     21  H   UNL     1       0.022  -6.789   0.243  0.00  0.00    +0.177 HD
BRANCH  18  23
ATOM     22  C   UNL     1       0.111  -4.256  -0.038  0.00  0.00    +0.138 C 
ATOM     23  N   UNL     1       0.213  -4.910   1.077  0.00  0.00    -0.188 NA
BRANCH  22  28
ATOM     24  C   UNL     1       0.388   1.489  -0.039  0.00  0.00    +0.044 C 
ATOM     25  C   UNL     1       0.316  -0.016  -0.039  0.00  0.00    -0.050 A 
ATOM     26  C   UNL     1       0.141  -0.697  -1.231  0.00  0.00    +0.004 A 
ATOM     27  C   UNL     1       0.074  -2.075  -1.238  0.00  0.00    +0.010 A 
ATOM     28  C   UNL     1       0.183  -2.783  -0.039  0.00  0.00    -0.005 A 
ATOM     29  C   UNL     1       0.359  -2.088   1.161  0.00  0.00    +0.010 A 
ATOM     30  C   UNL     1       0.430  -0.711   1.152  0.00  0.00    +0.004 A 
ENDBRANCH  22  28
ENDBRANCH  18  23
ENDBRANCH  17  19
ENDBRANCH   1  17
TORSDOF 7
