REMARK  Name = ZINC35633460
REMARK  8 active torsions:
REMARK  status: ('A' for Active; 'I' for Inactive)
REMARK    1  A    between atoms: C_1  and  C_2
REMARK    2  A    between atoms: C_8  and  N_10
REMARK    3  A    between atoms: N_10  and  S_11
REMARK    4  A    between atoms: S_11  and  C_14
REMARK    5  A    between atoms: C_17  and  C_20
REMARK    6  A    between atoms: C_20  and  C_22
REMARK    7  A    between atoms: C_20  and  N_23
REMARK    8  A    between atoms: N_23  and  C_24
REMARK                            x       y       z     vdW  Elec       q    Type
REMARK                         _______ _______ _______ _____ _____    ______ ____
ROOT
ATOM      1  S   UNL     1       0.932   0.360   3.795  0.00  0.00    +0.059 S 
ATOM      2  O   UNL     1      -0.003   0.801   4.770  0.00  0.00    -0.153 OA
ATOM      3  O   UNL     1       1.827  -0.718   4.031  0.00  0.00    -0.153 OA
ENDROOT
BRANCH   1   4
ATOM      4  C   UNL     1       1.922   1.756   3.379  0.00  0.00    +0.105 A 
ATOM      5  C   UNL     1       3.189   1.574   2.855  0.00  0.00    +0.029 A 
ATOM      6  C   UNL     1       3.966   2.670   2.529  0.00  0.00    +0.004 A 
ATOM      7  C   UNL     1       3.477   3.947   2.726  0.00  0.00    -0.062 A 
ATOM      8  C   UNL     1       2.210   4.130   3.249  0.00  0.00    +0.004 A 
ATOM      9  C   UNL     1       1.431   3.034   3.571  0.00  0.00    +0.029 A 
BRANCH   7  10
ATOM     10  C   UNL     1       4.324   5.142   2.371  0.00  0.00    -0.044 C 
ATOM     11  C   UNL     1       3.885   5.694   1.014  0.00  0.00    -0.009 C 
BRANCH  10  12
ATOM     12  N   UNL     1       4.162   6.180   3.398  0.00  0.00    +0.382 N 
ATOM     13  C   UNL     1       5.077   7.294   3.117  0.00  0.00    -0.100 C 
ATOM     14  H   UNL     1       3.210   6.516   3.389  0.00  0.00    -0.085 HD
ATOM     15  H   UNL     1       4.373   5.792   4.305  0.00  0.00    -0.085 HD
ENDBRANCH  10  12
ENDBRANCH   7  10
ENDBRANCH   1   4
BRANCH   1  16
ATOM     16  N   UNL     1       0.056  -0.038   2.447  0.00  0.00    -0.187 NA
ATOM     17  H   UNL     1      -0.910   0.041   2.455  0.00  0.00    +0.148 HD
BRANCH  16  24
ATOM     18  C   UNL     1      -0.019   1.526   0.010  0.00  0.00    +0.009 C 
ATOM     19  C   UNL     1       0.002  -0.004   0.002  0.00  0.00    +0.005 C 
ATOM     20  C   UNL     1       0.718  -0.497  -1.257  0.00  0.00    +0.005 C 
ATOM     21  C   UNL     1       0.739  -2.027  -1.265  0.00  0.00    +0.000 C 
ATOM     22  C   UNL     1       1.479  -2.534  -0.026  0.00  0.00    +0.002 C 
ATOM     23  C   UNL     1       0.763  -2.041   1.233  0.00  0.00    +0.020 C 
ATOM     24  C   UNL     1       0.742  -0.511   1.242  0.00  0.00    +0.079 C 
ENDBRANCH  16  24
ENDBRANCH   1  16
TORSDOF 5
