REMARK  Name = ZINC39899285
REMARK  10 active torsions:
REMARK  status: ('A' for Active; 'I' for Inactive)
REMARK    1  A    between atoms: C_1  and  C_2
REMARK    2  A    between atoms: C_2  and  C_3
REMARK    3  A    between atoms: C_2  and  O_4
REMARK    4  A    between atoms: O_4  and  C_5
REMARK    5  A    between atoms: C_5  and  C_6
REMARK    6  A    between atoms: C_6  and  C_7
REMARK    7  A    between atoms: C_7  and  N_8
REMARK    8  A    between atoms: C_9  and  C_27
REMARK    9  A    between atoms: C_12  and  C_19
REMARK   10  A    between atoms: C_24  and  O_25
REMARK                            x       y       z     vdW  Elec       q    Type
REMARK                         _______ _______ _______ _____ _____    ______ ____
ROOT
ATOM      1  N   UNL     1      -4.541  -3.946  -1.209  0.00  0.00    -0.285 N 
ATOM      2  C   UNL     1      -5.151  -4.747  -0.140  0.00  0.00    +0.141 C 
ATOM      3  C   UNL     1      -6.600  -4.905  -0.513  0.00  0.00    +0.035 A 
ATOM      4  C   UNL     1      -7.852  -5.434  -0.182  0.00  0.00    +0.102 A 
ATOM      5  N   UNL     1      -8.693  -5.085  -1.136  0.00  0.00    -0.173 NA
ATOM      6  N   UNL     1      -8.095  -4.388  -2.036  0.00  0.00    -0.272 N 
ATOM      7  H   UNL     1      -8.518  -4.024  -2.830  0.00  0.00    +0.189 HD
ATOM      8  C   UNL     1      -6.778  -4.237  -1.709  0.00  0.00    +0.126 A 
ATOM      9  C   UNL     1      -5.494  -3.651  -2.111  0.00  0.00    +0.265 C 
ATOM     10  O   UNL     1      -5.317  -2.993  -3.119  0.00  0.00    -0.268 OA
ENDROOT
BRANCH   4  11
ATOM     11  C   UNL     1      -8.175  -6.240   1.022  0.00  0.00    +0.045 A 
ATOM     12  C   UNL     1      -7.183  -6.531   1.955  0.00  0.00    +0.033 A 
ATOM     13  C   UNL     1      -7.489  -7.281   3.074  0.00  0.00    +0.042 A 
ATOM     14  C   UNL     1      -8.778  -7.746   3.270  0.00  0.00    +0.023 A 
ATOM     15  C   UNL     1      -9.769  -7.462   2.349  0.00  0.00    +0.047 A 
ATOM     16  C   UNL     1      -9.477  -6.706   1.226  0.00  0.00    +0.126 A 
ATOM     17 CL   UNL     1      -6.252  -7.643   4.237  0.00  0.00    -0.084 Cl
BRANCH  16  18
ATOM     18  O   UNL     1     -10.452  -6.422   0.323  0.00  0.00    -0.506 OA
ATOM     19  H   UNL     1     -10.539  -7.079  -0.381  0.00  0.00    +0.292 HD
ENDBRANCH  16  18
ENDBRANCH   4  11
BRANCH   2  20
ATOM     20  C   UNL     1      -4.485  -6.096  -0.058  0.00  0.00    -0.022 A 
ATOM     21  C   UNL     1      -4.130  -6.763  -1.215  0.00  0.00    +0.007 A 
ATOM     22  C   UNL     1      -3.518  -8.000  -1.140  0.00  0.00    +0.015 A 
ATOM     23  C   UNL     1      -3.262  -8.571   0.093  0.00  0.00    +0.018 A 
ATOM     24  C   UNL     1      -3.617  -7.904   1.251  0.00  0.00    +0.015 A 
ATOM     25  C   UNL     1      -4.224  -6.664   1.175  0.00  0.00    +0.007 A 
ATOM     26 BR   UNL     1      -2.426 -10.264   0.196  0.00  0.00    -0.050 Br
ENDBRANCH   2  20
BRANCH   1  27
ATOM     27  C   UNL     1      -3.137  -3.534  -1.278  0.00  0.00    +0.111 C 
BRANCH  27  28
ATOM     28  C   UNL     1      -2.965  -2.187  -0.574  0.00  0.00    +0.047 C 
BRANCH  28  29
ATOM     29  C   UNL     1      -1.499  -1.757  -0.646  0.00  0.00    +0.161 C 
BRANCH  29  30
ATOM     30  O   UNL     1      -1.339  -0.499   0.012  0.00  0.00    -0.377 OA
BRANCH  30  32
ATOM     31  C   UNL     1      -0.019   1.526   0.010  0.00  0.00    +0.037 C 
ATOM     32  C   UNL     1       0.002  -0.004   0.002  0.00  0.00    +0.112 C 
ATOM     33  C   UNL     1       0.742  -0.511   1.242  0.00  0.00    +0.037 C 
ENDBRANCH  30  32
ENDBRANCH  29  30
ENDBRANCH  28  29
ENDBRANCH  27  28
ENDBRANCH   1  27
TORSDOF 8
