REMARK  Name = ZINC00626918
REMARK  5 active torsions:
REMARK  status: ('A' for Active; 'I' for Inactive)
REMARK    1  A    between atoms: C_1  and  O_2
REMARK    2  A    between atoms: O_2  and  C_3
REMARK    3  A    between atoms: C_3  and  C_5
REMARK    4  A    between atoms: C_6  and  N_28
REMARK    5  A    between atoms: C_19  and  C_21
REMARK                            x       y       z     vdW  Elec       q    Type
REMARK                         _______ _______ _______ _____ _____    ______ ____
ROOT
ATOM      1  C   UNL     1       0.778  -2.019   1.023  0.00  0.00    +0.105 C 
ATOM      2  C   UNL     1       1.395  -2.617   2.075  0.00  0.00    +0.195 C 
ATOM      3  O   UNL     1       1.373  -3.951   2.237  0.00  0.00    -0.441 OA
ATOM      4  C   UNL     1       0.452  -4.694   1.595  0.00  0.00    +0.152 A 
ATOM      5  C   UNL     1       0.145  -6.056   2.058  0.00  0.00    +0.060 A 
ATOM      6  C   UNL     1       0.795  -6.604   3.167  0.00  0.00    +0.015 A 
ATOM      7  C   UNL     1       0.484  -7.882   3.574  0.00  0.00    +0.001 A 
ATOM      8  C   UNL     1      -0.468  -8.623   2.890  0.00  0.00    +0.004 A 
ATOM      9  C   UNL     1      -1.118  -8.094   1.795  0.00  0.00    +0.047 A 
ATOM     10  C   UNL     1      -0.819  -6.807   1.367  0.00  0.00    +0.143 A 
ATOM     11  O   UNL     1      -1.446  -6.271   0.297  0.00  0.00    -0.422 OA
ATOM     12  C   UNL     1      -1.172  -5.029  -0.131  0.00  0.00    +0.345 A 
ATOM     13  O   UNL     1      -1.766  -4.593  -1.102  0.00  0.00    -0.245 OA
ATOM     14  C   UNL     1      -0.218  -4.217   0.508  0.00  0.00    +0.092 A 
ATOM     15  C   UNL     1       0.053  -2.832  -0.014  0.00  0.00    +0.103 C 
ENDROOT
BRANCH  15  16
ATOM     16  C   UNL     1       0.899  -2.923  -1.258  0.00  0.00    -0.017 A 
ATOM     17  C   UNL     1       2.157  -3.493  -1.198  0.00  0.00    +0.006 A 
ATOM     18  C   UNL     1       2.931  -3.581  -2.340  0.00  0.00    +0.000 A 
ATOM     19  C   UNL     1       2.451  -3.090  -3.540  0.00  0.00    +0.001 A 
ATOM     20  C   UNL     1       1.196  -2.516  -3.600  0.00  0.00    +0.020 A 
ATOM     21  C   UNL     1       0.418  -2.432  -2.458  0.00  0.00    +0.045 A 
ATOM     22 CL   UNL     1      -1.159  -1.710  -2.533  0.00  0.00    -0.083 Cl
ENDBRANCH  15  16
BRANCH   2  23
ATOM     23  N   UNL     1       2.050  -1.842   2.994  0.00  0.00    -0.329 N 
ATOM     24  H   UNL     1       1.660  -1.005   3.288  0.00  0.00    +0.145 HD
ATOM     25  H   UNL     1       2.905  -2.131   3.350  0.00  0.00    +0.145 HD
ENDBRANCH   2  23
BRANCH   1  26
ATOM     26  C   UNL     1       0.822  -0.623   0.899  0.00  0.00    +0.341 C 
ATOM     27  O   UNL     1       1.509   0.035   1.660  0.00  0.00    -0.245 OA
BRANCH  26  29
ATOM     28  C   UNL     1       0.196   1.417  -0.133  0.00  0.00    +0.280 C 
ATOM     29  O   UNL     1       0.104  -0.007  -0.065  0.00  0.00    -0.465 OA
ENDBRANCH  26  29
ENDBRANCH   1  26
TORSDOF 4
