REMARK  Name = ZINC63137720
REMARK  15 active torsions:
REMARK  status: ('A' for Active; 'I' for Inactive)
REMARK    1  A    between atoms: C_1  and  C_2
REMARK    2  A    between atoms: C_2  and  C_3
REMARK    3  A    between atoms: C_3  and  C_4
REMARK    4  A    between atoms: C_4  and  N_5
REMARK    5  A    between atoms: N_5  and  C_6
REMARK    6  A    between atoms: N_5  and  C_10
REMARK    7  A    between atoms: C_6  and  C_7
REMARK    8  A    between atoms: C_7  and  C_8
REMARK    9  A    between atoms: C_8  and  C_9
REMARK   10  A    between atoms: C_10  and  C_11
REMARK   11  A    between atoms: C_11  and  C_12
REMARK   12  A    between atoms: C_12  and  N_13
REMARK   13  A    between atoms: C_33  and  C_35
REMARK   14  A    between atoms: C_39  and  O_41
REMARK   15  A    between atoms: O_41  and  C_42
REMARK                            x       y       z     vdW  Elec       q    Type
REMARK                         _______ _______ _______ _____ _____    ______ ____
ROOT
ATOM      1  N   UNL     1      -5.256  -5.412   0.207  0.00  0.00    -0.291 N 
ATOM      2  C   UNL     1      -5.900  -5.526   1.505  0.00  0.00    +0.203 C 
ATOM      3  C   UNL     1      -7.162  -6.319   1.441  0.00  0.00    +0.234 C 
ATOM      4  O   UNL     1      -7.781  -6.477   2.473  0.00  0.00    -0.274 OA
ATOM      5  N   UNL     1      -7.661  -6.867   0.327  0.00  0.00    -0.279 N 
ATOM      6  C   UNL     1      -7.018  -6.730  -0.975  0.00  0.00    +0.167 C 
ATOM      7  C   UNL     1      -5.751  -5.943  -0.910  0.00  0.00    +0.237 C 
ATOM      8  O   UNL     1      -5.131  -5.779  -1.939  0.00  0.00    -0.274 OA
ATOM      9  C   UNL     1      -7.985  -6.066  -1.971  0.00  0.00    +0.065 C 
ATOM     10  C   UNL     1      -9.314  -6.762  -1.810  0.00  0.00    -0.034 C 
ATOM     11  C   UNL     1     -10.129  -7.319  -2.696  0.00  0.00    -0.001 A 
ATOM     12  C   UNL     1     -10.094  -7.365  -4.167  0.00  0.00    +0.010 A 
ATOM     13  C   UNL     1     -11.099  -8.055  -4.769  0.00  0.00    +0.001 A 
ATOM     14  C   UNL     1     -12.122  -8.696  -4.065  0.00  0.00    +0.002 A 
ATOM     15  C   UNL     1     -12.239  -8.697  -2.713  0.00  0.00    +0.026 A 
ATOM     16  C   UNL     1     -11.245  -7.997  -1.968  0.00  0.00    +0.043 A 
ATOM     17  N   UNL     1     -11.126  -7.818  -0.686  0.00  0.00    -0.375 N 
ATOM     18  C   UNL     1      -9.964  -6.961  -0.446  0.00  0.00    +0.131 C 
ATOM     19  C   UNL     1      -8.918  -7.642   0.441  0.00  0.00    +0.134 C 
ATOM     20  H   UNL     1     -11.707  -8.190  -0.004  0.00  0.00    +0.160 HD
ENDROOT
BRANCH  19  21
ATOM     21  C   UNL     1      -9.387  -7.647   1.873  0.00  0.00    -0.021 A 
ATOM     22  C   UNL     1      -9.047  -8.696   2.708  0.00  0.00    +0.006 A 
ATOM     23  C   UNL     1      -9.476  -8.703   4.022  0.00  0.00    +0.004 A 
ATOM     24  C   UNL     1     -10.246  -7.663   4.505  0.00  0.00    +0.045 A 
ATOM     25  C   UNL     1     -10.588  -6.609   3.670  0.00  0.00    +0.120 A 
ATOM     26  C   UNL     1     -10.152  -6.601   2.353  0.00  0.00    +0.051 A 
BRANCH  25  27
ATOM     27  O   UNL     1     -11.346  -5.585   4.142  0.00  0.00    -0.495 OA
ATOM     28  C   UNL     1     -11.755  -5.657   5.509  0.00  0.00    +0.277 C 
ENDBRANCH  25  27
ENDBRANCH  19  21
BRANCH   1  29
ATOM     29  C   UNL     1      -3.996  -4.669   0.121  0.00  0.00    +0.106 C 
BRANCH  29  30
ATOM     30  C   UNL     1      -4.292  -3.195  -0.160  0.00  0.00    +0.000 C 
BRANCH  30  31
ATOM     31  C   UNL     1      -2.977  -2.418  -0.249  0.00  0.00    -0.077 C 
BRANCH  31  32
ATOM     32  N   UNL     1      -3.253  -1.030  -0.642  0.00  0.00    +0.380 N 
ATOM     33  H   UNL     1      -3.778  -1.023  -1.504  0.00  0.00    -0.082 HD
BRANCH  32  34
ATOM     34  C   UNL     1      -4.033  -0.369   0.412  0.00  0.00    -0.079 C 
BRANCH  34  35
ATOM     35  C   UNL     1      -4.427   1.036  -0.050  0.00  0.00    -0.019 C 
BRANCH  35  37
ATOM     36  C   UNL     1      -5.634   3.129   0.587  0.00  0.00    +0.004 C 
ATOM     37  C   UNL     1      -5.240   1.724   1.049  0.00  0.00    -0.005 C 
ENDBRANCH  35  37
ENDBRANCH  34  35
ENDBRANCH  32  34
BRANCH  32  38
ATOM     38  C   UNL     1      -1.985  -0.314  -0.835  0.00  0.00    -0.079 C 
BRANCH  38  39
ATOM     39  C   UNL     1      -1.243  -0.905  -2.036  0.00  0.00    -0.019 C 
BRANCH  39  40
ATOM     40  C   UNL     1       0.108  -0.205  -2.196  0.00  0.00    -0.005 C 
ATOM     41  C   UNL     1       0.849  -0.796  -3.397  0.00  0.00    +0.004 C 
ENDBRANCH  39  40
ENDBRANCH  38  39
ENDBRANCH  32  38
ENDBRANCH  31  32
ENDBRANCH  30  31
ENDBRANCH  29  30
ENDBRANCH   1  29
TORSDOF 12
