REMARK  Name = ZINC04885703
REMARK  8 active torsions:
REMARK  status: ('A' for Active; 'I' for Inactive)
REMARK    1  A    between atoms: C_1  and  C_2
REMARK    2  A    between atoms: C_5  and  N_8
REMARK    3  A    between atoms: C_13  and  C_26
REMARK    4  A    between atoms: C_16  and  C_21
REMARK    5  A    between atoms: C_16  and  C_22
REMARK    6  A    between atoms: C_22  and  O_24
REMARK    7  A    between atoms: O_24  and  C_25
REMARK    8  A    between atoms: C_29  and  O_32
REMARK                            x       y       z     vdW  Elec       q    Type
REMARK                         _______ _______ _______ _____ _____    ______ ____
ROOT
ATOM      1  N   UNL     1       0.268  -4.013   0.709  0.00  0.00    -0.210 N 
ATOM      2  C   UNL     1       0.311  -4.519  -0.567  0.00  0.00    +0.229 C 
ATOM      3  O   UNL     1       0.603  -3.932  -1.587  0.00  0.00    -0.275 OA
ATOM      4  C   UNL     1      -0.068  -5.905  -0.423  0.00  0.00    +0.077 C 
ATOM      5  C   UNL     1       0.012  -7.178  -1.153  0.00  0.00    -0.027 C 
ATOM      6  N   UNL     1      -0.211  -8.223  -0.100  0.00  0.00    +0.395 N 
ATOM      7  C   UNL     1      -0.289  -7.522   1.223  0.00  0.00    +0.041 C 
ATOM      8  C   UNL     1       0.577  -6.269   0.974  0.00  0.00    +0.086 C 
ATOM      9  C   UNL     1       0.188  -4.988   1.661  0.00  0.00    +0.229 C 
ATOM     10  O   UNL     1      -0.132  -4.852   2.822  0.00  0.00    -0.275 OA
ATOM     11  C   UNL     1      -1.736  -7.155   1.558  0.00  0.00    +0.002 C 
ATOM     12  H   UNL     1      -1.076  -8.711  -0.280  0.00  0.00    -0.083 HD
ATOM     13  H   UNL     1       0.558  -8.876  -0.097  0.00  0.00    -0.083 HD
ENDROOT
BRANCH   1  18
ATOM     14  C   UNL     1       0.426   1.535   1.897  0.00  0.00    +0.044 C 
ATOM     15  C   UNL     1       0.384   0.062   1.581  0.00  0.00    -0.050 A 
ATOM     16  C   UNL     1       0.427  -0.364   0.266  0.00  0.00    +0.005 A 
ATOM     17  C   UNL     1       0.389  -1.713  -0.026  0.00  0.00    +0.024 A 
ATOM     18  C   UNL     1       0.307  -2.643   1.002  0.00  0.00    +0.044 A 
ATOM     19  C   UNL     1       0.265  -2.212   2.321  0.00  0.00    +0.024 A 
ATOM     20  C   UNL     1       0.308  -0.862   2.607  0.00  0.00    +0.005 A 
ENDBRANCH   1  18
BRANCH   5  21
ATOM     21  C   UNL     1       1.372  -7.341  -1.781  0.00  0.00    -0.060 A 
ATOM     22  C   UNL     1       2.439  -7.773  -1.015  0.00  0.00    +0.005 A 
ATOM     23  C   UNL     1       3.687  -7.922  -1.588  0.00  0.00    +0.045 A 
ATOM     24  C   UNL     1       3.869  -7.639  -2.934  0.00  0.00    +0.117 A 
ATOM     25  C   UNL     1       2.797  -7.206  -3.701  0.00  0.00    +0.045 A 
ATOM     26  C   UNL     1       1.550  -7.063  -3.124  0.00  0.00    +0.005 A 
BRANCH  24  27
ATOM     27  O   UNL     1       5.096  -7.785  -3.500  0.00  0.00    -0.507 OA
ATOM     28  H   UNL     1       5.258  -8.665  -3.866  0.00  0.00    +0.292 HD
ENDBRANCH  24  27
ENDBRANCH   5  21
BRANCH   7  29
ATOM     29  C   UNL     1       0.314  -8.370   2.313  0.00  0.00    +0.296 C 
ATOM     30  O   UNL     1       0.937  -7.850   3.208  0.00  0.00    -0.252 OA
BRANCH  29  31
ATOM     31  O   UNL     1       0.160  -9.704   2.289  0.00  0.00    -0.469 OA
ATOM     32  C   UNL     1       0.758 -10.445   3.354  0.00  0.00    +0.280 C 
ENDBRANCH  29  31
ENDBRANCH   7  29
TORSDOF 5
