REMARK  Name = ZINC39724656
REMARK  12 active torsions:
REMARK  status: ('A' for Active; 'I' for Inactive)
REMARK    1  A    between atoms: C_1  and  C_2
REMARK    2  A    between atoms: C_2  and  C_3
REMARK    3  A    between atoms: C_3  and  C_4
REMARK    4  A    between atoms: C_9  and  S_11
REMARK    5  A    between atoms: S_11  and  C_12
REMARK    6  A    between atoms: C_12  and  C_14
REMARK    7  A    between atoms: C_12  and  C_15
REMARK    8  A    between atoms: N_17  and  C_18
REMARK    9  A    between atoms: C_20  and  C_30
REMARK   10  A    between atoms: C_30  and  O_32
REMARK   11  A    between atoms: O_32  and  C_33
REMARK   12  A    between atoms: C_33  and  C_34
REMARK                            x       y       z     vdW  Elec       q    Type
REMARK                         _______ _______ _______ _____ _____    ______ ____
ROOT
ATOM      1  C   UNL     1      -2.646  -7.503   1.059  0.00  0.00    +0.227 C 
ATOM      2  O   UNL     1      -3.691  -7.076   0.614  0.00  0.00    -0.275 OA
ATOM      3  N   UNL     1      -2.591  -8.748   1.573  0.00  0.00    -0.301 N 
ATOM      4  H   UNL     1      -1.755  -9.089   1.928  0.00  0.00    +0.150 HD
ENDROOT
BRANCH   3   5
ATOM      5  C   UNL     1      -3.792  -9.585   1.595  0.00  0.00    +0.153 C 
ATOM      6  C   UNL     1      -3.514 -10.994   1.018  0.00  0.00    +0.155 C 
ATOM      7  C   UNL     1      -4.673 -11.496   0.188  0.00  0.00    -0.044 C 
ATOM      8  C   UNL     1      -5.550 -10.612  -0.227  0.00  0.00    -0.013 C 
ATOM      9  S   UNL     1      -5.037  -9.015   0.360  0.00  0.00    -0.106 S 
ATOM     10  C   UNL     1      -6.802 -10.900  -1.031  0.00  0.00    +0.042 C 
ATOM     11  C   UNL     1      -6.359 -11.345  -2.433  0.00  0.00    +0.005 C 
ATOM     12  C   UNL     1      -5.933 -12.796  -2.415  0.00  0.00    +0.001 C 
ATOM     13  C   UNL     1      -4.636 -13.091  -1.702  0.00  0.00    +0.004 C 
ATOM     14  C   UNL     1      -4.780 -12.980  -0.185  0.00  0.00    +0.032 C 
BRANCH   6  15
ATOM     15  C   UNL     1      -2.281 -10.937   0.153  0.00  0.00    +0.317 C 
ATOM     16  O   UNL     1      -2.354 -11.206  -1.022  0.00  0.00    -0.250 OA
BRANCH  15  17
ATOM     17  O   UNL     1      -1.101 -10.587   0.690  0.00  0.00    -0.464 OA
BRANCH  17  18
ATOM     18  C   UNL     1       0.026 -10.554  -0.188  0.00  0.00    +0.229 C 
ATOM     19  C   UNL     1       1.272 -10.137   0.596  0.00  0.00    +0.048 C 
ENDBRANCH  17  18
ENDBRANCH  15  17
ENDBRANCH   6  15
ENDBRANCH   3   5
BRANCH   1  20
ATOM     20  C   UNL     1      -1.410  -6.641   1.036  0.00  0.00    +0.137 C 
ATOM     21  C   UNL     1      -0.587  -6.963  -0.214  0.00  0.00    +0.029 C 
BRANCH  20  22
ATOM     22  S   UNL     1      -1.891  -4.893   1.009  0.00  0.00    -0.073 S 
BRANCH  22  28
ATOM     23  C   UNL     1       0.762  -2.018   1.233  0.00  0.00    +0.049 A 
ATOM     24  C   UNL     1       1.961  -2.701   1.322  0.00  0.00    +0.095 A 
ATOM     25  C   UNL     1       1.935  -4.095   1.311  0.00  0.00    +0.274 A 
ATOM     26  O   UNL     1       3.087  -4.804   1.397  0.00  0.00    -0.266 OA
ATOM     27  N   UNL     1       0.767  -4.718   1.217  0.00  0.00    -0.183 NA
ATOM     28  C   UNL     1      -0.362  -4.027   1.133  0.00  0.00    +0.193 A 
ATOM     29  N   UNL     1      -0.368  -2.702   1.146  0.00  0.00    -0.227 NA
BRANCH  23  30
ATOM     30  C   UNL     1       0.742  -0.511   1.242  0.00  0.00    +0.055 C 
BRANCH  30  32
ATOM     31  C   UNL     1      -0.019   1.526   0.010  0.00  0.00    +0.004 C 
ATOM     32  C   UNL     1       0.002  -0.004   0.002  0.00  0.00    +0.003 C 
ENDBRANCH  30  32
ENDBRANCH  23  30
ENDBRANCH  22  28
ENDBRANCH  20  22
ENDBRANCH   1  20
TORSDOF 9
