REMARK  Name = ZINC08941272
REMARK  9 active torsions:
REMARK  status: ('A' for Active; 'I' for Inactive)
REMARK    1  A    between atoms: C_1  and  C_2
REMARK    2  A    between atoms: C_2  and  C_3
REMARK    3  A    between atoms: C_3  and  C_5
REMARK    4  A    between atoms: C_3  and  C_6
REMARK    5  A    between atoms: C_6  and  C_7
REMARK    6  A    between atoms: C_8  and  C_33
REMARK    7  A    between atoms: C_16  and  S_18
REMARK    8  A    between atoms: S_18  and  C_19
REMARK    9  A    between atoms: C_19  and  C_20
REMARK                            x       y       z     vdW  Elec       q    Type
REMARK                         _______ _______ _______ _____ _____    ______ ____
ROOT
ATOM      1  C   UNL     1      -1.582   3.607   0.122  0.00  0.00    -0.023 A 
ATOM      2  C   UNL     1      -2.898   3.814   0.276  0.00  0.00    -0.007 A 
ATOM      3  S   UNL     1      -3.418   4.385  -1.331  0.00  0.00    -0.073 S 
ATOM      4  C   UNL     1      -1.852   4.328  -2.164  0.00  0.00    +0.117 A 
ATOM      5  C   UNL     1      -0.968   3.872  -1.167  0.00  0.00    +0.075 A 
ATOM      6  C   UNL     1       0.397   3.722  -1.568  0.00  0.00    +0.261 A 
ATOM      7  O   UNL     1       1.234   3.329  -0.773  0.00  0.00    -0.267 OA
ATOM      8  N   UNL     1       0.747   4.025  -2.832  0.00  0.00    -0.301 N 
ATOM      9  H   UNL     1       1.672   3.928  -3.106  0.00  0.00    +0.171 HD
ATOM     10  C   UNL     1      -0.176   4.466  -3.735  0.00  0.00    +0.170 A 
ATOM     11  N   UNL     1      -1.441   4.610  -3.394  0.00  0.00    -0.216 NA
ATOM     12  C   UNL     1      -3.737   3.614   1.511  0.00  0.00    +0.052 C 
ENDROOT
BRANCH   1  13
ATOM     13  C   UNL     1      -0.750   3.109   1.275  0.00  0.00    +0.040 C 
BRANCH  13  14
ATOM     14  C   UNL     1      -0.729   1.579   1.267  0.00  0.00    -0.010 C 
ATOM     15  C   UNL     1      -0.013   1.086   0.008  0.00  0.00    +0.008 C 
BRANCH  14  17
ATOM     16  C   UNL     1      -0.075  -0.454   2.563  0.00  0.00    +0.004 C 
ATOM     17  C   UNL     1       0.011   1.072   2.506  0.00  0.00    +0.000 C 
ENDBRANCH  14  17
ENDBRANCH  13  14
ENDBRANCH   1  13
BRANCH  10  18
ATOM     18  S   UNL     1       0.330   4.851  -5.378  0.00  0.00    -0.078 S 
BRANCH  18  19
ATOM     19  C   UNL     1      -1.256   5.362  -6.084  0.00  0.00    +0.173 C 
BRANCH  19  20
ATOM     20  C   UNL     1      -1.062   5.748  -7.528  0.00  0.00    +0.231 C 
ATOM     21  O   UNL     1       0.040   5.684  -8.030  0.00  0.00    -0.274 OA
ATOM     22  N   UNL     1      -2.113   6.165  -8.261  0.00  0.00    -0.260 N 
ATOM     23  C   UNL     1      -3.459   6.252  -7.676  0.00  0.00    +0.209 C 
ATOM     24  C   UNL     1      -4.463   5.728  -8.672  0.00  0.00    +0.235 C 
ATOM     25  O   UNL     1      -5.489   5.218  -8.275  0.00  0.00    -0.274 OA
ATOM     26  N   UNL     1      -4.233   5.817  -9.995  0.00  0.00    -0.283 N 
ATOM     27  C   UNL     1      -3.035   6.355 -10.479  0.00  0.00    +0.055 A 
ATOM     28  C   UNL     1      -1.957   6.535  -9.606  0.00  0.00    +0.058 A 
ATOM     29  C   UNL     1      -0.765   7.065 -10.068  0.00  0.00    +0.025 A 
ATOM     30  C   UNL     1      -0.644   7.425 -11.398  0.00  0.00    +0.002 A 
ATOM     31  C   UNL     1      -1.709   7.257 -12.264  0.00  0.00    +0.002 A 
ATOM     32  C   UNL     1      -2.906   6.715 -11.810  0.00  0.00    +0.025 A 
ATOM     33  H   UNL     1      -4.905   5.506 -10.621  0.00  0.00    +0.155 HD
ENDBRANCH  19  20
ENDBRANCH  18  19
ENDBRANCH  10  18
TORSDOF 6
