REMARK  Name = ZINC17256102
REMARK  7 active torsions:
REMARK  status: ('A' for Active; 'I' for Inactive)
REMARK    1  A    between atoms: C_1  and  C_2
REMARK    2  A    between atoms: C_2  and  O_4
REMARK    3  A    between atoms: O_4  and  C_5
REMARK    4  A    between atoms: C_9  and  C_35
REMARK    5  A    between atoms: C_14  and  C_34
REMARK    6  A    between atoms: N_26  and  S_30
REMARK    7  A    between atoms: S_30  and  C_33
REMARK                            x       y       z     vdW  Elec       q    Type
REMARK                         _______ _______ _______ _____ _____    ______ ____
ROOT
ATOM      1  C   UNL     1      -0.577  -2.705   1.303  0.00  0.00    +0.180 C 
ATOM      2  C   UNL     1      -1.670  -3.314   0.426  0.00  0.00    +0.046 C 
ATOM      3  C   UNL     1      -3.042  -2.771   0.815  0.00  0.00    +0.015 C 
ATOM      4  C   UNL     1      -3.359  -3.083   2.280  0.00  0.00    -0.008 C 
ATOM      5  C   UNL     1      -4.706  -2.507   2.668  0.00  0.00    +0.003 C 
ATOM      6  C   UNL     1      -5.045  -1.252   1.868  0.00  0.00    +0.007 C 
ATOM      7  C   UNL     1      -6.485  -0.833   2.171  0.00  0.00    +0.028 C 
ATOM      8  C   UNL     1      -6.681  -0.549   3.656  0.00  0.00    +0.040 C 
ATOM      9  C   UNL     1      -6.173  -1.688   4.519  0.00  0.00    +0.022 C 
ATOM     10  C   UNL     1      -4.792  -2.205   4.162  0.00  0.00    +0.002 C 
ATOM     11  C   UNL     1      -3.680  -1.248   4.571  0.00  0.00    +0.031 C 
ATOM     12  C   UNL     1      -2.353  -1.830   4.164  0.00  0.00    -0.027 C 
ATOM     13  C   UNL     1      -2.222  -2.620   3.141  0.00  0.00    -0.064 C 
ATOM     14  C   UNL     1      -0.820  -3.077   2.769  0.00  0.00    +0.075 C 
ATOM     15  C   UNL     1      -6.261  -1.330   6.012  0.00  0.00    +0.046 C 
ATOM     16  C   UNL     1      -7.705  -0.938   6.243  0.00  0.00    +0.009 C 
ATOM     17  C   UNL     1      -8.425  -0.895   7.356  0.00  0.00    +0.124 C 
ATOM     18  N   UNL     1      -9.706  -0.501   7.051  0.00  0.00    -0.131 N 
ATOM     19  N   UNL     1      -9.815  -0.303   5.665  0.00  0.00    -0.230 N 
ATOM     20  C   UNL     1      -8.570  -0.510   5.125  0.00  0.00    +0.115 C 
ATOM     21  N   UNL     1      -8.129  -0.355   3.906  0.00  0.00    -0.366 N 
ATOM     22  C   UNL     1      -6.010   0.779   4.009  0.00  0.00    +0.034 C 
ATOM     23  C   UNL     1      -3.467  -4.609   2.424  0.00  0.00    +0.016 C 
ATOM     24  H   UNL     1     -10.620  -0.065   5.179  0.00  0.00    +0.173 HD
ATOM     25  H   UNL     1      -8.717  -0.119   3.181  0.00  0.00    +0.161 HD
ENDROOT
BRANCH  18  26
ATOM     26  S   UNL     1     -10.930  -0.293   8.147  0.00  0.00    +0.058 S 
ATOM     27  O   UNL     1     -12.115  -0.617   7.433  0.00  0.00    -0.154 OA
ATOM     28  O   UNL     1     -10.535  -1.056   9.280  0.00  0.00    -0.154 OA
ATOM     29  C   UNL     1     -10.903   1.476   8.546  0.00  0.00    +0.220 C 
ENDBRANCH  18  26
BRANCH   1  30
ATOM     30  O   UNL     1      -0.586  -1.283   1.164  0.00  0.00    -0.461 OA
BRANCH  30  32
ATOM     31  C   UNL     1       0.655   0.851   1.183  0.00  0.00    +0.136 C 
ATOM     32  C   UNL     1       0.587  -0.648   1.315  0.00  0.00    +0.304 C 
ATOM     33  O   UNL     1       1.588  -1.279   1.558  0.00  0.00    -0.251 OA
ENDBRANCH  30  32
ENDBRANCH   1  30
TORSDOF 3
