REMARK  Name = ZINC02708520
REMARK  8 active torsions:
REMARK  status: ('A' for Active; 'I' for Inactive)
REMARK    1  A    between atoms: C_1  and  O_2
REMARK    2  A    between atoms: O_2  and  C_3
REMARK    3  A    between atoms: C_3  and  C_5
REMARK    4  A    between atoms: C_9  and  N_10
REMARK    5  A    between atoms: C_11  and  C_13
REMARK    6  A    between atoms: C_13  and  C_24
REMARK    7  A    between atoms: C_14  and  C_15
REMARK    8  A    between atoms: C_19  and  N_21
REMARK                            x       y       z     vdW  Elec       q    Type
REMARK                         _______ _______ _______ _____ _____    ______ ____
ROOT
ATOM      1  N   UNL     1      -2.454   8.112  -0.250  0.00  0.00    -0.275 N 
ATOM      2  C   UNL     1      -1.281   7.454  -0.163  0.00  0.00    +0.259 C 
ATOM      3  O   UNL     1      -0.234   8.073  -0.170  0.00  0.00    -0.269 OA
ATOM      4  H   UNL     1      -3.289   7.618  -0.244  0.00  0.00    +0.156 HD
ENDROOT
BRANCH   1   9
ATOM      5  C   UNL     1      -3.562  10.341  -0.451  0.00  0.00    +0.091 A 
ATOM      6  C   UNL     1      -3.300  11.768  -0.536  0.00  0.00    -0.021 A 
ATOM      7  C   UNL     1      -1.995  12.116  -0.516  0.00  0.00    -0.004 A 
ATOM      8  S   UNL     1      -1.120  10.583  -0.378  0.00  0.00    -0.077 S 
ATOM      9  C   UNL     1      -2.467   9.493  -0.347  0.00  0.00    +0.087 A 
ATOM     10  C   UNL     1      -1.428  13.499  -0.595  0.00  0.00    +0.043 C 
ATOM     11  C   UNL     1      -2.534  14.449  -1.079  0.00  0.00    +0.005 C 
ATOM     12  C   UNL     1      -3.803  14.184  -0.265  0.00  0.00    +0.005 C 
ATOM     13  C   UNL     1      -4.392  12.825  -0.647  0.00  0.00    +0.037 C 
BRANCH   5  14
ATOM     14  C   UNL     1      -4.929   9.817  -0.469  0.00  0.00    +0.342 C 
ATOM     15  O   UNL     1      -5.540   9.674   0.573  0.00  0.00    -0.245 OA
BRANCH  14  17
ATOM     16  C   UNL     1      -6.869   8.980  -1.584  0.00  0.00    +0.280 C 
ATOM     17  O   UNL     1      -5.512   9.494  -1.642  0.00  0.00    -0.464 OA
ENDBRANCH  14  17
ENDBRANCH   5  14
ENDBRANCH   1   9
BRANCH   2  18
ATOM     18  C   UNL     1      -1.267   5.986  -0.059  0.00  0.00    +0.114 C 
ATOM     19  C   UNL     1      -0.070   5.313   0.030  0.00  0.00    +0.032 C 
BRANCH  19  20
ATOM     20  C   UNL     1      -0.047   3.847  -0.017  0.00  0.00    -0.021 A 
ATOM     21  C   UNL     1      -1.030   3.149  -0.731  0.00  0.00    +0.008 A 
ATOM     22  C   UNL     1      -0.997   1.772  -0.775  0.00  0.00    +0.003 A 
ATOM     23  C   UNL     1      -0.002   1.078  -0.107  0.00  0.00    +0.033 A 
ATOM     24  C   UNL     1       0.973   1.759   0.600  0.00  0.00    +0.127 A 
ATOM     25  C   UNL     1       0.959   3.137   0.650  0.00  0.00    +0.040 A 
BRANCH  24  26
ATOM     26  N   UNL     1       2.035   1.006   1.305  0.00  0.00    +0.056 N 
ATOM     27  O   UNL     1       2.050  -0.211   1.262  0.00  0.00    -0.126 OA
ATOM     28  O   UNL     1       2.894   1.604   1.929  0.00  0.00    -0.126 OA
ENDBRANCH  24  26
ENDBRANCH  19  20
BRANCH  18  29
ATOM     29  C   UNL     1      -2.500   5.257  -0.050  0.00  0.00    +0.104 C 
ATOM     30  N   UNL     1      -3.478   4.679  -0.043  0.00  0.00    -0.191 NA
ENDBRANCH  18  29
ENDBRANCH   2  18
TORSDOF 7
