REMARK  Name = ZINC65533257
REMARK  9 active torsions:
REMARK  status: ('A' for Active; 'I' for Inactive)
REMARK    1  A    between atoms: C_1  and  C_2
REMARK    2  A    between atoms: C_5  and  N_8
REMARK    3  A    between atoms: N_8  and  C_9
REMARK    4  A    between atoms: C_9  and  C_10
REMARK    5  A    between atoms: C_9  and  C_11
REMARK    6  A    between atoms: C_9  and  C_17
REMARK    7  A    between atoms: N_19  and  C_20
REMARK    8  A    between atoms: C_20  and  C_21
REMARK    9  A    between atoms: C_21  and  C_22
REMARK                            x       y       z     vdW  Elec       q    Type
REMARK                         _______ _______ _______ _____ _____    ______ ____
ROOT
ATOM      1  C   UNL     1       0.185  -4.905   1.238  0.00  0.00    +0.131 C 
ATOM      2  C   UNL     1      -1.052  -4.653   2.103  0.00  0.00    +0.047 C 
ENDROOT
BRANCH   1   3
ATOM      3  C   UNL     1       1.419  -4.472   1.988  0.00  0.00    -0.016 A 
ATOM      4  C   UNL     1       2.233  -3.484   1.466  0.00  0.00    +0.006 A 
ATOM      5  C   UNL     1       3.364  -3.087   2.154  0.00  0.00    +0.000 A 
ATOM      6  C   UNL     1       3.682  -3.678   3.362  0.00  0.00    +0.000 A 
ATOM      7  C   UNL     1       2.867  -4.665   3.884  0.00  0.00    +0.000 A 
ATOM      8  C   UNL     1       1.733  -5.059   3.199  0.00  0.00    +0.006 A 
ENDBRANCH   1   3
BRANCH   1   9
ATOM      9  C   UNL     1       0.282  -6.374   0.917  0.00  0.00    +0.241 C 
ATOM     10  O   UNL     1       0.970  -7.101   1.602  0.00  0.00    -0.273 OA
ATOM     11  N   UNL     1      -0.396  -6.880  -0.133  0.00  0.00    -0.313 N 
ATOM     12  H   UNL     1      -0.947  -6.299  -0.680  0.00  0.00    +0.149 HD
BRANCH  11  13
ATOM     13  C   UNL     1      -0.302  -8.309  -0.445  0.00  0.00    +0.111 C 
BRANCH  13  14
ATOM     14  C   UNL     1      -1.160  -8.620  -1.673  0.00  0.00    +0.083 C 
BRANCH  14  15
ATOM     15  C   UNL     1      -1.063 -10.089  -1.995  0.00  0.00    +0.105 A 
ATOM     16  N   UNL     1      -1.803 -11.097  -1.581  0.00  0.00    -0.145 NA
ATOM     17  N   UNL     1      -1.588 -12.284  -1.948  0.00  0.00    -0.126 NA
ATOM     18  C   UNL     1      -0.600 -12.591  -2.778  0.00  0.00    +0.179 A 
ATOM     19  S   UNL     1       0.086 -10.961  -3.056  0.00  0.00    -0.036 S 
ATOM     20  N   UNL     1      -0.213 -13.821  -3.289  0.00  0.00    -0.336 N 
ATOM     21  H   UNL     1      -0.698 -14.624  -3.041  0.00  0.00    +0.144 HD
ATOM     22  H   UNL     1       0.543 -13.879  -3.894  0.00  0.00    +0.144 HD
ENDBRANCH  14  15
ENDBRANCH  13  14
ENDBRANCH  11  13
ENDBRANCH   1   9
BRANCH   1  23
ATOM     23  N   UNL     1       0.075  -4.139  -0.005  0.00  0.00    -0.327 N 
ATOM     24  H   UNL     1       0.162  -4.588  -0.861  0.00  0.00    +0.147 HD
BRANCH  23  29
ATOM     25  C   UNL     1      -0.862   1.451   0.181  0.00  0.00    +0.044 C 
ATOM     26  C   UNL     1      -0.613  -0.035   0.132  0.00  0.00    -0.050 A 
ATOM     27  C   UNL     1      -0.697  -0.708  -1.073  0.00  0.00    +0.005 A 
ATOM     28  C   UNL     1      -0.469  -2.070  -1.122  0.00  0.00    +0.023 A 
ATOM     29  C   UNL     1      -0.156  -2.762   0.041  0.00  0.00    +0.028 A 
ATOM     30  C   UNL     1      -0.073  -2.082   1.249  0.00  0.00    +0.023 A 
ATOM     31  C   UNL     1      -0.296  -0.720   1.290  0.00  0.00    +0.005 A 
ENDBRANCH  23  29
ENDBRANCH   1  23
TORSDOF 7
