REMARK  Name = ZINC09292532
REMARK  14 active torsions:
REMARK  status: ('A' for Active; 'I' for Inactive)
REMARK    1  A    between atoms: C_1  and  C_2
REMARK    2  A    between atoms: C_2  and  N_3
REMARK    3  A    between atoms: N_3  and  C_4
REMARK    4  A    between atoms: N_3  and  C_6
REMARK    5  A    between atoms: C_4  and  C_5
REMARK    6  A    between atoms: C_9  and  C_12
REMARK    7  A    between atoms: C_15  and  C_26
REMARK    8  A    between atoms: C_21  and  N_25
REMARK    9  A    between atoms: C_22  and  C_23
REMARK   10  A    between atoms: C_29  and  O_34
REMARK   11  A    between atoms: C_30  and  O_32
REMARK   12  A    between atoms: O_32  and  C_33
REMARK   13  A    between atoms: O_34  and  C_35
REMARK   14  A    between atoms: C_35  and  C_36
REMARK                            x       y       z     vdW  Elec       q    Type
REMARK                         _______ _______ _______ _____ _____    ______ ____
ROOT
ATOM      1  C   UNL     1      -1.036  -6.056   1.013  0.00  0.00    +0.102 C 
ATOM      2  C   UNL     1      -2.448  -6.580   0.953  0.00  0.00    +0.054 A 
ATOM      3  C   UNL     1      -3.259  -6.753  -0.119  0.00  0.00    +0.074 A 
ATOM      4  N   UNL     1      -4.442  -7.255   0.346  0.00  0.00    -0.273 N 
ATOM      5  N   UNL     1      -4.337  -7.386   1.739  0.00  0.00    -0.135 NA
ATOM      6  H   UNL     1      -5.217  -7.479  -0.192  0.00  0.00    +0.189 HD
ATOM      7  C   UNL     1      -3.152  -6.986   2.103  0.00  0.00    +0.245 A 
ATOM      8  O   UNL     1      -2.596  -6.931   3.344  0.00  0.00    -0.421 OA
ATOM      9  C   UNL     1      -1.264  -6.736   3.421  0.00  0.00    +0.201 C 
ATOM     10  C   UNL     1      -0.488  -6.338   2.390  0.00  0.00    +0.098 C 
ENDROOT
BRANCH   1  14
ATOM     11  C   UNL     1      -1.030  -1.845   0.293  0.00  0.00    +0.013 A 
ATOM     12  C   UNL     1      -0.312  -2.689  -0.534  0.00  0.00    +0.022 A 
ATOM     13  C   UNL     1      -0.314  -4.052  -0.301  0.00  0.00    +0.006 A 
ATOM     14  C   UNL     1      -1.033  -4.570   0.760  0.00  0.00    -0.034 A 
ATOM     15  C   UNL     1      -1.750  -3.726   1.587  0.00  0.00    +0.006 A 
ATOM     16  C   UNL     1      -1.744  -2.364   1.357  0.00  0.00    +0.022 A 
BRANCH  11  17
ATOM     17  N   UNL     1      -1.028  -0.467   0.057  0.00  0.00    -0.394 NA
ATOM     18  H   UNL     1      -1.594  -0.006   0.753  0.00  0.00    +0.126 HD
BRANCH  17  20
ATOM     19  C   UNL     1       0.868  -0.100   1.564  0.00  0.00    +0.022 C 
ATOM     20  C   UNL     1       0.349   0.040   0.131  0.00  0.00    +0.081 C 
ENDBRANCH  17  20
BRANCH  17  21
ATOM     21  C   UNL     1      -1.577  -0.199  -1.279  0.00  0.00    +0.081 C 
ATOM     22  C   UNL     1      -3.050  -0.610  -1.316  0.00  0.00    +0.022 C 
ENDBRANCH  17  21
ENDBRANCH  11  17
ENDBRANCH   1  14
BRANCH   3  23
ATOM     23  C   UNL     1      -2.925  -6.456  -1.530  0.00  0.00    +0.004 A 
ATOM     24  C   UNL     1      -1.718  -6.900  -2.071  0.00  0.00    +0.014 A 
ATOM     25  C   UNL     1      -1.408  -6.622  -3.386  0.00  0.00    +0.050 A 
ATOM     26  C   UNL     1      -2.294  -5.902  -4.173  0.00  0.00    +0.162 A 
ATOM     27  C   UNL     1      -3.500  -5.456  -3.639  0.00  0.00    +0.162 A 
ATOM     28  C   UNL     1      -3.819  -5.737  -2.323  0.00  0.00    +0.059 A 
BRANCH  27  29
ATOM     29  O   UNL     1      -4.367  -4.749  -4.413  0.00  0.00    -0.491 OA
ATOM     30  C   UNL     1      -5.585  -4.323  -3.799  0.00  0.00    +0.277 C 
ENDBRANCH  27  29
BRANCH  26  31
ATOM     31  O   UNL     1      -1.984  -5.630  -5.469  0.00  0.00    -0.489 OA
BRANCH  31  32
ATOM     32  C   UNL     1      -0.730  -6.117  -5.952  0.00  0.00    +0.226 C 
ATOM     33  C   UNL     1      -0.559  -5.717  -7.419  0.00  0.00    +0.048 C 
ENDBRANCH  31  32
ENDBRANCH  26  31
ENDBRANCH   3  23
BRANCH   9  34
ATOM     34  N   UNL     1      -0.654  -6.958   4.630  0.00  0.00    -0.328 N 
ATOM     35  H   UNL     1      -1.180  -7.246   5.393  0.00  0.00    +0.145 HD
ATOM     36  H   UNL     1       0.302  -6.828   4.722  0.00  0.00    +0.145 HD
ENDBRANCH   9  34
BRANCH  10  37
ATOM     37  C   UNL     1       0.917  -6.177   2.612  0.00  0.00    +0.101 C 
ATOM     38  N   UNL     1       2.032  -6.048   2.789  0.00  0.00    -0.191 NA
ENDBRANCH  10  37
TORSDOF 10
