REMARK  Name = ZINC09290272
REMARK  10 active torsions:
REMARK  status: ('A' for Active; 'I' for Inactive)
REMARK    1  A    between atoms: C_1  and  C_2
REMARK    2  A    between atoms: C_3  and  C_33
REMARK    3  A    between atoms: C_4  and  N_8
REMARK    4  A    between atoms: C_11  and  C_18
REMARK    5  A    between atoms: C_13  and  C_16
REMARK    6  A    between atoms: C_14  and  N_15
REMARK    7  A    between atoms: C_21  and  O_24
REMARK    8  A    between atoms: O_24  and  C_25
REMARK    9  A    between atoms: C_29  and  C_31
REMARK   10  A    between atoms: C_29  and  C_32
REMARK                            x       y       z     vdW  Elec       q    Type
REMARK                         _______ _______ _______ _____ _____    ______ ____
ROOT
ATOM      1  N   UNL     1      -1.249   2.855   4.725  0.00  0.00    -0.244 N 
ATOM      2  C   UNL     1      -2.398   3.144   5.414  0.00  0.00    +0.026 C 
ATOM      3  C   UNL     1      -2.485   2.900   6.739  0.00  0.00    +0.025 C 
ATOM      4  C   UNL     1      -1.332   2.284   7.491  0.00  0.00    +0.097 C 
ATOM      5  C   UNL     1      -0.051   2.418   6.723  0.00  0.00    +0.077 C 
ATOM      6  C   UNL     1      -0.056   2.684   5.393  0.00  0.00    +0.108 C 
ATOM      7  C   UNL     1      -3.654   3.209   7.457  0.00  0.00    +0.162 C 
ATOM      8  O   UNL     1      -3.703   2.969   8.647  0.00  0.00    -0.292 OA
ATOM      9  C   UNL     1      -4.844   3.830   6.780  0.00  0.00    +0.086 C 
ATOM     10  C   UNL     1      -4.363   4.652   5.579  0.00  0.00    -0.023 C 
ATOM     11  C   UNL     1      -3.560   3.735   4.654  0.00  0.00    +0.058 C 
ATOM     12  C   UNL     1      -3.475   5.800   6.064  0.00  0.00    +0.011 C 
ATOM     13  C   UNL     1      -5.567   5.218   4.823  0.00  0.00    +0.011 C 
ENDROOT
BRANCH   1  17
ATOM     14  C   UNL     1      -1.146   3.911  -0.174  0.00  0.00    +0.068 C 
ATOM     15  C   UNL     1      -1.246   3.173   1.136  0.00  0.00    +0.069 A 
ATOM     16  C   UNL     1      -1.137   3.748   2.417  0.00  0.00    +0.045 A 
ATOM     17  C   UNL     1      -1.288   2.728   3.339  0.00  0.00    +0.134 A 
ATOM     18  N   UNL     1      -1.481   1.584   2.644  0.00  0.00    -0.263 N 
ATOM     19  H   UNL     1      -1.617   0.675   3.037  0.00  0.00    +0.190 HD
ATOM     20  N   UNL     1      -1.456   1.891   1.279  0.00  0.00    -0.177 NA
BRANCH  16  21
ATOM     21  C   UNL     1      -0.904   5.181   2.721  0.00  0.00    -0.013 A 
ATOM     22  C   UNL     1       0.290   5.584   3.316  0.00  0.00    +0.010 A 
ATOM     23  C   UNL     1       0.505   6.919   3.591  0.00  0.00    +0.020 A 
ATOM     24  C   UNL     1      -0.468   7.856   3.288  0.00  0.00    +0.041 A 
ATOM     25  C   UNL     1      -1.658   7.460   2.702  0.00  0.00    +0.020 A 
ATOM     26  C   UNL     1      -1.880   6.128   2.417  0.00  0.00    +0.010 A 
ATOM     27 CL   UNL     1      -0.195   9.533   3.643  0.00  0.00    -0.084 Cl
ENDBRANCH  16  21
ENDBRANCH   1  17
BRANCH   4  28
ATOM     28  C   UNL     1      -1.618   0.823   7.723  0.00  0.00    -0.034 A 
ATOM     29  C   UNL     1      -1.817  -0.022   6.647  0.00  0.00    +0.008 A 
ATOM     30  C   UNL     1      -2.074  -1.363   6.857  0.00  0.00    +0.046 A 
ATOM     31  C   UNL     1      -2.144  -1.860   8.150  0.00  0.00    +0.120 A 
ATOM     32  C   UNL     1      -1.950  -1.009   9.229  0.00  0.00    +0.046 A 
ATOM     33  C   UNL     1      -1.687   0.330   9.013  0.00  0.00    +0.008 A 
BRANCH  31  34
ATOM     34  O   UNL     1      -2.403  -3.177   8.360  0.00  0.00    -0.495 OA
ATOM     35  C   UNL     1      -2.592  -3.993   7.203  0.00  0.00    +0.277 C 
ENDBRANCH  31  34
ENDBRANCH   4  28
BRANCH   6  36
ATOM     36  N   UNL     1       1.133   2.789   4.711  0.00  0.00    -0.345 N 
ATOM     37  H   UNL     1       1.132   2.892   3.747  0.00  0.00    +0.144 HD
ATOM     38  H   UNL     1       1.973   2.761   5.195  0.00  0.00    +0.144 HD
ENDBRANCH   6  36
BRANCH   5  39
ATOM     39  C   UNL     1       1.199   2.256   7.404  0.00  0.00    +0.099 C 
ATOM     40  N   UNL     1       2.190   2.128   7.944  0.00  0.00    -0.191 NA
ENDBRANCH   5  39
TORSDOF 6
