REMARK  Name = ZINC15999118
REMARK  2 active torsions:
REMARK  status: ('A' for Active; 'I' for Inactive)
REMARK    1  A    between atoms: C_10  and  N_11
REMARK    2  A    between atoms: C_27  and  C_33
REMARK                            x       y       z     vdW  Elec       q    Type
REMARK                         _______ _______ _______ _____ _____    ______ ____
ROOT
ATOM      1  N   UNL     1      -2.516   3.782   0.045  0.00  0.00    -0.209 N 
ATOM      2  C   UNL     1      -3.195   4.152  -1.087  0.00  0.00    +0.232 C 
ATOM      3  O   UNL     1      -2.761   4.220  -2.216  0.00  0.00    -0.274 OA
ATOM      4  C   UNL     1      -4.572   4.447  -0.633  0.00  0.00    +0.113 C 
ATOM      5  C   UNL     1      -5.478   5.544  -1.134  0.00  0.00    +0.100 C 
ATOM      6  C   UNL     1      -6.379   5.046  -2.236  0.00  0.00    -0.021 A 
ATOM      7  C   UNL     1      -5.849   4.308  -3.274  0.00  0.00    +0.006 A 
ATOM      8  C   UNL     1      -6.666   3.861  -4.297  0.00  0.00    +0.000 A 
ATOM      9  C   UNL     1      -8.020   4.151  -4.287  0.00  0.00    +0.001 A 
ATOM     10  C   UNL     1      -8.593   4.879  -3.207  0.00  0.00    +0.008 A 
ATOM     11  C   UNL     1      -7.760   5.334  -2.181  0.00  0.00    -0.019 A 
ATOM     12  C   UNL     1      -8.333   6.115  -1.068  0.00  0.00    +0.022 C 
ATOM     13  C   UNL     1      -7.591   6.348   0.026  0.00  0.00    +0.054 C 
ATOM     14  N   UNL     1      -6.317   5.830   0.071  0.00  0.00    -0.383 NA
ATOM     15  C   UNL     1      -5.545   5.446   1.282  0.00  0.00    +0.155 C 
ATOM     16  C   UNL     1      -4.196   5.092   0.762  0.00  0.00    +0.118 C 
ATOM     17  C   UNL     1      -3.177   4.137   1.195  0.00  0.00    +0.232 C 
ATOM     18  O   UNL     1      -2.962   3.746   2.322  0.00  0.00    -0.274 OA
ATOM     19  H   UNL     1      -7.313   6.283   0.186  0.00  0.00    +0.127 HD
ENDROOT
BRANCH   1  29
ATOM     20  C   UNL     1       2.311   5.261   0.006  0.00  0.00    +0.001 A 
ATOM     21  C   UNL     1       1.094   5.940   0.021  0.00  0.00    +0.001 A 
ATOM     22  C   UNL     1      -0.086   5.261   0.029  0.00  0.00    +0.010 A 
ATOM     23  C   UNL     1      -0.081   3.857   0.023  0.00  0.00    +0.004 A 
ATOM     24  C   UNL     1       1.156   3.167   0.007  0.00  0.00    -0.016 A 
ATOM     25  C   UNL     1       2.355   3.901  -0.001  0.00  0.00    +0.008 A 
ATOM     26  C   UNL     1       1.164   1.762   0.000  0.00  0.00    +0.008 A 
ATOM     27  C   UNL     1      -0.013   1.076   0.008  0.00  0.00    +0.002 A 
ATOM     28  C   UNL     1      -1.234   1.744   0.017  0.00  0.00    +0.024 A 
ATOM     29  C   UNL     1      -1.283   3.120   0.031  0.00  0.00    +0.052 A 
ENDBRANCH   1  29
BRANCH  15  30
ATOM     30  C   UNL     1      -6.179   4.256   1.956  0.00  0.00    +0.230 C 
ATOM     31  O   UNL     1      -7.004   3.593   1.364  0.00  0.00    -0.274 OA
ATOM     32  N   UNL     1      -5.829   3.929   3.215  0.00  0.00    -0.328 N 
ATOM     33  H   UNL     1      -6.292   3.060   3.707  0.00  0.00    +0.145 HD
ATOM     34  H   UNL     1      -5.080   4.530   3.752  0.00  0.00    +0.145 HD
ENDBRANCH  15  30
TORSDOF 2
