REMARK  Name = ZINC43043189
REMARK  6 active torsions:
REMARK  status: ('A' for Active; 'I' for Inactive)
REMARK    1  A    between atoms: C_1  and  C_2
REMARK    2  A    between atoms: C_7  and  N_12
REMARK    3  A    between atoms: C_9  and  C_11
REMARK    4  A    between atoms: N_15  and  N_16
REMARK    5  A    between atoms: C_17  and  C_19
REMARK    6  A    between atoms: C_21  and  C_25
REMARK                            x       y       z     vdW  Elec       q    Type
REMARK                         _______ _______ _______ _____ _____    ______ ____
ROOT
ATOM      1  N   UNL     1      -3.180  -3.451   1.244  0.00  0.00    -0.228 N 
ATOM      2  C   UNL     1      -4.444  -3.917   1.253  0.00  0.00    +0.278 C 
ATOM      3  O   UNL     1      -4.680  -5.026   1.695  0.00  0.00    -0.267 OA
ATOM      4  H   UNL     1      -2.992  -2.567   0.892  0.00  0.00    +0.173 HD
ENDROOT
BRANCH   1   8
ATOM      5  N   UNL     1      -0.612  -2.548   1.244  0.00  0.00    -0.295 N 
ATOM      6  C   UNL     1      -0.873  -3.776   1.733  0.00  0.00    +0.316 C 
ATOM      7  O   UNL     1       0.032  -4.463   2.165  0.00  0.00    -0.251 OA
ATOM      8  N   UNL     1      -2.137  -4.243   1.742  0.00  0.00    -0.218 N 
ATOM      9  H   UNL     1      -1.333  -2.000   0.898  0.00  0.00    +0.151 HD
ATOM     10  H   UNL     1      -2.325  -5.127   2.094  0.00  0.00    +0.174 HD
BRANCH   5  16
ATOM     11  C   UNL     1      -0.019   1.526   0.010  0.00  0.00    +0.008 C 
ATOM     12  C   UNL     1       0.002  -0.004   0.002  0.00  0.00    -0.009 C 
ATOM     13  C   UNL     1       0.718  -0.497  -1.257  0.00  0.00    +0.003 C 
ATOM     14  C   UNL     1       0.739  -2.027  -1.265  0.00  0.00    +0.002 C 
ATOM     15  C   UNL     1       1.479  -2.534  -0.026  0.00  0.00    +0.022 C 
ATOM     16  C   UNL     1       0.763  -2.041   1.233  0.00  0.00    +0.078 C 
ATOM     17  C   UNL     1       0.742  -0.511   1.242  0.00  0.00    +0.009 C 
ATOM     18  C   UNL     1       0.026  -0.018   2.500  0.00  0.00    +0.009 C 
ENDBRANCH   5  16
ENDBRANCH   1   8
BRANCH   2  19
ATOM     19  C   UNL     1      -5.540  -3.085   0.730  0.00  0.00    +0.122 A 
ATOM     20  C   UNL     1      -6.880  -3.419   0.677  0.00  0.00    +0.062 A 
ATOM     21  C   UNL     1      -7.517  -2.306   0.098  0.00  0.00    +0.093 A 
ATOM     22  N   UNL     1      -6.591  -1.406  -0.157  0.00  0.00    -0.173 NA
ATOM     23  N   UNL     1      -5.433  -1.828   0.205  0.00  0.00    -0.272 N 
ATOM     24  H   UNL     1      -4.606  -1.329   0.116  0.00  0.00    +0.189 HD
BRANCH  21  25
ATOM     25  C   UNL     1      -8.970  -2.172  -0.175  0.00  0.00    +0.002 A 
ATOM     26  C   UNL     1      -9.842  -3.208   0.153  0.00  0.00    +0.010 A 
ATOM     27  C   UNL     1     -11.192  -3.077  -0.103  0.00  0.00    +0.001 A 
ATOM     28  C   UNL     1     -11.679  -1.921  -0.685  0.00  0.00    +0.000 A 
ATOM     29  C   UNL     1     -10.818  -0.889  -1.012  0.00  0.00    +0.001 A 
ATOM     30  C   UNL     1      -9.467  -1.007  -0.755  0.00  0.00    +0.010 A 
ENDBRANCH  21  25
ENDBRANCH   2  19
TORSDOF 4
