REMARK  Name = ZINC39990702
REMARK  7 active torsions:
REMARK  status: ('A' for Active; 'I' for Inactive)
REMARK    1  A    between atoms: C_1  and  C_2
REMARK    2  A    between atoms: C_2  and  C_4
REMARK    3  A    between atoms: C_2  and  S_16
REMARK    4  A    between atoms: N_6  and  C_7
REMARK    5  A    between atoms: S_16  and  C_17
REMARK    6  A    between atoms: C_21  and  C_26
REMARK    7  A    between atoms: N_22  and  C_23
REMARK                            x       y       z     vdW  Elec       q    Type
REMARK                         _______ _______ _______ _____ _____    ______ ____
ROOT
ATOM      1  C   UNL     1      -2.447  -0.042  -0.825  0.00  0.00    +0.238 C 
ATOM      2  N   UNL     1      -2.177  -0.734  -2.096  0.00  0.00    -0.237 N 
ATOM      3  N   UNL     1      -1.897   0.262  -3.039  0.00  0.00    -0.169 NA
ATOM      4  C   UNL     1      -1.962   1.453  -2.505  0.00  0.00    +0.147 C 
ATOM      5  N   UNL     1      -2.294   1.386  -1.147  0.00  0.00    -0.282 N 
ATOM      6  H   UNL     1      -2.191  -1.691  -2.250  0.00  0.00    +0.171 HD
ENDROOT
BRANCH   4   7
ATOM      7  C   UNL     1      -1.728   2.647  -3.204  0.00  0.00    +0.022 C 
ATOM      8  C   UNL     1      -1.498   2.793  -4.572  0.00  0.00    +0.006 A 
ATOM      9  C   UNL     1      -1.428   1.863  -5.631  0.00  0.00    +0.010 A 
ATOM     10  C   UNL     1      -1.185   2.297  -6.895  0.00  0.00    +0.001 A 
ATOM     11  C   UNL     1      -1.000   3.652  -7.179  0.00  0.00    +0.002 A 
ATOM     12  C   UNL     1      -1.054   4.600  -6.211  0.00  0.00    +0.026 A 
ATOM     13  C   UNL     1      -1.304   4.222  -4.867  0.00  0.00    +0.043 A 
ATOM     14  N   UNL     1      -1.404   4.938  -3.764  0.00  0.00    -0.380 N 
ATOM     15  C   UNL     1      -1.681   4.047  -2.632  0.00  0.00    +0.152 C 
ATOM     16  H   UNL     1      -1.313   5.902  -3.710  0.00  0.00    +0.160 HD
ENDBRANCH   4   7
BRANCH   5  17
ATOM     17  C   UNL     1      -2.458   2.514  -0.226  0.00  0.00    +0.078 C 
ATOM     18  C   UNL     1      -2.764   2.191   1.239  0.00  0.00    +0.024 C 
ATOM     19  C   UNL     1      -3.858   2.768   0.338  0.00  0.00    +0.024 C 
ENDBRANCH   5  17
BRANCH   1  20
ATOM     20  S   UNL     1      -1.242  -0.540   0.436  0.00  0.00    -0.106 S 
BRANCH  20  22
ATOM     21  C   UNL     1       0.613   1.273  -0.430  0.00  0.00    +0.029 C 
ATOM     22  C   UNL     1       0.365  -0.234  -0.347  0.00  0.00    +0.133 C 
BRANCH  22  23
ATOM     23  C   UNL     1       1.454  -0.878   0.473  0.00  0.00    +0.230 C 
ATOM     24  O   UNL     1       1.252  -1.161   1.635  0.00  0.00    -0.274 OA
ATOM     25  N   UNL     1       2.652  -1.140  -0.086  0.00  0.00    -0.285 N 
ATOM     26  H   UNL     1       2.833  -0.863  -0.998  0.00  0.00    +0.155 HD
BRANCH  25  27
ATOM     27  C   UNL     1       3.635  -1.813   0.649  0.00  0.00    +0.034 A 
ATOM     28  C   UNL     1       3.275  -2.818   1.538  0.00  0.00    +0.023 A 
ATOM     29  C   UNL     1       4.247  -3.478   2.259  0.00  0.00    +0.006 A 
ATOM     30  C   UNL     1       5.583  -3.143   2.102  0.00  0.00    -0.044 A 
ATOM     31  C   UNL     1       5.945  -2.143   1.219  0.00  0.00    -0.042 A 
ATOM     32  C   UNL     1       4.973  -1.482   0.489  0.00  0.00    +0.027 A 
ATOM     33  C   UNL     1       7.448  -1.969   1.231  0.00  0.00    +0.036 C 
ATOM     34  C   UNL     1       7.925  -2.659   2.526  0.00  0.00    +0.009 C 
ATOM     35  C   UNL     1       6.819  -3.709   2.768  0.00  0.00    +0.036 C 
ENDBRANCH  25  27
ENDBRANCH  22  23
ENDBRANCH  20  22
ENDBRANCH   1  20
TORSDOF 6
