REMARK  Name = ZINC09464896
REMARK  19 active torsions:
REMARK  status: ('A' for Active; 'I' for Inactive)
REMARK    1  A    between atoms: C_1  and  C_2
REMARK    2  A    between atoms: C_2  and  N_81
REMARK    3  A    between atoms: C_3  and  C_4
REMARK    4  A    between atoms: C_3  and  N_81
REMARK    5  A    between atoms: C_5  and  C_6
REMARK    6  A    between atoms: C_5  and  N_81
REMARK    7  A    between atoms: C_6  and  C_7
REMARK    8  A    between atoms: C_7  and  N_8
REMARK    9  A    between atoms: C_9  and  C_29
REMARK   10  A    between atoms: C_11  and  C_16
REMARK   11  A    between atoms: C_12  and  O_15
REMARK   12  A    between atoms: C_16  and  C_18
REMARK   13  A    between atoms: C_25  and  C_28
REMARK   14  A    between atoms: C_33  and  O_35
REMARK   15  A    between atoms: O_35  and  C_36
REMARK   16  A    between atoms: C_36  and  C_37
REMARK   17  A    between atoms: C_37  and  C_38
REMARK   18  A    between atoms: C_38  and  C_39
REMARK   19  A    between atoms: C_38  and  C_40
REMARK                            x       y       z     vdW  Elec       q    Type
REMARK                         _______ _______ _______ _____ _____    ______ ____
ROOT
ATOM      1  N   UNL     1       1.580   1.125   0.365  0.00  0.00    -0.284 N 
ATOM      2  C   UNL     1       1.175  -0.284   0.444  0.00  0.00    +0.145 C 
ATOM      3  C   UNL     1      -0.317  -0.280   0.685  0.00  0.00    +0.071 C 
ATOM      4  C   UNL     1      -0.701   1.017   0.736  0.00  0.00    +0.188 C 
ATOM      5  C   UNL     1       0.481   1.881   0.537  0.00  0.00    +0.282 C 
ATOM      6  O   UNL     1       0.463   3.096   0.529  0.00  0.00    -0.267 OA
ENDROOT
BRANCH   2   7
ATOM      7  C   UNL     1       1.488  -0.986  -0.853  0.00  0.00    -0.019 A 
ATOM      8  C   UNL     1       2.082  -2.234  -0.836  0.00  0.00    +0.006 A 
ATOM      9  C   UNL     1       2.370  -2.881  -2.024  0.00  0.00    +0.004 A 
ATOM     10  C   UNL     1       2.066  -2.280  -3.230  0.00  0.00    +0.045 A 
ATOM     11  C   UNL     1       1.470  -1.028  -3.249  0.00  0.00    +0.121 A 
ATOM     12  C   UNL     1       1.176  -0.384  -2.056  0.00  0.00    +0.051 A 
BRANCH  11  13
ATOM     13  O   UNL     1       1.169  -0.436  -4.435  0.00  0.00    -0.492 OA
BRANCH  13  14
ATOM     14  C   UNL     1       1.494  -1.160  -5.623  0.00  0.00    +0.229 C 
BRANCH  14  15
ATOM     15  C   UNL     1       1.085  -0.340  -6.848  0.00  0.00    +0.044 C 
BRANCH  15  16
ATOM     16  C   UNL     1       1.433  -1.115  -8.120  0.00  0.00    -0.014 C 
ATOM     17  C   UNL     1       0.591  -2.391  -8.187  0.00  0.00    +0.007 C 
ATOM     18  C   UNL     1       1.139  -0.245  -9.344  0.00  0.00    +0.007 C 
ENDBRANCH  15  16
ENDBRANCH  14  15
ENDBRANCH  13  14
ENDBRANCH  11  13
ENDBRANCH   2   7
BRANCH   4  19
ATOM     19  O   UNL     1      -1.967   1.452   0.932  0.00  0.00    -0.502 OA
ATOM     20  H   UNL     1      -1.980   2.452   0.927  0.00  0.00    +0.292 HD
ENDBRANCH   4  19
BRANCH   3  21
ATOM     21  C   UNL     1      -1.181  -1.455   0.836  0.00  0.00    +0.195 C 
ATOM     22  O   UNL     1      -2.018  -1.707  -0.011  0.00  0.00    -0.287 OA
BRANCH  21  23
ATOM     23  C   UNL     1      -1.037  -2.331   2.014  0.00  0.00    +0.023 A 
ATOM     24  C   UNL     1      -0.135  -2.002   3.031  0.00  0.00    +0.015 A 
ATOM     25  C   UNL     1      -0.003  -2.818   4.129  0.00  0.00    +0.046 A 
ATOM     26  C   UNL     1      -0.757  -3.989   4.235  0.00  0.00    +0.124 A 
ATOM     27  C   UNL     1      -1.654  -4.311   3.220  0.00  0.00    -0.002 A 
ATOM     28  C   UNL     1      -1.797  -3.501   2.121  0.00  0.00    +0.019 A 
ATOM     29  C   UNL     1      -2.329  -5.609   3.620  0.00  0.00    +0.083 C 
ATOM     30  C   UNL     1      -1.976  -5.701   5.123  0.00  0.00    +0.175 C 
ATOM     31  O   UNL     1      -0.766  -4.931   5.215  0.00  0.00    -0.488 OA
ATOM     32  C   UNL     1      -1.726  -7.154   5.533  0.00  0.00    +0.052 C 
ENDBRANCH  21  23
ENDBRANCH   3  21
BRANCH   1  33
ATOM     33  C   UNL     1       2.941   1.619   0.141  0.00  0.00    +0.107 C 
BRANCH  33  34
ATOM     34  C   UNL     1       3.179   1.795  -1.360  0.00  0.00    +0.000 C 
BRANCH  34  35
ATOM     35  C   UNL     1       4.601   2.305  -1.595  0.00  0.00    -0.077 C 
BRANCH  35  36
ATOM     36  N   UNL     1       4.785   2.549  -3.041  0.00  0.00    +0.379 N 
ATOM     37  H   UNL     1       4.349   1.782  -3.567  0.00  0.00    -0.082 HD
BRANCH  36  39
ATOM     38  C   UNL     1       4.146   3.939  -4.950  0.00  0.00    -0.017 C 
ATOM     39  C   UNL     1       4.138   3.821  -3.425  0.00  0.00    -0.082 C 
ENDBRANCH  36  39
BRANCH  36  40
ATOM     40  C   UNL     1       6.225   2.596  -3.367  0.00  0.00    -0.082 C 
ATOM     41  C   UNL     1       6.765   1.165  -3.414  0.00  0.00    -0.017 C 
ENDBRANCH  36  40
ENDBRANCH  35  36
ENDBRANCH  34  35
ENDBRANCH  33  34
ENDBRANCH   1  33
TORSDOF 14
