REMARK  Name = ZINC13638401
REMARK  4 active torsions:
REMARK  status: ('A' for Active; 'I' for Inactive)
REMARK    1  A    between atoms: C_4  and  N_7
REMARK    2  A    between atoms: N_7  and  S_8
REMARK    3  A    between atoms: S_8  and  C_11
REMARK    4  A    between atoms: C_24  and  C_27
REMARK                            x       y       z     vdW  Elec       q    Type
REMARK                         _______ _______ _______ _____ _____    ______ ____
ROOT
ATOM      1  C   UNL     1      -1.554   2.756   1.351  0.00  0.00    +0.109 A 
ATOM      2  C   UNL     1      -0.182   2.609   1.450  0.00  0.00    +0.030 A 
ATOM      3  C   UNL     1       0.559   3.554   2.130  0.00  0.00    +0.025 A 
ATOM      4  C   UNL     1      -0.073   4.644   2.716  0.00  0.00    +0.031 A 
ATOM      5  C   UNL     1      -1.448   4.792   2.624  0.00  0.00    -0.018 A 
ATOM      6  C   UNL     1      -2.183   3.835   1.937  0.00  0.00    +0.034 A 
ATOM      7  C   UNL     1      -2.166   5.928   3.251  0.00  0.00    +0.049 C 
ATOM      8  C   UNL     1      -2.602   6.949   2.197  0.00  0.00    -0.023 C 
ATOM      9  C   UNL     1      -2.504   8.167   2.671  0.00  0.00    -0.030 C 
ATOM     10  C   UNL     1      -2.001   8.142   4.101  0.00  0.00    +0.033 C 
ATOM     11  C   UNL     1      -1.292   6.760   4.209  0.00  0.00    +0.029 C 
ATOM     12  C   UNL     1       0.114   6.923   3.625  0.00  0.00    +0.105 C 
ATOM     13  N   UNL     1       0.692   5.594   3.400  0.00  0.00    -0.336 N 
ATOM     14  H   UNL     1       1.583   5.380   3.718  0.00  0.00    +0.147 HD
ENDROOT
BRANCH  12  15
ATOM     15  C   UNL     1       0.034   7.667   2.316  0.00  0.00    -0.027 A 
ATOM     16  C   UNL     1      -0.336   6.999   1.164  0.00  0.00    +0.006 A 
ATOM     17  C   UNL     1      -0.415   7.681  -0.036  0.00  0.00    +0.015 A 
ATOM     18  C   UNL     1      -0.113   9.030  -0.085  0.00  0.00    +0.018 A 
ATOM     19  C   UNL     1       0.262   9.697   1.068  0.00  0.00    +0.015 A 
ATOM     20  C   UNL     1       0.335   9.015   2.268  0.00  0.00    +0.006 A 
ATOM     21 BR   UNL     1      -0.213   9.963  -1.727  0.00  0.00    -0.050 Br
ENDBRANCH  12  15
BRANCH   1  22
ATOM     22  S   UNL     1      -2.504   1.556   0.477  0.00  0.00    +0.072 S 
ATOM     23  O   UNL     1      -3.636   2.236  -0.045  0.00  0.00    -0.150 OA
ATOM     24  O   UNL     1      -1.595   0.842  -0.350  0.00  0.00    -0.150 OA
BRANCH  22  25
ATOM     25  N   UNL     1      -3.075   0.475   1.595  0.00  0.00    -0.216 N 
ATOM     26  H   UNL     1      -4.030   0.380   1.733  0.00  0.00    +0.174 HD
BRANCH  25  30
ATOM     27  C   UNL     1      -0.410  -1.833   3.810  0.00  0.00    +0.000 A 
ATOM     28  C   UNL     1      -1.049  -0.759   4.401  0.00  0.00    +0.002 A 
ATOM     29  C   UNL     1      -1.933   0.009   3.670  0.00  0.00    +0.024 A 
ATOM     30  C   UNL     1      -2.180  -0.299   2.338  0.00  0.00    +0.048 A 
ATOM     31  C   UNL     1      -1.541  -1.382   1.748  0.00  0.00    +0.024 A 
ATOM     32  C   UNL     1      -0.654  -2.143   2.484  0.00  0.00    +0.002 A 
ENDBRANCH  25  30
ENDBRANCH  22  25
ENDBRANCH   1  22
TORSDOF 4
