REMARK  Name = ZINC23219043
REMARK  10 active torsions:
REMARK  status: ('A' for Active; 'I' for Inactive)
REMARK    1  A    between atoms: C_1  and  C_2
REMARK    2  A    between atoms: C_2  and  O_3
REMARK    3  A    between atoms: O_3  and  C_4
REMARK    4  A    between atoms: C_4  and  C_6
REMARK    5  A    between atoms: C_7  and  C_24
REMARK    6  A    between atoms: N_8  and  C_23
REMARK    7  A    between atoms: C_12  and  C_14
REMARK    8  A    between atoms: C_17  and  C_20
REMARK    9  A    between atoms: C_20  and  C_21
REMARK   10  A    between atoms: C_20  and  C_22
REMARK                            x       y       z     vdW  Elec       q    Type
REMARK                         _______ _______ _______ _____ _____    ______ ____
ROOT
ATOM      1  C   UNL     1      -1.438   3.406   2.491  0.00  0.00    +0.078 C 
ATOM      2  C   UNL     1      -0.813   2.906   1.403  0.00  0.00    +0.024 C 
ATOM      3  N   UNL     1      -0.698   1.558   1.213  0.00  0.00    -0.262 N 
ATOM      4  C   UNL     1      -1.173   0.645   2.070  0.00  0.00    +0.307 C 
ATOM      5  O   UNL     1      -1.018  -0.534   1.817  0.00  0.00    -0.252 OA
ATOM      6  N   UNL     1      -1.816   0.990   3.203  0.00  0.00    -0.288 N 
ATOM      7  C   UNL     1      -1.997   2.421   3.498  0.00  0.00    +0.143 C 
ATOM      8  C   UNL     1      -0.013   1.086   0.008  0.00  0.00    +0.139 C 
ATOM      9  C   UNL     1      -0.239   3.850   0.379  0.00  0.00    +0.061 C 
ATOM     10  H   UNL     1      -2.202   0.231   3.900  0.00  0.00    +0.151 HD
ENDROOT
BRANCH   7  11
ATOM     11  C   UNL     1      -1.355   2.705   4.831  0.00  0.00    -0.022 A 
ATOM     12  C   UNL     1      -0.153   2.107   5.161  0.00  0.00    +0.006 A 
ATOM     13  C   UNL     1       0.438   2.372   6.382  0.00  0.00    +0.004 A 
ATOM     14  C   UNL     1      -0.178   3.226   7.278  0.00  0.00    -0.045 A 
ATOM     15  C   UNL     1      -1.382   3.819   6.950  0.00  0.00    +0.004 A 
ATOM     16  C   UNL     1      -1.971   3.559   5.727  0.00  0.00    +0.006 A 
BRANCH  14  17
ATOM     17  C   UNL     1       0.464   3.509   8.612  0.00  0.00    +0.013 C 
ATOM     18  C   UNL     1       0.617   2.202   9.392  0.00  0.00    +0.012 C 
ATOM     19  C   UNL     1       1.842   4.136   8.392  0.00  0.00    +0.012 C 
ENDBRANCH  14  17
ENDBRANCH   7  11
BRANCH   1  20
ATOM     20  C   UNL     1      -1.562   4.801   2.687  0.00  0.00    +0.339 C 
ATOM     21  O   UNL     1      -1.105   5.574   1.865  0.00  0.00    -0.245 OA
BRANCH  20  22
ATOM     22  O   UNL     1      -2.187   5.276   3.784  0.00  0.00    -0.462 OA
BRANCH  22  24
ATOM     23  C   UNL     1      -3.011   7.042   5.214  0.00  0.00    +0.048 C 
ATOM     24  C   UNL     1      -2.276   6.696   3.917  0.00  0.00    +0.229 C 
ENDBRANCH  22  24
ENDBRANCH  20  22
ENDBRANCH   1  20
TORSDOF 5
