REMARK  Name = ZINC03326447
REMARK  9 active torsions:
REMARK  status: ('A' for Active; 'I' for Inactive)
REMARK    1  A    between atoms: C_1  and  C_2
REMARK    2  A    between atoms: C_6  and  N_9
REMARK    3  A    between atoms: C_7  and  C_8
REMARK    4  A    between atoms: C_13  and  C_16
REMARK    5  A    between atoms: C_19  and  N_22
REMARK    6  A    between atoms: C_23  and  C_25
REMARK    7  A    between atoms: C_25  and  C_26
REMARK    8  A    between atoms: C_26  and  C_27
REMARK    9  A    between atoms: C_26  and  C_28
REMARK                            x       y       z     vdW  Elec       q    Type
REMARK                         _______ _______ _______ _____ _____    ______ ____
ROOT
ATOM      1  N   UNL     1      -9.845  -2.849   0.234  0.00  0.00    -0.292 N 
ATOM      2  C   UNL     1      -8.586  -2.369  -0.088  0.00  0.00    +0.180 C 
ATOM      3  N   UNL     1      -8.378  -1.096  -0.122  0.00  0.00    -0.159 NA
ATOM      4  N   UNL     1      -7.154  -0.521  -0.431  0.00  0.00    -0.234 N 
ATOM      5  C   UNL     1      -5.925  -1.187  -0.339  0.00  0.00    +0.062 C 
ATOM      6  C   UNL     1      -5.831  -2.518  -0.332  0.00  0.00    +0.073 C 
ATOM      7  S   UNL     1      -7.287  -3.504  -0.446  0.00  0.00    -0.059 S 
ATOM      8  H   UNL     1      -9.992  -3.803   0.327  0.00  0.00    +0.154 HD
ATOM      9  H   UNL     1      -7.151   0.400  -0.734  0.00  0.00    +0.174 HD
ENDROOT
BRANCH   1  15
ATOM     10  C   UNL     1     -14.632  -1.815  -0.188  0.00  0.00    +0.044 C 
ATOM     11  C   UNL     1     -13.236  -1.430   0.229  0.00  0.00    -0.046 A 
ATOM     12  C   UNL     1     -13.003  -0.193   0.802  0.00  0.00    +0.004 A 
ATOM     13  C   UNL     1     -11.723   0.164   1.186  0.00  0.00    +0.002 A 
ATOM     14  C   UNL     1     -10.674  -0.714   0.999  0.00  0.00    +0.023 A 
ATOM     15  C   UNL     1     -10.905  -1.957   0.424  0.00  0.00    +0.036 A 
ATOM     16  C   UNL     1     -12.191  -2.311   0.034  0.00  0.00    -0.026 A 
ATOM     17  C   UNL     1     -12.445  -3.656  -0.597  0.00  0.00    +0.046 C 
ENDBRANCH   1  15
BRANCH   5  18
ATOM     18  C   UNL     1      -4.688  -0.386  -0.239  0.00  0.00    -0.002 A 
ATOM     19  C   UNL     1      -4.755   1.010  -0.243  0.00  0.00    +0.011 A 
ATOM     20  C   UNL     1      -3.599   1.753  -0.151  0.00  0.00    +0.024 A 
ATOM     21  C   UNL     1      -2.367   1.117  -0.052  0.00  0.00    +0.033 A 
ATOM     22  C   UNL     1      -2.296  -0.271  -0.053  0.00  0.00    +0.024 A 
ATOM     23  C   UNL     1      -3.448  -1.022  -0.140  0.00  0.00    +0.011 A 
BRANCH  21  24
ATOM     24  N   UNL     1      -1.195   1.876   0.042  0.00  0.00    -0.285 N 
ATOM     25  C   UNL     1      -0.105   1.360   0.643  0.00  0.00    +0.217 C 
ATOM     26  O   UNL     1      -0.170   0.283   1.197  0.00  0.00    -0.275 OA
ATOM     27  H   UNL     1      -1.167   2.773  -0.326  0.00  0.00    +0.155 HD
BRANCH  25  28
ATOM     28  C   UNL     1       1.197   2.119   0.623  0.00  0.00    +0.099 C 
BRANCH  28  29
ATOM     29  C   UNL     1       2.267   1.316   1.365  0.00  0.00    -0.008 C 
ATOM     30  C   UNL     1       2.545   0.016   0.609  0.00  0.00    +0.008 C 
ATOM     31  C   UNL     1       3.553   2.140   1.454  0.00  0.00    +0.008 C 
ENDBRANCH  28  29
ENDBRANCH  25  28
ENDBRANCH  21  24
ENDBRANCH   5  18
TORSDOF 5
