REMARK  Name = ZINC08798775
REMARK  13 active torsions:
REMARK  status: ('A' for Active; 'I' for Inactive)
REMARK    1  A    between atoms: C_1  and  C_2
REMARK    2  A    between atoms: C_2  and  C_3
REMARK    3  A    between atoms: C_2  and  C_4
REMARK    4  A    between atoms: C_2  and  C_5
REMARK    5  A    between atoms: C_8  and  S_11
REMARK    6  A    between atoms: S_11  and  N_14
REMARK    7  A    between atoms: N_14  and  C_15
REMARK    8  A    between atoms: C_15  and  C_16
REMARK    9  A    between atoms: C_16  and  C_18
REMARK   10  A    between atoms: C_16  and  N_65
REMARK   11  A    between atoms: N_27  and  C_28
REMARK   12  A    between atoms: C_29  and  N_65
REMARK   13  A    between atoms: C_30  and  N_65
REMARK                            x       y       z     vdW  Elec       q    Type
REMARK                         _______ _______ _______ _____ _____    ______ ____
ROOT
ATOM      1  C   UNL     1       2.930  -1.651   5.753  0.00  0.00    +0.095 C 
ENDROOT
BRANCH   1   2
ATOM      2  N   UNL     1       3.886  -2.304   6.650  0.00  0.00    -0.191 NA
ATOM      3  H   UNL     1       4.698  -2.695   6.291  0.00  0.00    +0.148 HD
BRANCH   2   4
ATOM      4  S   UNL     1       3.581  -2.375   8.276  0.00  0.00    +0.058 S 
ATOM      5  O   UNL     1       4.665  -3.084   8.862  0.00  0.00    -0.153 OA
ATOM      6  O   UNL     1       3.223  -1.061   8.680  0.00  0.00    -0.153 OA
BRANCH   4  10
ATOM      7  C   UNL     1      -0.100  -4.949   8.837  0.00  0.00    -0.042 A 
ATOM      8  C   UNL     1       1.155  -5.529   8.838  0.00  0.00    +0.006 A 
ATOM      9  C   UNL     1       2.279  -4.742   8.667  0.00  0.00    +0.029 A 
ATOM     10  C   UNL     1       2.148  -3.377   8.494  0.00  0.00    +0.105 A 
ATOM     11  C   UNL     1       0.894  -2.797   8.498  0.00  0.00    +0.029 A 
ATOM     12  C   UNL     1      -0.231  -3.584   8.664  0.00  0.00    +0.006 A 
BRANCH   7  14
ATOM     13  C   UNL     1      -1.248  -6.519  10.375  0.00  0.00    +0.015 C 
ATOM     14  C   UNL     1      -1.325  -5.806   9.023  0.00  0.00    -0.013 C 
ATOM     15  C   UNL     1      -2.575  -4.925   8.982  0.00  0.00    +0.015 C 
ATOM     16  C   UNL     1      -1.397  -6.845   7.902  0.00  0.00    +0.015 C 
ENDBRANCH   7  14
ENDBRANCH   4  10
ENDBRANCH   2   4
ENDBRANCH   1   2
BRANCH   1  17
ATOM     17  C   UNL     1       3.596  -1.389   4.401  0.00  0.00    -0.023 C 
BRANCH  17  18
ATOM     18  C   UNL     1       2.578  -0.830   3.440  0.00  0.00    -0.059 A 
ATOM     19  C   UNL     1       1.348  -1.447   3.297  0.00  0.00    +0.004 A 
ATOM     20  C   UNL     1       0.421  -0.936   2.415  0.00  0.00    +0.023 A 
ATOM     21  C   UNL     1       0.713   0.203   1.662  0.00  0.00    +0.033 A 
ATOM     22  C   UNL     1       1.943   0.819   1.813  0.00  0.00    -0.026 A 
ATOM     23  C   UNL     1       2.872   0.298   2.700  0.00  0.00    +0.007 A 
ATOM     24  C   UNL     1       2.315   2.061   1.043  0.00  0.00    +0.038 C 
ATOM     25  C   UNL     1       1.348   2.249  -0.129  0.00  0.00    +0.024 C 
ATOM     26  C   UNL     1      -0.079   2.068   0.403  0.00  0.00    +0.105 C 
ATOM     27  N   UNL     1      -0.264   0.666   0.782  0.00  0.00    -0.333 N 
ATOM     28  C   UNL     1      -1.610   0.440   1.325  0.00  0.00    +0.129 C 
ENDBRANCH  17  18
BRANCH  17  31
ATOM     29  C   UNL     1       3.050  -3.568   3.498  0.00  0.00    -0.096 C 
ATOM     30  C   UNL     1       5.024  -2.397   2.726  0.00  0.00    -0.096 C 
ATOM     31  N   UNL     1       4.149  -2.660   3.888  0.00  0.00    +0.381 N 
ATOM     32  H   UNL     1       4.703  -3.105   4.629  0.00  0.00    -0.082 HD
ENDBRANCH  17  31
ENDBRANCH   1  17
TORSDOF 7
