REMARK  Name = ZINC22284764
REMARK  6 active torsions:
REMARK  status: ('A' for Active; 'I' for Inactive)
REMARK    1  A    between atoms: C_1  and  C_2
REMARK    2  A    between atoms: C_2  and  N_3
REMARK    3  A    between atoms: C_5  and  C_31
REMARK    4  A    between atoms: N_8  and  C_11
REMARK    5  A    between atoms: C_11  and  C_12
REMARK    6  A    between atoms: C_25  and  C_27
REMARK                            x       y       z     vdW  Elec       q    Type
REMARK                         _______ _______ _______ _____ _____    ______ ____
ROOT
ATOM      1  C   UNL     1      -1.706  -0.997  -1.407  0.00  0.00    +0.240 C 
ATOM      2  O   UNL     1      -1.037  -0.591  -2.334  0.00  0.00    -0.273 OA
ATOM      3  N   UNL     1      -2.850  -1.669  -1.646  0.00  0.00    -0.256 N 
ATOM      4  C   UNL     1      -3.633  -2.143  -0.585  0.00  0.00    +0.058 A 
ATOM      5  C   UNL     1      -3.211  -3.218   0.180  0.00  0.00    +0.025 A 
ATOM      6  C   UNL     1      -4.008  -3.687   1.208  0.00  0.00    +0.002 A 
ATOM      7  C   UNL     1      -5.226  -3.088   1.474  0.00  0.00    +0.002 A 
ATOM      8  C   UNL     1      -5.651  -2.008   0.722  0.00  0.00    +0.025 A 
ATOM      9  C   UNL     1      -4.853  -1.526  -0.303  0.00  0.00    +0.055 A 
ATOM     10  N   UNL     1      -5.236  -0.401  -1.042  0.00  0.00    -0.284 N 
ATOM     11  C   UNL     1      -5.180  -0.417  -2.392  0.00  0.00    +0.219 C 
ATOM     12  O   UNL     1      -5.436   0.591  -3.017  0.00  0.00    -0.275 OA
ATOM     13  C   UNL     1      -4.803  -1.677  -3.125  0.00  0.00    +0.128 C 
ATOM     14  C   UNL     1      -3.299  -1.912  -3.018  0.00  0.00    +0.194 C 
ATOM     15  H   UNL     1      -5.585   0.504  -0.524  0.00  0.00    +0.155 HD
ENDROOT
BRANCH  14  16
ATOM     16  C   UNL     1      -2.987  -3.358  -3.407  0.00  0.00    +0.409 C 
ATOM     17  F   UNL     1      -3.651  -4.229  -2.537  0.00  0.00    -0.169 F 
ATOM     18  F   UNL     1      -3.416  -3.592  -4.718  0.00  0.00    -0.169 F 
ATOM     19  F   UNL     1      -1.607  -3.576  -3.322  0.00  0.00    -0.169 F 
ENDBRANCH  14  16
BRANCH   1  20
ATOM     20  C   UNL     1      -1.260  -0.749   0.011  0.00  0.00    +0.226 C 
BRANCH  20  26
ATOM     21  N   UNL     1       2.353  -0.035  -0.021  0.00  0.00    -0.299 N 
ATOM     22  C   UNL     1       2.430   1.323  -0.015  0.00  0.00    +0.114 A 
ATOM     23  C   UNL     1       1.267   2.066   0.001  0.00  0.00    +0.132 A 
ATOM     24  C   UNL     1      -0.016   1.345   0.009  0.00  0.00    +0.274 A 
ATOM     25  O   UNL     1      -1.071   1.953   0.018  0.00  0.00    -0.266 OA
ATOM     26  N   UNL     1       0.002  -0.004   0.002  0.00  0.00    -0.251 N 
ATOM     27  C   UNL     1       1.170  -0.669  -0.013  0.00  0.00    +0.332 A 
ATOM     28  O   UNL     1       1.154  -1.885  -0.019  0.00  0.00    -0.246 OA
BRANCH  21  30
ATOM     29  C   UNL     1       4.004  -1.089  -1.485  0.00  0.00    +0.027 C 
ATOM     30  C   UNL     1       3.588  -0.822  -0.037  0.00  0.00    +0.123 C 
ENDBRANCH  21  30
BRANCH  23  31
ATOM     31  C   UNL     1       1.308   3.498   0.008  0.00  0.00    +0.106 C 
ATOM     32  N   UNL     1       1.340   4.633   0.013  0.00  0.00    -0.191 NA
ENDBRANCH  23  31
ENDBRANCH  20  26
ENDBRANCH   1  20
TORSDOF 5
