REMARK  Name = ZINC24570635
REMARK  5 active torsions:
REMARK  status: ('A' for Active; 'I' for Inactive)
REMARK    1  A    between atoms: C_1  and  C_2
REMARK    2  A    between atoms: C_2  and  C_4
REMARK    3  A    between atoms: C_2  and  O_19
REMARK    4  A    between atoms: N_6  and  C_7
REMARK    5  A    between atoms: O_19  and  C_20
REMARK                            x       y       z     vdW  Elec       q    Type
REMARK                         _______ _______ _______ _____ _____    ______ ____
ROOT
ATOM      1  C   UNL     1       2.345   5.234  -0.098  0.00  0.00    +0.258 C 
ATOM      2  O   UNL     1       1.290   5.833  -0.093  0.00  0.00    -0.271 OA
ATOM      3  N   UNL     1       2.357   3.890  -0.001  0.00  0.00    -0.281 N 
ATOM      4  H   UNL     1       3.314   3.354   0.088  0.00  0.00    +0.155 HD
ENDROOT
BRANCH   3   5
ATOM      5  C   UNL     1       1.152   3.176  -0.015  0.00  0.00    +0.056 A 
ATOM      6  C   UNL     1       0.029   3.723  -0.621  0.00  0.00    +0.072 A 
ATOM      7  C   UNL     1      -1.160   3.016  -0.633  0.00  0.00    +0.144 A 
ATOM      8  C   UNL     1      -1.226   1.754  -0.042  0.00  0.00    +0.077 A 
ATOM      9  C   UNL     1      -0.105   1.213   0.566  0.00  0.00    +0.048 A 
ATOM     10  C   UNL     1       1.083   1.921   0.577  0.00  0.00    +0.064 A 
ATOM     11 CL   UNL     1       2.490   1.240   1.333  0.00  0.00    -0.082 Cl
ATOM     12  N   UNL     1      -2.442   1.054  -0.055  0.00  0.00    -0.280 N 
ATOM     13  C   UNL     1      -3.415   1.450  -0.905  0.00  0.00    +0.255 C 
ATOM     14  O   UNL     1      -4.483   0.876  -0.917  0.00  0.00    -0.272 OA
ATOM     15  C   UNL     1      -3.167   2.608  -1.838  0.00  0.00    +0.325 C 
ATOM     16  O   UNL     1      -2.269   3.536  -1.223  0.00  0.00    -0.481 OA
ATOM     17  H   UNL     1      -2.591   0.197   0.619  0.00  0.00    +0.155 HD
ENDBRANCH   3   5
BRANCH   1  19
ATOM     18  C   UNL     1       4.331   5.632  -1.528  0.00  0.00    +0.062 C 
ATOM     19  C   UNL     1       3.642   5.994  -0.211  0.00  0.00    +0.256 C 
BRANCH  19  20
ATOM     20  O   UNL     1       3.376   7.398  -0.182  0.00  0.00    -0.479 OA
BRANCH  20  21
ATOM     21  C   UNL     1       4.383   8.208   0.239  0.00  0.00    +0.136 A 
ATOM     22  C   UNL     1       5.565   7.658   0.711  0.00  0.00    +0.048 A 
ATOM     23  C   UNL     1       6.589   8.483   1.135  0.00  0.00    +0.023 A 
ATOM     24  C   UNL     1       6.432   9.858   1.097  0.00  0.00    +0.042 A 
ATOM     25  C   UNL     1       5.252  10.409   0.632  0.00  0.00    +0.039 A 
ATOM     26  C   UNL     1       4.226   9.586   0.203  0.00  0.00    +0.061 A 
ATOM     27 BR   UNL     1       2.613  10.340  -0.434  0.00  0.00    -0.046 Br
ATOM     28 CL   UNL     1       7.718  10.892   1.636  0.00  0.00    -0.084 Cl
ENDBRANCH  20  21
ENDBRANCH  19  20
ENDBRANCH   1  19
TORSDOF 4
