REMARK  Name = ZINC16042028
REMARK  3 active torsions:
REMARK  status: ('A' for Active; 'I' for Inactive)
REMARK    1  A    between atoms: C_14  and  C_16
REMARK    2  A    between atoms: C_16  and  C_18
REMARK    3  A    between atoms: C_22  and  N_24
REMARK                            x       y       z     vdW  Elec       q    Type
REMARK                         _______ _______ _______ _____ _____    ______ ____
ROOT
ATOM      1  C   UNL     1      -3.194   3.644   0.049  0.00  0.00    +0.000 A 
ATOM      2  C   UNL     1      -3.515   2.299   0.046  0.00  0.00    +0.002 A 
ATOM      3  C   UNL     1      -2.519   1.345   0.033  0.00  0.00    +0.023 A 
ATOM      4  C   UNL     1      -1.181   1.730   0.017  0.00  0.00    +0.038 A 
ATOM      5  C   UNL     1      -0.869   3.087   0.026  0.00  0.00    -0.012 A 
ATOM      6  C   UNL     1      -1.867   4.035   0.039  0.00  0.00    +0.006 A 
ATOM      7  C   UNL     1       0.629   3.160   0.013  0.00  0.00    +0.071 C 
ATOM      8  C   UNL     1       1.157   3.952  -1.186  0.00  0.00    -0.046 C 
ATOM      9  C   UNL     1       0.088   4.963  -1.649  0.00  0.00    -0.016 C 
ATOM     10  C   UNL     1       0.929   6.229  -1.970  0.00  0.00    -0.020 C 
ATOM     11  C   UNL     1       1.989   6.177  -0.840  0.00  0.00    -0.076 C 
ATOM     12  C   UNL     1       2.532   4.406   0.715  0.00  0.00    +0.052 C 
ATOM     13  C   UNL     1       1.166   3.921   1.243  0.00  0.00    +0.080 C 
ATOM     14  C   UNL     1       3.026   5.586   1.502  0.00  0.00    -0.027 A 
ATOM     15  C   UNL     1       2.523   6.846   1.740  0.00  0.00    +0.004 A 
ATOM     16  C   UNL     1       3.228   7.735   2.530  0.00  0.00    +0.000 A 
ATOM     17  C   UNL     1       4.439   7.356   3.081  0.00  0.00    +0.002 A 
ATOM     18  C   UNL     1       4.947   6.095   2.846  0.00  0.00    +0.023 A 
ATOM     19  C   UNL     1       4.243   5.193   2.051  0.00  0.00    +0.036 A 
ATOM     20  N   UNL     1       4.542   3.882   1.673  0.00  0.00    -0.286 N 
ATOM     21  C   UNL     1       3.587   3.349   0.888  0.00  0.00    +0.212 C 
ATOM     22  O   UNL     1       3.579   2.233   0.412  0.00  0.00    -0.277 OA
ATOM     23  C   UNL     1       1.097   1.734   0.001  0.00  0.00    +0.227 C 
ATOM     24  O   UNL     1       2.247   1.347  -0.012  0.00  0.00    -0.275 OA
ATOM     25  N   UNL     1      -0.011   0.966   0.007  0.00  0.00    -0.285 N 
ATOM     26  H   UNL     1       5.346   3.411   1.944  0.00  0.00    +0.155 HD
ATOM     27  H   UNL     1       0.002  -0.004   0.002  0.00  0.00    +0.155 HD
ATOM     28  N   UNL     1       2.302   4.735  -0.698  0.00  0.00    +0.395 N 
ATOM     29  H   UNL     1       3.140   4.508  -1.246  0.00  0.00    -0.079 HD
ENDROOT
BRANCH  13  30
ATOM     30  C   UNL     1       1.337   2.996   2.421  0.00  0.00    +0.167 C 
ATOM     31  O   UNL     1       1.599   1.826   2.240  0.00  0.00    -0.292 OA
BRANCH  30  32
ATOM     32  C   UNL     1       1.188   3.514   3.790  0.00  0.00    +0.020 A 
ATOM     33  C   UNL     1       0.892   4.865   4.003  0.00  0.00    +0.011 A 
ATOM     34  C   UNL     1       0.749   5.341   5.288  0.00  0.00    +0.003 A 
ATOM     35  C   UNL     1       0.906   4.489   6.368  0.00  0.00    +0.033 A 
ATOM     36  C   UNL     1       1.204   3.153   6.166  0.00  0.00    +0.127 A 
ATOM     37  C   UNL     1       1.345   2.660   4.886  0.00  0.00    +0.044 A 
BRANCH  36  38
ATOM     38  N   UNL     1       1.371   2.250   7.327  0.00  0.00    +0.056 N 
ATOM     39  O   UNL     1       1.633   1.074   7.151  0.00  0.00    -0.126 OA
ATOM     40  O   UNL     1       1.246   2.684   8.459  0.00  0.00    -0.126 OA
ENDBRANCH  36  38
ENDBRANCH  30  32
ENDBRANCH  13  30
TORSDOF 3
