REMARK  Name = ZINC09224533
REMARK  9 active torsions:
REMARK  status: ('A' for Active; 'I' for Inactive)
REMARK    1  A    between atoms: C_1  and  C_2
REMARK    2  A    between atoms: C_2  and  O_3
REMARK    3  A    between atoms: O_3  and  C_4
REMARK    4  A    between atoms: C_4  and  C_6
REMARK    5  A    between atoms: C_9  and  C_12
REMARK    6  A    between atoms: C_12  and  N_13
REMARK    7  A    between atoms: C_29  and  C_31
REMARK    8  A    between atoms: C_34  and  O_37
REMARK    9  A    between atoms: O_37  and  C_38
REMARK                            x       y       z     vdW  Elec       q    Type
REMARK                         _______ _______ _______ _____ _____    ______ ____
ROOT
ATOM      1  N   UNL     1      -2.697  -0.056  -0.055  0.00  0.00    -0.299 N 
ATOM      2  C   UNL     1      -1.445  -0.551  -0.001  0.00  0.00    +0.303 C 
ATOM      3  O   UNL     1      -0.491   0.199  -0.076  0.00  0.00    -0.253 OA
ATOM      4  N   UNL     1      -1.250  -1.878   0.135  0.00  0.00    -0.273 N 
ATOM      5  C   UNL     1       0.104  -2.427   0.304  0.00  0.00    +0.115 C 
ATOM      6  C   UNL     1       0.443  -3.308  -0.898  0.00  0.00    +0.056 C 
ATOM      7  C   UNL     1      -0.736  -4.195  -1.204  0.00  0.00    -0.015 A 
ATOM      8  C   UNL     1      -0.766  -5.404  -2.004  0.00  0.00    +0.003 A 
ATOM      9  C   UNL     1       0.223  -6.104  -2.701  0.00  0.00    +0.010 A 
ATOM     10  C   UNL     1      -0.172  -7.237  -3.369  0.00  0.00    +0.001 A 
ATOM     11  C   UNL     1      -1.486  -7.676  -3.359  0.00  0.00    +0.002 A 
ATOM     12  C   UNL     1      -2.485  -7.004  -2.676  0.00  0.00    +0.026 A 
ATOM     13  C   UNL     1      -2.113  -5.850  -1.989  0.00  0.00    +0.047 A 
ATOM     14  N   UNL     1      -2.825  -4.966  -1.231  0.00  0.00    -0.356 N 
ATOM     15  H   UNL     1      -3.777  -5.027  -1.050  0.00  0.00    +0.166 HD
ATOM     16  C   UNL     1      -1.995  -3.982  -0.764  0.00  0.00    +0.046 A 
ATOM     17  C   UNL     1      -2.386  -2.815   0.114  0.00  0.00    +0.155 C 
ATOM     18  H   UNL     1      -3.457  -0.659  -0.068  0.00  0.00    +0.150 HD
ENDROOT
BRANCH  17  19
ATOM     19  C   UNL     1      -2.676  -3.299   1.511  0.00  0.00    -0.021 A 
ATOM     20  C   UNL     1      -1.731  -4.041   2.194  0.00  0.00    +0.009 A 
ATOM     21  C   UNL     1      -1.993  -4.482   3.477  0.00  0.00    +0.046 A 
ATOM     22  C   UNL     1      -3.210  -4.189   4.075  0.00  0.00    +0.120 A 
ATOM     23  C   UNL     1      -4.159  -3.450   3.385  0.00  0.00    +0.046 A 
ATOM     24  C   UNL     1      -3.890  -3.006   2.104  0.00  0.00    +0.009 A 
BRANCH  22  25
ATOM     25  O   UNL     1      -3.473  -4.627   5.335  0.00  0.00    -0.495 OA
ATOM     26  C   UNL     1      -2.449  -5.383   5.985  0.00  0.00    +0.277 C 
ENDBRANCH  22  25
ENDBRANCH  17  19
BRANCH   1  27
ATOM     27  C   UNL     1      -2.912   1.392  -0.094  0.00  0.00    +0.109 C 
BRANCH  27  31
ATOM     28  C   UNL     1      -6.715   2.958  -1.441  0.00  0.00    +0.098 C 
ATOM     29  C   UNL     1      -6.142   3.487  -0.124  0.00  0.00    +0.015 C 
ATOM     30  C   UNL     1      -4.642   3.195  -0.067  0.00  0.00    +0.006 C 
ATOM     31  C   UNL     1      -4.412   1.685  -0.152  0.00  0.00    +0.006 C 
ATOM     32  C   UNL     1      -4.985   1.155  -1.468  0.00  0.00    +0.006 C 
ATOM     33  C   UNL     1      -6.486   1.447  -1.526  0.00  0.00    +0.015 C 
BRANCH  28  34
ATOM     34  C   UNL     1      -8.193   3.245  -1.498  0.00  0.00    +0.310 C 
ATOM     35  O   UNL     1      -8.733   3.816  -0.579  0.00  0.00    -0.251 OA
BRANCH  34  36
ATOM     36  O   UNL     1      -8.909   2.869  -2.568  0.00  0.00    -0.465 OA
BRANCH  36  38
ATOM     37  C   UNL     1     -10.972   2.676  -3.848  0.00  0.00    +0.048 C 
ATOM     38  C   UNL     1     -10.328   3.179  -2.554  0.00  0.00    +0.229 C 
ENDBRANCH  36  38
ENDBRANCH  34  36
ENDBRANCH  28  34
ENDBRANCH  27  31
ENDBRANCH   1  27
TORSDOF 7
