REMARK  Name = ZINC03012592
REMARK  10 active torsions:
REMARK  status: ('A' for Active; 'I' for Inactive)
REMARK    1  A    between atoms: C_1  and  O_2
REMARK    2  A    between atoms: O_2  and  C_3
REMARK    3  A    between atoms: C_6  and  C_11
REMARK    4  A    between atoms: C_8  and  O_9
REMARK    5  A    between atoms: O_9  and  C_10
REMARK    6  A    between atoms: C_14  and  C_37
REMARK    7  A    between atoms: C_18  and  C_21
REMARK    8  A    between atoms: N_23  and  C_24
REMARK    9  A    between atoms: C_24  and  C_25
REMARK   10  A    between atoms: C_25  and  C_26
REMARK                            x       y       z     vdW  Elec       q    Type
REMARK                         _______ _______ _______ _____ _____    ______ ____
ROOT
ATOM      1  C   UNL     1       2.507  -2.501  -4.386  0.00  0.00    +0.104 C 
ATOM      2  C   UNL     1       4.027  -2.487  -4.188  0.00  0.00    +0.063 C 
ATOM      3  C   UNL     1       4.710  -3.211  -5.354  0.00  0.00    +0.215 C 
ATOM      4  N   UNL     1       4.178  -2.685  -6.615  0.00  0.00    -0.238 N 
ATOM      5  C   UNL     1       3.006  -2.012  -6.713  0.00  0.00    +0.130 A 
ATOM      6  C   UNL     1       2.830  -1.670  -8.040  0.00  0.00    +0.096 A 
ATOM      7  C   UNL     1       3.955  -2.170  -8.743  0.00  0.00    +0.149 A 
ATOM      8  N   UNL     1       4.740  -2.767  -7.888  0.00  0.00    -0.177 NA
ATOM      9  N   UNL     1       2.187  -1.763  -5.624  0.00  0.00    -0.322 N 
ATOM     10  H   UNL     1       1.447  -1.137  -5.670  0.00  0.00    +0.148 HD
ENDROOT
BRANCH   1  14
ATOM     11  C   UNL     1       0.606  -0.608  -1.056  0.00  0.00    +0.162 A 
ATOM     12  C   UNL     1       1.173   0.159  -2.062  0.00  0.00    +0.050 A 
ATOM     13  C   UNL     1       1.787  -0.456  -3.137  0.00  0.00    +0.009 A 
ATOM     14  C   UNL     1       1.837  -1.836  -3.212  0.00  0.00    -0.024 A 
ATOM     15  C   UNL     1       1.273  -2.606  -2.212  0.00  0.00    +0.054 A 
ATOM     16  C   UNL     1       0.662  -1.996  -1.129  0.00  0.00    +0.162 A 
BRANCH  11  18
ATOM     17  C   UNL     1      -0.017   1.425   0.010  0.00  0.00    +0.277 C 
ATOM     18  O   UNL     1       0.002  -0.004   0.002  0.00  0.00    -0.491 OA
ENDBRANCH  11  18
BRANCH  16  19
ATOM     19  O   UNL     1       0.112  -2.753  -0.142  0.00  0.00    -0.491 OA
ATOM     20  C   UNL     1       0.206  -4.171  -0.283  0.00  0.00    +0.277 C 
ENDBRANCH  16  19
ENDBRANCH   1  14
BRANCH   6  21
ATOM     21  C   UNL     1       1.698  -0.931  -8.611  0.00  0.00    +0.249 C 
ATOM     22  O   UNL     1       0.791  -0.556  -7.892  0.00  0.00    -0.270 OA
ATOM     23  N   UNL     1       1.663  -0.668  -9.933  0.00  0.00    -0.311 N 
ATOM     24  H   UNL     1       2.386  -0.967 -10.506  0.00  0.00    +0.149 HD
BRANCH  23  25
ATOM     25  C   UNL     1       0.533   0.069 -10.503  0.00  0.00    +0.109 C 
BRANCH  25  26
ATOM     26  C   UNL     1       0.738   0.232 -12.010  0.00  0.00    +0.056 C 
BRANCH  26  27
ATOM     27  C   UNL     1      -0.424   0.990 -12.597  0.00  0.00    -0.021 A 
ATOM     28  C   UNL     1      -1.522   0.460 -13.158  0.00  0.00    +0.087 A 
ATOM     29  N   UNL     1      -2.360   1.457 -13.578  0.00  0.00    -0.360 N 
ATOM     30  H   UNL     1      -3.216   1.320 -14.014  0.00  0.00    +0.165 HD
ATOM     31  C   UNL     1      -1.807   2.685 -13.290  0.00  0.00    +0.047 A 
ATOM     32  C   UNL     1      -0.573   2.446 -12.657  0.00  0.00    +0.003 A 
ATOM     33  C   UNL     1       0.216   3.520 -12.242  0.00  0.00    +0.010 A 
ATOM     34  C   UNL     1      -0.217   4.800 -12.449  0.00  0.00    +0.001 A 
ATOM     35  C   UNL     1      -1.435   5.041 -13.070  0.00  0.00    +0.002 A 
ATOM     36  C   UNL     1      -2.225   3.995 -13.496  0.00  0.00    +0.026 A 
ENDBRANCH  26  27
ENDBRANCH  25  26
ENDBRANCH  23  25
ENDBRANCH   6  21
BRANCH   3  37
ATOM     37  C   UNL     1       6.220  -2.972  -5.292  0.00  0.00    +0.412 C 
ATOM     38  F   UNL     1       6.721  -3.464  -4.082  0.00  0.00    -0.168 F 
ATOM     39  F   UNL     1       6.841  -3.633  -6.357  0.00  0.00    -0.168 F 
ATOM     40  F   UNL     1       6.479  -1.600  -5.381  0.00  0.00    -0.168 F 
ENDBRANCH   3  37
TORSDOF 8
