REMARK  Name = ZINC39676543
REMARK  9 active torsions:
REMARK  status: ('A' for Active; 'I' for Inactive)
REMARK    1  A    between atoms: C_1  and  O_2
REMARK    2  A    between atoms: O_2  and  C_3
REMARK    3  A    between atoms: C_6  and  C_9
REMARK    4  A    between atoms: C_9  and  C_10
REMARK    5  A    between atoms: C_9  and  N_18
REMARK    6  A    between atoms: C_13  and  O_16
REMARK    7  A    between atoms: O_16  and  C_17
REMARK    8  A    between atoms: C_19  and  C_21
REMARK    9  A    between atoms: C_32  and  C_34
REMARK                            x       y       z     vdW  Elec       q    Type
REMARK                         _______ _______ _______ _____ _____    ______ ____
ROOT
ATOM      1  N   UNL     1       4.690  -2.229   4.304  0.00  0.00    -0.304 N 
ATOM      2  C   UNL     1       4.551  -2.850   3.116  0.00  0.00    +0.219 C 
ATOM      3  O   UNL     1       3.794  -2.401   2.282  0.00  0.00    -0.275 OA
ATOM      4  H   UNL     1       5.296  -2.588   4.971  0.00  0.00    +0.150 HD
ENDROOT
BRANCH   2   5
ATOM      5  C   UNL     1       5.337  -4.102   2.824  0.00  0.00    +0.100 C 
ATOM      6  C   UNL     1       4.582  -4.986   1.806  0.00  0.00    +0.121 C 
ATOM      7  N   UNL     1       5.157  -4.616   0.490  0.00  0.00    -0.296 N 
ATOM      8  C   UNL     1       6.605  -4.443   0.757  0.00  0.00    +0.115 C 
ATOM      9  C   UNL     1       6.666  -3.751   2.133  0.00  0.00    -0.004 C 
ATOM     10  C   UNL     1       7.841  -4.289   2.944  0.00  0.00    -0.010 C 
ATOM     11  C   UNL     1       9.152  -3.878   2.268  0.00  0.00    -0.082 C 
ATOM     12  N   UNL     1       9.222  -2.414   2.181  0.00  0.00    +0.379 N 
ATOM     13  C   UNL     1       8.142  -1.912   1.323  0.00  0.00    -0.082 C 
ATOM     14  C   UNL     1       6.788  -2.240   1.958  0.00  0.00    -0.010 C 
ATOM     15  C   UNL     1       4.510  -4.471  -0.683  0.00  0.00    +0.249 C 
ATOM     16  O   UNL     1       5.138  -4.255  -1.701  0.00  0.00    -0.270 OA
ATOM     17  H   UNL     1       9.127  -2.019   3.105  0.00  0.00    -0.086 HD
ATOM     18  H   UNL     1      10.113  -2.144   1.792  0.00  0.00    -0.086 HD
BRANCH  15  19
ATOM     19  C   UNL     1       3.038  -4.576  -0.732  0.00  0.00    +0.072 A 
ATOM     20  C   UNL     1       2.369  -5.469   0.108  0.00  0.00    +0.016 A 
ATOM     21  C   UNL     1       0.994  -5.561   0.058  0.00  0.00    +0.001 A 
ATOM     22  C   UNL     1       0.275  -4.771  -0.823  0.00  0.00    +0.003 A 
ATOM     23  C   UNL     1       0.927  -3.885  -1.658  0.00  0.00    +0.039 A 
ATOM     24  C   UNL     1       2.305  -3.777  -1.615  0.00  0.00    +0.135 A 
ATOM     25  F   UNL     1       2.943  -2.906  -2.428  0.00  0.00    -0.205 F 
ENDBRANCH  15  19
ENDBRANCH   2   5
BRANCH   1  26
ATOM     26  C   UNL     1       3.926  -1.012   4.588  0.00  0.00    +0.134 C 
BRANCH  26  30
ATOM     27  C   UNL     1       0.055  -2.070   6.056  0.00  0.00    +0.120 A 
ATOM     28  C   UNL     1       0.197  -1.010   5.173  0.00  0.00    +0.046 A 
ATOM     29  C   UNL     1       1.450  -0.669   4.700  0.00  0.00    +0.009 A 
ATOM     30  C   UNL     1       2.561  -1.385   5.106  0.00  0.00    -0.023 A 
ATOM     31  C   UNL     1       2.422  -2.442   5.986  0.00  0.00    +0.009 A 
ATOM     32  C   UNL     1       1.173  -2.783   6.467  0.00  0.00    +0.046 A 
BRANCH  27  34
ATOM     33  C   UNL     1      -2.281  -1.629   6.059  0.00  0.00    +0.277 C 
ATOM     34  O   UNL     1      -1.176  -2.407   6.524  0.00  0.00    -0.495 OA
ENDBRANCH  27  34
ENDBRANCH  26  30
BRANCH  26  35
ATOM     35  C   UNL     1       4.651  -0.194   5.626  0.00  0.00    -0.023 A 
ATOM     36  C   UNL     1       5.270  -0.823   6.691  0.00  0.00    +0.009 A 
ATOM     37  C   UNL     1       5.935  -0.076   7.644  0.00  0.00    +0.046 A 
ATOM     38  C   UNL     1       5.982   1.306   7.532  0.00  0.00    +0.120 A 
ATOM     39  C   UNL     1       5.360   1.934   6.463  0.00  0.00    +0.046 A 
ATOM     40  C   UNL     1       4.701   1.182   5.510  0.00  0.00    +0.009 A 
BRANCH  38  41
ATOM     41  O   UNL     1       6.635   2.043   8.469  0.00  0.00    -0.495 OA
ATOM     42  C   UNL     1       6.642   3.460   8.289  0.00  0.00    +0.277 C 
ENDBRANCH  38  41
ENDBRANCH  26  35
ENDBRANCH   1  26
TORSDOF 7
