REMARK  Name = ZINC21841054
REMARK  5 active torsions:
REMARK  status: ('A' for Active; 'I' for Inactive)
REMARK    1  A    between atoms: C_4  and  C_7
REMARK    2  A    between atoms: C_7  and  C_9
REMARK    3  A    between atoms: C_7  and  N_16
REMARK    4  A    between atoms: C_17  and  C_19
REMARK    5  A    between atoms: C_19  and  C_20
REMARK                            x       y       z     vdW  Elec       q    Type
REMARK                         _______ _______ _______ _____ _____    ______ ____
ROOT
ATOM      1  N   UNL     1      -0.016   1.344   0.009  0.00  0.00    -0.304 N 
ATOM      2  C   UNL     1       0.002  -0.004   0.002  0.00  0.00    +0.220 C 
ATOM      3  O   UNL     1       1.060  -0.596  -0.011  0.00  0.00    -0.275 OA
ATOM      4  H   UNL     1      -0.976   1.881   0.021  0.00  0.00    +0.150 HD
ENDROOT
BRANCH   1   5
ATOM      5  C   UNL     1       1.242   2.093   0.001  0.00  0.00    +0.134 C 
BRANCH   5   6
ATOM      6  C   UNL     1       1.021   3.453   0.611  0.00  0.00    -0.023 A 
ATOM      7  C   UNL     1      -0.135   4.157   0.329  0.00  0.00    +0.007 A 
ATOM      8  C   UNL     1      -0.341   5.402   0.892  0.00  0.00    +0.020 A 
ATOM      9  C   UNL     1       0.614   5.949   1.730  0.00  0.00    +0.041 A 
ATOM     10  C   UNL     1       1.773   5.246   2.009  0.00  0.00    +0.020 A 
ATOM     11  C   UNL     1       1.976   3.999   1.449  0.00  0.00    +0.007 A 
ATOM     12 CL   UNL     1       0.359   7.516   2.433  0.00  0.00    -0.084 Cl
ENDBRANCH   5   6
BRANCH   5  16
ATOM     13  C   UNL     1       2.607   2.541  -4.022  0.00  0.00    +0.000 A 
ATOM     14  C   UNL     1       3.511   2.274  -3.011  0.00  0.00    +0.000 A 
ATOM     15  C   UNL     1       3.070   2.129  -1.709  0.00  0.00    +0.006 A 
ATOM     16  C   UNL     1       1.724   2.252  -1.418  0.00  0.00    -0.023 A 
ATOM     17  C   UNL     1       0.819   2.514  -2.429  0.00  0.00    +0.006 A 
ATOM     18  C   UNL     1       1.261   2.663  -3.731  0.00  0.00    +0.000 A 
ENDBRANCH   5  16
ENDBRANCH   1   5
BRANCH   2  19
ATOM     19  C   UNL     1      -1.293  -0.775   0.010  0.00  0.00    +0.153 C 
BRANCH  19  20
ATOM     20  C   UNL     1      -0.997  -2.253  -0.001  0.00  0.00    +0.078 A 
ATOM     21  C   UNL     1      -2.096  -3.219   0.011  0.00  0.00    +0.011 A 
ATOM     22  C   UNL     1      -3.433  -2.814   0.020  0.00  0.00    +0.010 A 
ATOM     23  C   UNL     1      -4.424  -3.755   0.023  0.00  0.00    +0.001 A 
ATOM     24  C   UNL     1      -4.122  -5.111   0.012  0.00  0.00    +0.001 A 
ATOM     25  C   UNL     1      -2.813  -5.539  -0.002  0.00  0.00    +0.014 A 
ATOM     26  C   UNL     1      -1.784  -4.597  -0.006  0.00  0.00    +0.050 A 
ATOM     27  C   UNL     1      -0.370  -4.990  -0.022  0.00  0.00    +0.272 A 
ATOM     28  O   UNL     1      -0.052  -6.165  -0.031  0.00  0.00    -0.266 OA
ATOM     29  N   UNL     1       0.572  -4.023  -0.025  0.00  0.00    -0.242 N 
ATOM     30  H   UNL     1       1.638  -4.293  -0.036  0.00  0.00    +0.192 HD
ATOM     31  N   UNL     1       0.234  -2.669  -0.015  0.00  0.00    -0.175 NA
ENDBRANCH  19  20
ENDBRANCH   2  19
TORSDOF 5
