REMARK  Name = ZINC09365577
REMARK  8 active torsions:
REMARK  status: ('A' for Active; 'I' for Inactive)
REMARK    1  A    between atoms: C_1  and  C_2
REMARK    2  A    between atoms: C_5  and  N_9
REMARK    3  A    between atoms: C_6  and  O_8
REMARK    4  A    between atoms: C_10  and  C_12
REMARK    5  A    between atoms: C_12  and  N_13
REMARK    6  A    between atoms: C_18  and  C_25
REMARK    7  A    between atoms: C_21  and  C_23
REMARK    8  A    between atoms: C_21  and  C_24
REMARK                            x       y       z     vdW  Elec       q    Type
REMARK                         _______ _______ _______ _____ _____    ______ ____
ROOT
ATOM      1  N   UNL     1       1.768   2.188  -6.027  0.00  0.00    -0.215 N 
ATOM      2  C   UNL     1       1.727   3.453  -6.493  0.00  0.00    +0.247 C 
ATOM      3  O   UNL     1       1.025   4.359  -6.097  0.00  0.00    -0.273 OA
ATOM      4  C   UNL     1       2.743   3.504  -7.611  0.00  0.00    +0.113 C 
ATOM      5  C   UNL     1       3.845   4.507  -7.290  0.00  0.00    +0.038 C 
ATOM      6  C   UNL     1       4.876   4.515  -8.422  0.00  0.00    -0.011 C 
ATOM      7  C   UNL     1       4.186   4.892  -9.735  0.00  0.00    +0.009 C 
ATOM      8  C   UNL     1       3.098   3.865 -10.055  0.00  0.00    -0.032 C 
ATOM      9  C   UNL     1       2.061   3.856  -8.929  0.00  0.00    +0.041 C 
ATOM     10  C   UNL     1       3.727   2.477 -10.181  0.00  0.00    +0.011 C 
ATOM     11  C   UNL     1       2.416   4.239 -11.373  0.00  0.00    +0.011 C 
ATOM     12  C   UNL     1       5.970   5.537  -8.108  0.00  0.00    +0.007 C 
ATOM     13  N   UNL     1       3.286   2.141  -7.662  0.00  0.00    -0.285 N 
ATOM     14  C   UNL     1       2.655   1.444  -6.698  0.00  0.00    +0.310 C 
ATOM     15  O   UNL     1       2.868   0.270  -6.463  0.00  0.00    -0.252 OA
ATOM     16  H   UNL     1       3.966   1.809  -8.269  0.00  0.00    +0.151 HD
ENDROOT
BRANCH   1  17
ATOM     17  C   UNL     1       0.938   1.688  -4.927  0.00  0.00    +0.214 C 
BRANCH  17  19
ATOM     18  N   UNL     1       1.089   1.498  -2.466  0.00  0.00    -0.281 N 
ATOM     19  C   UNL     1       1.664   1.886  -3.621  0.00  0.00    +0.235 C 
ATOM     20  O   UNL     1       2.765   2.394  -3.610  0.00  0.00    -0.274 OA
ATOM     21  H   UNL     1       0.247   1.017  -2.480  0.00  0.00    +0.155 HD
BRANCH  18  26
ATOM     22  C   UNL     1       3.599   2.685   2.488  0.00  0.00    +0.044 C 
ATOM     23  C   UNL     1       2.932   2.368   1.174  0.00  0.00    -0.047 A 
ATOM     24  C   UNL     1       3.191   3.149   0.063  0.00  0.00    +0.005 A 
ATOM     25  C   UNL     1       2.581   2.864  -1.144  0.00  0.00    +0.027 A 
ATOM     26  C   UNL     1       1.708   1.790  -1.243  0.00  0.00    +0.075 A 
ATOM     27  C   UNL     1       1.448   1.003  -0.123  0.00  0.00    +0.138 A 
ATOM     28  C   UNL     1       2.059   1.299   1.084  0.00  0.00    +0.050 A 
BRANCH  27  29
ATOM     29  O   UNL     1       0.593  -0.050  -0.214  0.00  0.00    -0.505 OA
ATOM     30  H   UNL     1       1.020  -0.884  -0.456  0.00  0.00    +0.292 HD
ENDBRANCH  27  29
ENDBRANCH  18  26
ENDBRANCH  17  19
ENDBRANCH   1  17
TORSDOF 4
