REMARK  Name = ZINC11787533
REMARK  7 active torsions:
REMARK  status: ('A' for Active; 'I' for Inactive)
REMARK    1  A    between atoms: C_4  and  C_7
REMARK    2  A    between atoms: C_7  and  C_8
REMARK    3  A    between atoms: N_10  and  C_11
REMARK    4  A    between atoms: C_20  and  O_22
REMARK    5  A    between atoms: C_27  and  C_28
REMARK    6  A    between atoms: C_27  and  N_69
REMARK    7  A    between atoms: C_33  and  C_34
REMARK                            x       y       z     vdW  Elec       q    Type
REMARK                         _______ _______ _______ _____ _____    ______ ____
ROOT
ATOM      1  C   UNL     1      -1.772  -4.379  -2.008  0.00  0.00    +0.133 C 
ATOM      2  C   UNL     1      -0.766  -5.323  -1.384  0.00  0.00    -0.021 A 
ATOM      3  C   UNL     1      -0.717  -6.707  -1.380  0.00  0.00    +0.006 A 
ATOM      4  C   UNL     1       0.312  -7.365  -0.735  0.00  0.00    +0.000 A 
ATOM      5  C   UNL     1       1.297  -6.640  -0.091  0.00  0.00    +0.000 A 
ATOM      6  C   UNL     1       1.250  -5.260  -0.093  0.00  0.00    +0.004 A 
ATOM      7  C   UNL     1       0.220  -4.597  -0.739  0.00  0.00    -0.034 A 
ATOM      8  C   UNL     1      -0.059  -3.121  -0.889  0.00  0.00    +0.021 C 
ATOM      9  C   UNL     1      -1.067  -3.005  -2.047  0.00  0.00    +0.149 C 
ATOM     10  C   UNL     1      -0.671  -2.563   0.393  0.00  0.00    -0.005 C 
ATOM     11  C   UNL     1      -0.918  -1.061   0.224  0.00  0.00    -0.077 C 
ATOM     12  C   UNL     1       0.916  -0.873  -1.352  0.00  0.00    -0.077 C 
ATOM     13  C   UNL     1       1.222  -2.369  -1.236  0.00  0.00    -0.005 C 
ATOM     14  N   UNL     1       0.371  -0.395  -0.063  0.00  0.00    +0.382 N 
ATOM     15  H   UNL     1       1.037  -0.622   0.685  0.00  0.00    -0.081 HD
ENDROOT
BRANCH   1  18
ATOM     16  C   UNL     1      -3.969  -5.208  -1.357  0.00  0.00    +0.218 C 
ATOM     17  O   UNL     1      -3.856  -6.078  -2.195  0.00  0.00    -0.275 OA
ATOM     18  N   UNL     1      -2.981  -4.308  -1.184  0.00  0.00    -0.306 N 
ATOM     19  H   UNL     1      -3.070  -3.612  -0.514  0.00  0.00    +0.149 HD
BRANCH  16  20
ATOM     20  C   UNL     1      -5.212  -5.134  -0.509  0.00  0.00    +0.130 C 
BRANCH  20  24
ATOM     21  C   UNL     1      -7.877  -8.286  -1.612  0.00  0.00    +0.000 A 
ATOM     22  C   UNL     1      -6.934  -8.492  -0.622  0.00  0.00    +0.000 A 
ATOM     23  C   UNL     1      -6.072  -7.472  -0.265  0.00  0.00    +0.004 A 
ATOM     24  C   UNL     1      -6.152  -6.246  -0.898  0.00  0.00    -0.039 A 
ATOM     25  C   UNL     1      -7.098  -6.038  -1.885  0.00  0.00    +0.004 A 
ATOM     26  C   UNL     1      -7.958  -7.059  -2.244  0.00  0.00    +0.000 A 
ENDBRANCH  20  24
ENDBRANCH  16  20
ENDBRANCH   1  18
BRANCH   9  27
ATOM     27  O   UNL     1      -0.392  -2.815  -3.292  0.00  0.00    -0.389 OA
ATOM     28  H   UNL     1      -0.985  -2.736  -4.053  0.00  0.00    +0.210 HD
ENDBRANCH   9  27
BRANCH  14  29
ATOM     29  C   UNL     1       0.182   1.070  -0.107  0.00  0.00    -0.042 C 
BRANCH  29  30
ATOM     30  C   UNL     1       1.534   1.733  -0.037  0.00  0.00    -0.053 A 
ATOM     31  C   UNL     1       2.080   2.311  -1.164  0.00  0.00    +0.002 A 
ATOM     32  C   UNL     1       3.318   2.924  -1.100  0.00  0.00    +0.000 A 
ATOM     33  C   UNL     1       4.022   2.954   0.091  0.00  0.00    +0.001 A 
ATOM     34  C   UNL     1       3.490   2.375   1.224  0.00  0.00    +0.012 A 
ATOM     35  C   UNL     1       2.238   1.759   1.168  0.00  0.00    +0.019 A 
BRANCH  35  36
ATOM     36  C   UNL     1       1.661   1.137   2.378  0.00  0.00    +0.135 A 
ATOM     37  C   UNL     1       2.250   0.176   3.139  0.00  0.00    +0.050 A 
ATOM     38  C   UNL     1       1.353  -0.118   4.186  0.00  0.00    +0.042 A 
ATOM     39  C   UNL     1       0.269   0.663   4.009  0.00  0.00    +0.196 A 
ATOM     40  O   UNL     1       0.459   1.420   2.916  0.00  0.00    -0.463 OA
ENDBRANCH  35  36
ENDBRANCH  29  30
ENDBRANCH  14  29
TORSDOF 7
