REMARK  Name = ZINC22357466
REMARK  7 active torsions:
REMARK  status: ('A' for Active; 'I' for Inactive)
REMARK    1  A    between atoms: C_1  and  C_2
REMARK    2  A    between atoms: C_3  and  C_27
REMARK    3  A    between atoms: C_4  and  C_21
REMARK    4  A    between atoms: C_10  and  C_11
REMARK    5  A    between atoms: C_16  and  O_17
REMARK    6  A    between atoms: C_27  and  O_29
REMARK    7  A    between atoms: O_29  and  C_30
REMARK                            x       y       z     vdW  Elec       q    Type
REMARK                         _______ _______ _______ _____ _____    ______ ____
ROOT
ATOM      1  C   UNL     1      -1.302  -3.166   1.304  0.00  0.00    +0.066 C 
ATOM      2  C   UNL     1      -0.292  -2.126   0.892  0.00  0.00    +0.053 C 
ATOM      3  C   UNL     1       1.017  -2.481   0.727  0.00  0.00    +0.085 C 
ATOM      4  C   UNL     1       1.998  -1.408   0.314  0.00  0.00    +0.162 C 
ATOM      5  N   UNL     1       1.459  -0.033   0.117  0.00  0.00    -0.275 N 
ATOM      6  C   UNL     1       2.166   1.045  -0.247  0.00  0.00    +0.268 A 
ATOM      7  O   UNL     1       3.364   0.969  -0.452  0.00  0.00    -0.266 OA
ATOM      8  C   UNL     1       1.453   2.321  -0.391  0.00  0.00    +0.081 A 
ATOM      9  C   UNL     1       1.932   3.543  -0.744  0.00  0.00    +0.032 C 
ATOM     10  S   UNL     1      -0.214   1.832   0.023  0.00  0.00    -0.046 S 
ATOM     11  C   UNL     1       0.108   0.107   0.336  0.00  0.00    +0.178 A 
ATOM     12  N   UNL     1      -0.682  -0.873   0.693  0.00  0.00    -0.228 NA
ENDROOT
BRANCH   9  13
ATOM     13  C   UNL     1       1.073   4.728  -0.634  0.00  0.00    +0.018 A 
ATOM     14  C   UNL     1      -0.082   4.690   0.157  0.00  0.00    +0.011 A 
ATOM     15  C   UNL     1      -0.880   5.808   0.259  0.00  0.00    +0.001 A 
ATOM     16  C   UNL     1      -0.552   6.967  -0.426  0.00  0.00    +0.004 A 
ATOM     17  C   UNL     1       0.582   7.017  -1.214  0.00  0.00    +0.046 A 
ATOM     18  C   UNL     1       1.401   5.905  -1.326  0.00  0.00    +0.124 A 
BRANCH  18  19
ATOM     19  O   UNL     1       2.514   5.953  -2.101  0.00  0.00    -0.506 OA
ATOM     20  H   UNL     1       2.768   6.877  -2.642  0.00  0.00    +0.292 HD
ENDBRANCH  18  19
ENDBRANCH   9  13
BRANCH   4  21
ATOM     21  C   UNL     1       2.643  -1.842  -0.977  0.00  0.00    -0.020 A 
ATOM     22  C   UNL     1       2.044  -1.539  -2.185  0.00  0.00    +0.006 A 
ATOM     23  C   UNL     1       2.637  -1.934  -3.369  0.00  0.00    +0.000 A 
ATOM     24  C   UNL     1       3.826  -2.640  -3.345  0.00  0.00    +0.000 A 
ATOM     25  C   UNL     1       4.422  -2.948  -2.137  0.00  0.00    +0.000 A 
ATOM     26  C   UNL     1       3.831  -2.549  -0.953  0.00  0.00    +0.006 A 
ENDBRANCH   4  21
BRANCH   3  27
ATOM     27  C   UNL     1       1.439  -3.804   0.934  0.00  0.00    +0.339 C 
ATOM     28  O   UNL     1       0.618  -4.678   1.153  0.00  0.00    -0.245 OA
BRANCH  27  29
ATOM     29  O   UNL     1       2.754  -4.108   0.892  0.00  0.00    -0.465 OA
ATOM     30  C   UNL     1       3.112  -5.474   1.112  0.00  0.00    +0.280 C 
ENDBRANCH  27  29
ENDBRANCH   3  27
TORSDOF 5
