REMARK  Name = ZINC23567362
REMARK  9 active torsions:
REMARK  status: ('A' for Active; 'I' for Inactive)
REMARK    1  A    between atoms: C_1  and  C_2
REMARK    2  A    between atoms: C_2  and  C_4
REMARK    3  A    between atoms: C_2  and  O_30
REMARK    4  A    between atoms: N_6  and  N_7
REMARK    5  A    between atoms: C_8  and  C_10
REMARK    6  A    between atoms: C_13  and  C_16
REMARK    7  A    between atoms: C_16  and  N_17
REMARK    8  A    between atoms: C_18  and  C_20
REMARK    9  A    between atoms: O_30  and  C_31
REMARK                            x       y       z     vdW  Elec       q    Type
REMARK                         _______ _______ _______ _____ _____    ______ ____
ROOT
ATOM      1  C   UNL     1      -4.603  -0.651  -0.448  0.00  0.00    +0.038 A 
ATOM      2  C   UNL     1      -4.125  -0.003   0.692  0.00  0.00    +0.013 A 
ATOM      3  C   UNL     1      -3.066   0.875   0.590  0.00  0.00    +0.006 A 
ATOM      4  C   UNL     1      -2.477   1.113  -0.640  0.00  0.00    -0.030 A 
ATOM      5  C   UNL     1      -2.950   0.479  -1.775  0.00  0.00    +0.006 A 
ATOM      6  C   UNL     1      -4.005  -0.406  -1.685  0.00  0.00    +0.013 A 
ENDROOT
BRANCH   1   8
ATOM      7  N   UNL     1      -6.197  -2.217  -1.449  0.00  0.00    -0.230 N 
ATOM      8  C   UNL     1      -5.738  -1.593  -0.346  0.00  0.00    +0.260 C 
ATOM      9  O   UNL     1      -6.256  -1.805   0.732  0.00  0.00    -0.269 OA
ATOM     10  H   UNL     1      -5.727  -2.026  -2.425  0.00  0.00    +0.173 HD
BRANCH   7  13
ATOM     11  C   UNL     1      -7.731  -3.735  -2.455  0.00  0.00    +0.270 C 
ATOM     12  O   UNL     1      -7.213  -3.523  -3.531  0.00  0.00    -0.270 OA
ATOM     13  N   UNL     1      -7.272  -3.111  -1.352  0.00  0.00    -0.231 N 
ATOM     14  H   UNL     1      -7.741  -3.302  -0.376  0.00  0.00    +0.173 HD
BRANCH  11  16
ATOM     15  C   UNL     1      -8.473  -5.902  -1.507  0.00  0.00    +0.062 C 
ATOM     16  C   UNL     1      -8.887  -4.695  -2.351  0.00  0.00    +0.257 C 
BRANCH  16  17
ATOM     17  O   UNL     1      -9.261  -5.134  -3.659  0.00  0.00    -0.477 OA
BRANCH  17  18
ATOM     18  C   UNL     1     -10.543  -5.555  -3.825  0.00  0.00    +0.157 A 
ATOM     19  C   UNL     1     -11.389  -5.654  -2.731  0.00  0.00    +0.048 A 
ATOM     20  C   UNL     1     -12.692  -6.082  -2.903  0.00  0.00    +0.004 A 
ATOM     21  C   UNL     1     -13.153  -6.412  -4.164  0.00  0.00    +0.003 A 
ATOM     22  C   UNL     1     -12.313  -6.314  -5.258  0.00  0.00    +0.042 A 
ATOM     23  C   UNL     1     -11.009  -5.882  -5.092  0.00  0.00    +0.165 A 
ATOM     24  F   UNL     1     -10.189  -5.782  -6.161  0.00  0.00    -0.202 F 
ENDBRANCH  17  18
ENDBRANCH  16  17
ENDBRANCH  11  16
ENDBRANCH   7  13
ENDBRANCH   1   8
BRANCH   4  25
ATOM     25  C   UNL     1      -1.321   2.074  -0.744  0.00  0.00    +0.139 C 
BRANCH  25  26
ATOM     26  N   UNL     1      -0.063   1.346  -0.557  0.00  0.00    -0.311 N 
ATOM     27  C   UNL     1       1.112   2.004  -0.614  0.00  0.00    +0.219 C 
ATOM     28  O   UNL     1       1.128   3.200  -0.816  0.00  0.00    -0.275 OA
ATOM     29  H   UNL     1      -0.078   0.262  -0.369  0.00  0.00    +0.149 HD
BRANCH  27  30
ATOM     30  C   UNL     1       2.405   1.254  -0.428  0.00  0.00    +0.048 C 
ATOM     31  C   UNL     1       2.418   0.594   0.952  0.00  0.00    +0.019 C 
ATOM     32  C   UNL     1       3.732  -0.167   1.141  0.00  0.00    -0.009 C 
ATOM     33  C   UNL     1       4.907   0.807   1.030  0.00  0.00    +0.007 C 
ATOM     34  C   UNL     1       4.894   1.466  -0.350  0.00  0.00    -0.009 C 
ATOM     35  C   UNL     1       3.580   2.228  -0.539  0.00  0.00    +0.019 C 
ATOM     36  C   UNL     1       5.019   0.390  -1.431  0.00  0.00    +0.007 C 
ATOM     37  C   UNL     1       3.845  -0.584  -1.319  0.00  0.00    -0.009 C 
ATOM     38  C   UNL     1       3.858  -1.243   0.061  0.00  0.00    +0.007 C 
ATOM     39  C   UNL     1       2.531   0.178  -1.508  0.00  0.00    +0.019 C 
ENDBRANCH  27  30
ENDBRANCH  25  26
ENDBRANCH   4  25
TORSDOF 8
