REMARK  Name = ZINC09369089
REMARK  9 active torsions:
REMARK  status: ('A' for Active; 'I' for Inactive)
REMARK    1  A    between atoms: C_1  and  O_2
REMARK    2  A    between atoms: O_2  and  C_3
REMARK    3  A    between atoms: C_8  and  N_9
REMARK    4  A    between atoms: C_10  and  C_28
REMARK    5  A    between atoms: C_13  and  S_14
REMARK    6  A    between atoms: S_14  and  C_15
REMARK    7  A    between atoms: C_15  and  C_16
REMARK    8  A    between atoms: C_28  and  N_29
REMARK    9  A    between atoms: C_30  and  C_32
REMARK                            x       y       z     vdW  Elec       q    Type
REMARK                         _______ _______ _______ _____ _____    ______ ____
ROOT
ATOM      1  N   UNL     1       5.543   7.005  -1.967  0.00  0.00    -0.269 N 
ATOM      2  C   UNL     1       4.785   8.129  -2.163  0.00  0.00    +0.156 A 
ATOM      3  N   UNL     1       3.553   7.821  -1.873  0.00  0.00    -0.132 NA
ATOM      4  N   UNL     1       3.477   6.589  -1.516  0.00  0.00    -0.122 NA
ATOM      5  C   UNL     1       4.670   6.040  -1.548  0.00  0.00    +0.197 A 
ENDROOT
BRANCH   1  11
ATOM      6  C   UNL     1       7.804   7.138  -1.106  0.00  0.00    +0.144 A 
ATOM      7  C   UNL     1       9.170   7.001  -1.296  0.00  0.00    +0.048 A 
ATOM      8  C   UNL     1       9.660   6.611  -2.528  0.00  0.00    +0.004 A 
ATOM      9  C   UNL     1       8.791   6.352  -3.572  0.00  0.00    +0.002 A 
ATOM     10  C   UNL     1       7.427   6.481  -3.389  0.00  0.00    +0.030 A 
ATOM     11  C   UNL     1       6.928   6.872  -2.155  0.00  0.00    +0.092 A 
BRANCH   6  13
ATOM     12  C   UNL     1       8.277   7.783   1.133  0.00  0.00    +0.277 C 
ATOM     13  O   UNL     1       7.320   7.527   0.103  0.00  0.00    -0.493 OA
ENDBRANCH   6  13
ENDBRANCH   1  11
BRANCH   5  14
ATOM     14  S   UNL     1       5.068   4.373  -1.138  0.00  0.00    -0.076 S 
BRANCH  14  15
ATOM     15  C   UNL     1       3.425   3.758  -0.693  0.00  0.00    +0.173 C 
BRANCH  15  16
ATOM     16  C   UNL     1       3.522   2.308  -0.296  0.00  0.00    +0.230 C 
ATOM     17  O   UNL     1       4.607   1.773  -0.214  0.00  0.00    -0.274 OA
ATOM     18  N   UNL     1       2.403   1.605  -0.030  0.00  0.00    -0.270 N 
ATOM     19  C   UNL     1       1.093   2.271   0.005  0.00  0.00    +0.114 C 
ATOM     20  C   UNL     1       0.342   1.760   1.241  0.00  0.00    +0.024 C 
ATOM     21  C   UNL     1       0.100   0.259   1.087  0.00  0.00    +0.038 C 
ATOM     22  C   UNL     1       1.385  -0.451   0.754  0.00  0.00    -0.026 A 
ATOM     23  C   UNL     1       2.468   0.226   0.215  0.00  0.00    +0.039 A 
ATOM     24  C   UNL     1       3.639  -0.460  -0.086  0.00  0.00    +0.024 A 
ATOM     25  C   UNL     1       3.725  -1.817   0.154  0.00  0.00    +0.002 A 
ATOM     26  C   UNL     1       2.646  -2.492   0.694  0.00  0.00    +0.000 A 
ATOM     27  C   UNL     1       1.479  -1.813   0.988  0.00  0.00    +0.005 A 
ENDBRANCH  15  16
ENDBRANCH  14  15
ENDBRANCH   5  14
BRANCH   2  28
ATOM     28  C   UNL     1       5.285   9.473  -2.628  0.00  0.00    +0.181 C 
BRANCH  28  29
ATOM     29  N   UNL     1       5.232   9.534  -4.091  0.00  0.00    -0.304 N 
ATOM     30  C   UNL     1       5.632  10.649  -4.733  0.00  0.00    +0.251 C 
ATOM     31  O   UNL     1       6.038  11.605  -4.098  0.00  0.00    -0.270 OA
ATOM     32  H   UNL     1       4.908   8.773  -4.597  0.00  0.00    +0.149 HD
BRANCH  30  33
ATOM     33  C   UNL     1       5.579  10.711  -6.197  0.00  0.00    +0.074 A 
ATOM     34  C   UNL     1       5.934  11.751  -7.041  0.00  0.00    +0.021 A 
ATOM     35  C   UNL     1       5.786  11.541  -8.389  0.00  0.00    +0.008 A 
ATOM     36  C   UNL     1       5.299  10.349  -8.825  0.00  0.00    +0.046 A 
ATOM     37  S   UNL     1       5.034   9.469  -7.356  0.00  0.00    -0.092 S 
ENDBRANCH  30  33
ENDBRANCH  28  29
ENDBRANCH   2  28
TORSDOF 8
