REMARK  Name = ZINC20213972
REMARK  9 active torsions:
REMARK  status: ('A' for Active; 'I' for Inactive)
REMARK    1  A    between atoms: C_1  and  C_2
REMARK    2  A    between atoms: C_2  and  O_3
REMARK    3  A    between atoms: O_3  and  C_4
REMARK    4  A    between atoms: C_4  and  C_6
REMARK    5  A    between atoms: C_7  and  C_21
REMARK    6  A    between atoms: C_12  and  C_14
REMARK    7  A    between atoms: C_21  and  N_22
REMARK    8  A    between atoms: N_22  and  C_23
REMARK    9  A    between atoms: N_22  and  C_24
REMARK                            x       y       z     vdW  Elec       q    Type
REMARK                         _______ _______ _______ _____ _____    ______ ____
ROOT
ATOM      1  C   UNL     1       2.344   1.540   0.022  0.00  0.00    +0.076 C 
ATOM      2  C   UNL     1       1.119   2.108   0.004  0.00  0.00    +0.008 C 
ATOM      3  N   UNL     1      -0.012   1.343  -0.024  0.00  0.00    -0.274 N 
ATOM      4  C   UNL     1      -0.003   0.004  -0.035  0.00  0.00    +0.304 C 
ATOM      5  O   UNL     1      -1.063  -0.591  -0.060  0.00  0.00    -0.252 OA
ATOM      6  N   UNL     1       1.143  -0.705  -0.020  0.00  0.00    -0.288 N 
ATOM      7  C   UNL     1       2.420   0.027   0.011  0.00  0.00    +0.143 C 
ATOM      8  H   UNL     1      -1.001   1.825  -0.038  0.00  0.00    +0.156 HD
ATOM      9  H   UNL     1       1.139  -1.805  -0.029  0.00  0.00    +0.151 HD
ENDROOT
BRANCH   7  10
ATOM     10  C   UNL     1       3.222  -0.389  -1.196  0.00  0.00    -0.022 A 
ATOM     11  C   UNL     1       2.594  -0.575  -2.413  0.00  0.00    +0.007 A 
ATOM     12  C   UNL     1       3.330  -0.951  -3.521  0.00  0.00    +0.020 A 
ATOM     13  C   UNL     1       4.694  -1.151  -3.409  0.00  0.00    +0.041 A 
ATOM     14  C   UNL     1       5.322  -0.970  -2.189  0.00  0.00    +0.020 A 
ATOM     15  C   UNL     1       4.586  -0.588  -1.083  0.00  0.00    +0.007 A 
ATOM     16 CL   UNL     1       5.618  -1.631  -4.798  0.00  0.00    -0.084 Cl
ENDBRANCH   7  10
BRANCH   1  17
ATOM     17  C   UNL     1       3.516   2.331   0.051  0.00  0.00    +0.339 C 
ATOM     18  O   UNL     1       3.435   3.542  -0.034  0.00  0.00    -0.245 OA
BRANCH  17  19
ATOM     19  O   UNL     1       4.725   1.743   0.172  0.00  0.00    -0.462 OA
BRANCH  19  21
ATOM     20  C   UNL     1       7.136   1.761   0.335  0.00  0.00    +0.048 C 
ATOM     21  C   UNL     1       5.866   2.603   0.194  0.00  0.00    +0.229 C 
ENDBRANCH  19  21
ENDBRANCH  17  19
ENDBRANCH   1  17
BRANCH   2  22
ATOM     22  C   UNL     1       0.998   3.610   0.014  0.00  0.00    -0.026 C 
BRANCH  22  23
ATOM     23  N   UNL     1       1.093   4.100   1.396  0.00  0.00    +0.383 N 
ATOM     24  C   UNL     1      -0.056   3.651   2.194  0.00  0.00    -0.095 C 
ATOM     25  H   UNL     1       2.003   3.674   1.843  0.00  0.00    -0.081 HD
BRANCH  23  26
ATOM     26  C   UNL     1       1.218   5.563   1.428  0.00  0.00    -0.068 C 
ATOM     27  C   UNL     1       2.478   5.985   0.670  0.00  0.00    -0.015 C 
ATOM     28  C   UNL     1       2.607   7.509   0.704  0.00  0.00    -0.002 C 
ATOM     29  C   UNL     1       2.704   7.981   2.156  0.00  0.00    -0.000 C 
ATOM     30  C   UNL     1       1.444   7.559   2.914  0.00  0.00    -0.002 C 
ATOM     31  C   UNL     1       1.314   6.035   2.881  0.00  0.00    -0.015 C 
ENDBRANCH  23  26
ENDBRANCH  22  23
ENDBRANCH   2  22
TORSDOF 7
