REMARK  Name = ZINC39773524
REMARK  15 active torsions:
REMARK  status: ('A' for Active; 'I' for Inactive)
REMARK    1  A    between atoms: C_1  and  C_2
REMARK    2  A    between atoms: C_2  and  C_4
REMARK    3  A    between atoms: C_2  and  S_14
REMARK    4  A    between atoms: N_6  and  C_7
REMARK    5  A    between atoms: S_14  and  C_15
REMARK    6  A    between atoms: C_18  and  C_23
REMARK    7  A    between atoms: N_19  and  C_20
REMARK    8  A    between atoms: C_20  and  C_21
REMARK    9  A    between atoms: C_23  and  C_25
REMARK   10  A    between atoms: C_23  and  N_28
REMARK   11  A    between atoms: C_25  and  C_26
REMARK   12  A    between atoms: C_25  and  C_27
REMARK   13  A    between atoms: C_29  and  C_31
REMARK   14  A    between atoms: C_34  and  O_37
REMARK   15  A    between atoms: O_37  and  C_38
REMARK                            x       y       z     vdW  Elec       q    Type
REMARK                         _______ _______ _______ _____ _____    ______ ____
ROOT
ATOM      1  C   UNL     1       2.533  -0.027   1.238  0.00  0.00    +0.193 A 
ATOM      2  N   UNL     1       2.979   0.679   0.225  0.00  0.00    -0.122 NA
ATOM      3  N   UNL     1       4.232   0.922   0.381  0.00  0.00    -0.132 NA
ATOM      4  C   UNL     1       4.655   0.391   1.493  0.00  0.00    +0.155 A 
ATOM      5  N   UNL     1       3.587  -0.228   2.082  0.00  0.00    -0.301 N 
ENDROOT
BRANCH   1   6
ATOM      6  S   UNL     1       0.882  -0.600   1.468  0.00  0.00    -0.074 S 
BRANCH   6   8
ATOM      7  C   UNL     1      -0.030   1.532   0.018  0.00  0.00    +0.029 C 
ATOM      8  C   UNL     1      -0.000   0.002   0.003  0.00  0.00    +0.137 C 
BRANCH   8   9
ATOM      9  C   UNL     1      -1.411  -0.527   0.013  0.00  0.00    +0.230 C 
ATOM     10  O   UNL     1      -1.935  -0.837   1.062  0.00  0.00    -0.274 OA
ATOM     11  N   UNL     1      -2.090  -0.657  -1.144  0.00  0.00    -0.285 N 
ATOM     12  H   UNL     1      -1.697  -0.348  -1.975  0.00  0.00    +0.155 HD
BRANCH  11  13
ATOM     13  C   UNL     1      -3.364  -1.239  -1.147  0.00  0.00    +0.034 A 
ATOM     14  C   UNL     1      -3.766  -2.028  -2.216  0.00  0.00    +0.026 A 
ATOM     15  C   UNL     1      -5.022  -2.601  -2.217  0.00  0.00    +0.040 A 
ATOM     16  C   UNL     1      -5.882  -2.389  -1.152  0.00  0.00    +0.124 A 
ATOM     17  C   UNL     1      -5.483  -1.602  -0.084  0.00  0.00    +0.040 A 
ATOM     18  C   UNL     1      -4.225  -1.032  -0.077  0.00  0.00    +0.026 A 
ATOM     19  F   UNL     1      -7.111  -2.949  -1.155  0.00  0.00    -0.205 F 
ENDBRANCH  11  13
ENDBRANCH   8   9
ENDBRANCH   6   8
ENDBRANCH   1   6
BRANCH   5  20
ATOM     20  C   UNL     1       3.577  -0.958   3.352  0.00  0.00    +0.152 C 
BRANCH  20  21
ATOM     21  C   UNL     1       3.895  -2.409   3.100  0.00  0.00    -0.013 C 
ATOM     22  C   UNL     1       4.886  -2.983   3.738  0.00  0.00    +0.005 C 
ENDBRANCH  20  21
ENDBRANCH   5  20
BRANCH   4  23
ATOM     23  C   UNL     1       6.061   0.452   2.034  0.00  0.00    +0.144 C 
BRANCH  23  24
ATOM     24  N   UNL     1       6.572   1.819   1.910  0.00  0.00    -0.301 N 
ATOM     25  C   UNL     1       7.547   2.251   2.735  0.00  0.00    +0.245 C 
ATOM     26  O   UNL     1       8.001   1.507   3.582  0.00  0.00    -0.270 OA
ATOM     27  H   UNL     1       6.210   2.413   1.234  0.00  0.00    +0.150 HD
BRANCH  25  28
ATOM     28  C   UNL     1       8.062   3.629   2.610  0.00  0.00    +0.037 A 
ATOM     29  C   UNL     1       7.537   4.488   1.641  0.00  0.00    +0.016 A 
ATOM     30  C   UNL     1       8.021   5.772   1.528  0.00  0.00    +0.046 A 
ATOM     31  C   UNL     1       9.029   6.215   2.376  0.00  0.00    +0.120 A 
ATOM     32  C   UNL     1       9.554   5.363   3.341  0.00  0.00    +0.046 A 
ATOM     33  C   UNL     1       9.072   4.079   3.464  0.00  0.00    +0.016 A 
BRANCH  31  34
ATOM     34  O   UNL     1       9.504   7.481   2.261  0.00  0.00    -0.495 OA
ATOM     35  C   UNL     1      10.540   7.870   3.164  0.00  0.00    +0.277 C 
ENDBRANCH  31  34
ENDBRANCH  25  28
ENDBRANCH  23  24
BRANCH  23  36
ATOM     36  C   UNL     1       6.955  -0.501   1.238  0.00  0.00    +0.011 C 
ATOM     37  C   UNL     1       8.382  -0.439   1.787  0.00  0.00    +0.009 C 
ATOM     38  C   UNL     1       6.421  -1.929   1.368  0.00  0.00    +0.009 C 
ENDBRANCH  23  36
ENDBRANCH   4  23
TORSDOF 11
