REMARK  Name = ZINC39686734
REMARK  10 active torsions:
REMARK  status: ('A' for Active; 'I' for Inactive)
REMARK    1  A    between atoms: C_1  and  C_2
REMARK    2  A    between atoms: C_3  and  C_13
REMARK    3  A    between atoms: C_4  and  C_7
REMARK    4  A    between atoms: C_17  and  C_26
REMARK    5  A    between atoms: N_28  and  C_29
REMARK    6  A    between atoms: C_29  and  C_31
REMARK    7  A    between atoms: C_29  and  C_32
REMARK    8  A    between atoms: C_32  and  C_33
REMARK    9  A    between atoms: C_38  and  O_39
REMARK   10  A    between atoms: O_39  and  C_40
REMARK                            x       y       z     vdW  Elec       q    Type
REMARK                         _______ _______ _______ _____ _____    ______ ____
ROOT
ATOM      1  C   UNL     1      -2.583  -0.389  -0.006  0.00  0.00    +0.252 C 
ATOM      2  O   UNL     1      -3.175  -0.179  -1.047  0.00  0.00    -0.270 OA
ATOM      3  N   UNL     1      -3.203  -0.188   1.174  0.00  0.00    -0.296 N 
ATOM      4  C   UNL     1      -2.649  -0.381   2.535  0.00  0.00    +0.121 C 
ATOM      5  C   UNL     1      -3.210   0.801   3.356  0.00  0.00    +0.100 C 
ATOM      6  C   UNL     1      -4.486   1.226   2.610  0.00  0.00    -0.004 C 
ATOM      7  C   UNL     1      -4.590   0.281   1.403  0.00  0.00    +0.115 C 
ATOM      8  C   UNL     1      -5.705   1.067   3.513  0.00  0.00    -0.010 C 
ATOM      9  C   UNL     1      -6.953   1.551   2.769  0.00  0.00    -0.082 C 
ATOM     10  N   UNL     1      -6.783   2.958   2.387  0.00  0.00    +0.379 N 
ATOM     11  C   UNL     1      -5.665   3.089   1.444  0.00  0.00    -0.082 C 
ATOM     12  C   UNL     1      -4.362   2.670   2.133  0.00  0.00    -0.010 C 
ATOM     13  H   UNL     1      -7.629   3.291   1.951  0.00  0.00    -0.086 HD
ATOM     14  H   UNL     1      -6.592   3.508   3.211  0.00  0.00    -0.086 HD
ENDROOT
BRANCH   1  17
ATOM     15  C   UNL     1      -0.033   1.418  -0.020  0.00  0.00    +0.090 C 
ATOM     16  C   UNL     1      -0.066  -0.088  -0.041  0.00  0.00    +0.147 A 
ATOM     17  C   UNL     1      -1.189  -0.863  -0.035  0.00  0.00    +0.106 A 
ATOM     18  C   UNL     1      -0.739  -2.263  -0.061  0.00  0.00    +0.126 A 
ATOM     19  N   UNL     1       0.570  -2.241  -0.082  0.00  0.00    -0.077 NA
ATOM     20  O   UNL     1       0.998  -0.894  -0.075  0.00  0.00    -0.359 OA
BRANCH  18  21
ATOM     21  C   UNL     1      -1.602  -3.469  -0.065  0.00  0.00    +0.004 A 
ATOM     22  C   UNL     1      -2.804  -3.470   0.640  0.00  0.00    +0.010 A 
ATOM     23  C   UNL     1      -3.604  -4.595   0.633  0.00  0.00    +0.001 A 
ATOM     24  C   UNL     1      -3.215  -5.719  -0.073  0.00  0.00    +0.000 A 
ATOM     25  C   UNL     1      -2.022  -5.724  -0.774  0.00  0.00    +0.001 A 
ATOM     26  C   UNL     1      -1.218  -4.602  -0.779  0.00  0.00    +0.010 A 
ENDBRANCH  18  21
ENDBRANCH   1  17
BRANCH   5  27
ATOM     27  C   UNL     1      -3.543   0.356   4.757  0.00  0.00    +0.218 C 
ATOM     28  O   UNL     1      -3.934  -0.774   4.957  0.00  0.00    -0.275 OA
ATOM     29  N   UNL     1      -3.406   1.214   5.787  0.00  0.00    -0.312 N 
ATOM     30  H   UNL     1      -3.093   2.118   5.627  0.00  0.00    +0.149 HD
BRANCH  29  31
ATOM     31  C   UNL     1      -3.729   0.782   7.149  0.00  0.00    +0.074 C 
ATOM     32  C   UNL     1      -2.515   0.080   7.763  0.00  0.00    +0.028 C 
BRANCH  31  33
ATOM     33  C   UNL     1      -4.097   2.000   7.997  0.00  0.00    +0.060 C 
BRANCH  33  34
ATOM     34  C   UNL     1      -5.363   2.620   7.465  0.00  0.00    -0.004 A 
ATOM     35  C   UNL     1      -5.296   3.670   6.569  0.00  0.00    +0.007 A 
ATOM     36  C   UNL     1      -6.457   4.238   6.080  0.00  0.00    +0.000 A 
ATOM     37  C   UNL     1      -7.689   3.758   6.486  0.00  0.00    +0.004 A 
ATOM     38  C   UNL     1      -7.761   2.709   7.381  0.00  0.00    +0.046 A 
ATOM     39  C   UNL     1      -6.597   2.132   7.869  0.00  0.00    +0.123 A 
BRANCH  39  40
ATOM     40  O   UNL     1      -6.666   1.096   8.745  0.00  0.00    -0.495 OA
ATOM     41  C   UNL     1      -7.971   0.646   9.117  0.00  0.00    +0.277 C 
ENDBRANCH  39  40
ENDBRANCH  33  34
ENDBRANCH  31  33
ENDBRANCH  29  31
ENDBRANCH   5  27
TORSDOF 7
