REMARK  Name = ZINC44990203
REMARK  3 active torsions:
REMARK  status: ('A' for Active; 'I' for Inactive)
REMARK    1  A    between atoms: C_4  and  C_7
REMARK    2  A    between atoms: C_7  and  C_8
REMARK    3  A    between atoms: C_8  and  O_25
REMARK                            x       y       z     vdW  Elec       q    Type
REMARK                         _______ _______ _______ _____ _____    ______ ____
ROOT
ATOM      1  C   UNL     1       4.275  -1.134   1.351  0.00  0.00    +0.073 C 
ATOM      2  C   UNL     1       4.418   0.283   1.912  0.00  0.00    +0.054 C 
ATOM      3  C   UNL     1       4.734   0.205   3.409  0.00  0.00    +0.109 C 
ATOM      4  N   UNL     1       5.919  -0.642   3.599  0.00  0.00    -0.313 N 
ATOM      5  C   UNL     1       5.923  -1.992   3.021  0.00  0.00    +0.109 C 
ATOM      6  C   UNL     1       5.594  -1.890   1.528  0.00  0.00    +0.054 C 
ATOM      7  C   UNL     1       7.012  -0.176   4.309  0.00  0.00    +0.154 A 
ATOM      8  C   UNL     1       6.964   1.064   4.969  0.00  0.00    +0.148 A 
ATOM      9  C   UNL     1       8.102   1.487   5.675  0.00  0.00    +0.165 A 
ATOM     10  N   UNL     1       7.782   2.709   6.211  0.00  0.00    -0.329 N 
ATOM     11  H   UNL     1       8.361   3.266   6.756  0.00  0.00    +0.168 HD
ATOM     12  C   UNL     1       6.503   2.999   5.835  0.00  0.00    +0.198 A 
ATOM     13  N   UNL     1       6.025   2.033   5.107  0.00  0.00    -0.231 NA
ATOM     14  N   UNL     1       9.178   0.707   5.697  0.00  0.00    -0.195 NA
ATOM     15  C   UNL     1       9.181  -0.454   5.062  0.00  0.00    +0.216 A 
ATOM     16  N   UNL     1       8.126  -0.895   4.387  0.00  0.00    -0.197 NA
ATOM     17  N   UNL     1      10.321  -1.239   5.108  0.00  0.00    -0.327 N 
ATOM     18  H   UNL     1      11.100  -0.934   5.600  0.00  0.00    +0.145 HD
ATOM     19  H   UNL     1      10.341  -2.093   4.649  0.00  0.00    +0.145 HD
ENDROOT
BRANCH   1  20
ATOM     20  O   UNL     1       3.235  -1.820   2.051  0.00  0.00    -0.388 OA
ATOM     21  H   UNL     1       2.369  -1.396   1.982  0.00  0.00    +0.210 HD
ENDBRANCH   1  20
BRANCH   1  22
ATOM     22  C   UNL     1       3.926  -1.060  -0.137  0.00  0.00    +0.070 C 
BRANCH  22  26
ATOM     23  C   UNL     1       0.435   1.345  -0.664  0.00  0.00    +0.000 A 
ATOM     24  C   UNL     1       1.688   1.930  -0.691  0.00  0.00    +0.000 A 
ATOM     25  C   UNL     1       2.817   1.151  -0.520  0.00  0.00    +0.004 A 
ATOM     26  C   UNL     1       2.695  -0.211  -0.322  0.00  0.00    -0.045 A 
ATOM     27  C   UNL     1       1.442  -0.795  -0.295  0.00  0.00    +0.004 A 
ATOM     28  C   UNL     1       0.312  -0.017  -0.467  0.00  0.00    +0.000 A 
ENDBRANCH  22  26
ENDBRANCH   1  22
TORSDOF 3
