REMARK  Name = ZINC02101693
REMARK  10 active torsions:
REMARK  status: ('A' for Active; 'I' for Inactive)
REMARK    1  A    between atoms: C_1  and  C_2
REMARK    2  A    between atoms: C_4  and  C_35
REMARK    3  A    between atoms: C_4  and  C_36
REMARK    4  A    between atoms: C_9  and  O_34
REMARK    5  A    between atoms: C_12  and  O_15
REMARK    6  A    between atoms: C_12  and  O_16
REMARK    7  A    between atoms: O_16  and  C_17
REMARK    8  A    between atoms: C_28  and  C_32
REMARK    9  A    between atoms: C_28  and  C_33
REMARK   10  A    between atoms: C_30  and  C_31
REMARK                            x       y       z     vdW  Elec       q    Type
REMARK                         _______ _______ _______ _____ _____    ______ ____
ROOT
ATOM      1  C   UNL     1      -1.641   5.699   1.030  0.00  0.00    +0.044 C 
ATOM      2  C   UNL     1      -1.086   4.319   0.787  0.00  0.00    -0.043 C 
ATOM      3  C   UNL     1       0.225   4.143   0.659  0.00  0.00    +0.002 C 
ATOM      4  C   UNL     1       0.801   2.767   0.415  0.00  0.00    +0.056 C 
ATOM      5  N   UNL     1      -0.127   1.626   0.320  0.00  0.00    -0.255 N 
ATOM      6  C   UNL     1      -1.476   1.897   0.458  0.00  0.00    +0.055 A 
ATOM      7  C   UNL     1      -1.997   3.164   0.690  0.00  0.00    +0.003 A 
ATOM      8  C   UNL     1      -3.381   3.294   0.817  0.00  0.00    +0.055 A 
ATOM      9  C   UNL     1      -4.181   2.165   0.715  0.00  0.00    +0.118 A 
ATOM     10  C   UNL     1      -3.630   0.906   0.488  0.00  0.00    +0.057 A 
ATOM     11  C   UNL     1      -2.264   0.775   0.362  0.00  0.00    +0.058 A 
ATOM     12  C   UNL     1      -1.299  -0.359   0.121  0.00  0.00    +0.317 C 
ATOM     13  C   UNL     1       0.067   0.308   0.113  0.00  0.00    +0.298 C 
ATOM     14  O   UNL     1       1.134  -0.244  -0.051  0.00  0.00    -0.268 OA
ATOM     15  C   UNL     1       1.788   2.470   1.545  0.00  0.00    +0.036 C 
ATOM     16  C   UNL     1       1.601   2.825  -0.888  0.00  0.00    +0.036 C 
ENDROOT
BRANCH  12  17
ATOM     17  O   UNL     1      -1.560  -0.979  -1.139  0.00  0.00    -0.345 OA
ATOM     18  H   UNL     1      -1.137  -1.842  -1.248  0.00  0.00    +0.215 HD
ENDBRANCH  12  17
BRANCH   9  19
ATOM     19  O   UNL     1      -5.529   2.290   0.839  0.00  0.00    -0.507 OA
ATOM     20  H   UNL     1      -5.851   2.199   1.746  0.00  0.00    +0.292 HD
ENDBRANCH   9  19
BRANCH  12  21
ATOM     21  O   UNL     1      -1.380  -1.318   1.178  0.00  0.00    -0.449 OA
BRANCH  21  22
ATOM     22  C   UNL     1      -0.504  -2.358   1.137  0.00  0.00    +0.126 A 
ATOM     23  C   UNL     1       0.334  -2.494   0.037  0.00  0.00    +0.055 A 
ATOM     24  C   UNL     1       1.239  -3.558  -0.011  0.00  0.00    +0.003 A 
ATOM     25  C   UNL     1       1.257  -4.450   1.048  0.00  0.00    +0.056 A 
ATOM     26  C   UNL     1       0.421  -4.329   2.152  0.00  0.00    +0.052 A 
ATOM     27  C   UNL     1      -0.475  -3.261   2.192  0.00  0.00    +0.059 A 
ATOM     28  C   UNL     1       0.767  -5.466   3.022  0.00  0.00    +0.250 C 
ATOM     29  O   UNL     1       0.280  -5.749   4.097  0.00  0.00    -0.282 OA
ATOM     30  C   UNL     1       1.857  -6.202   2.288  0.00  0.00    +0.292 C 
ATOM     31  O   UNL     1       2.422  -7.207   2.667  0.00  0.00    -0.266 OA
ATOM     32  N   UNL     1       2.092  -5.546   1.135  0.00  0.00    -0.254 N 
ATOM     33  C   UNL     1       3.021  -5.769   0.015  0.00  0.00    +0.056 C 
ATOM     34  C   UNL     1       2.999  -4.794  -1.140  0.00  0.00    +0.002 C 
ATOM     35  C   UNL     1       2.162  -3.761  -1.144  0.00  0.00    -0.043 C 
ATOM     36  C   UNL     1       2.154  -2.800  -2.305  0.00  0.00    +0.044 C 
ATOM     37  C   UNL     1       4.441  -5.783   0.584  0.00  0.00    +0.036 C 
ATOM     38  C   UNL     1       2.741  -7.163  -0.551  0.00  0.00    +0.036 C 
ENDBRANCH  21  22
ENDBRANCH  12  21
TORSDOF 4
