REMARK  Name = ZINC39666491
REMARK  7 active torsions:
REMARK  status: ('A' for Active; 'I' for Inactive)
REMARK    1  A    between atoms: C_1  and  C_2
REMARK    2  A    between atoms: C_2  and  C_4
REMARK    3  A    between atoms: C_2  and  O_29
REMARK    4  A    between atoms: C_4  and  N_5
REMARK    5  A    between atoms: C_6  and  C_8
REMARK    6  A    between atoms: C_19  and  C_21
REMARK    7  A    between atoms: O_29  and  C_30
REMARK                            x       y       z     vdW  Elec       q    Type
REMARK                         _______ _______ _______ _____ _____    ______ ____
ROOT
ATOM      1  C   UNL     1       2.129  -4.382   3.119  0.00  0.00    +0.100 C 
ATOM      2  C   UNL     1       2.738  -4.998   1.839  0.00  0.00    +0.121 C 
ATOM      3  N   UNL     1       4.182  -5.136   2.141  0.00  0.00    -0.296 N 
ATOM      4  C   UNL     1       4.223  -5.572   3.557  0.00  0.00    +0.115 C 
ATOM      5  C   UNL     1       3.105  -4.764   4.244  0.00  0.00    -0.004 C 
ATOM      6  C   UNL     1       2.397  -5.623   5.288  0.00  0.00    -0.010 C 
ATOM      7  C   UNL     1       3.371  -5.941   6.426  0.00  0.00    -0.082 C 
ATOM      8  N   UNL     1       3.845  -4.691   7.031  0.00  0.00    +0.379 N 
ATOM      9  C   UNL     1       4.605  -3.913   6.045  0.00  0.00    -0.082 C 
ATOM     10  C   UNL     1       3.683  -3.509   4.891  0.00  0.00    -0.010 C 
ATOM     11  C   UNL     1       5.223  -4.914   1.314  0.00  0.00    +0.248 C 
ATOM     12  O   UNL     1       6.356  -5.157   1.684  0.00  0.00    -0.270 OA
ATOM     13  H   UNL     1       3.054  -4.151   7.346  0.00  0.00    -0.086 HD
ATOM     14  H   UNL     1       4.439  -4.904   7.819  0.00  0.00    -0.086 HD
ENDROOT
BRANCH  11  15
ATOM     15  C   UNL     1       4.989  -4.375  -0.042  0.00  0.00    +0.057 A 
ATOM     16  C   UNL     1       3.924  -4.849  -0.810  0.00  0.00    +0.014 A 
ATOM     17  C   UNL     1       3.710  -4.343  -2.075  0.00  0.00    +0.002 A 
ATOM     18  C   UNL     1       4.547  -3.366  -2.584  0.00  0.00    +0.021 A 
ATOM     19  C   UNL     1       5.606  -2.891  -1.830  0.00  0.00    +0.060 A 
ATOM     20  C   UNL     1       5.828  -3.386  -0.558  0.00  0.00    +0.071 A 
ATOM     21 CL   UNL     1       7.151  -2.784   0.391  0.00  0.00    -0.081 Cl
ATOM     22 CL   UNL     1       6.651  -1.667  -2.479  0.00  0.00    -0.082 Cl
ENDBRANCH  11  15
BRANCH   1  24
ATOM     23  N   UNL     1       1.155  -2.193   3.735  0.00  0.00    -0.312 N 
ATOM     24  C   UNL     1       2.040  -2.883   2.988  0.00  0.00    +0.218 C 
ATOM     25  O   UNL     1       2.764  -2.298   2.211  0.00  0.00    -0.275 OA
ATOM     26  H   UNL     1       0.576  -2.661   4.357  0.00  0.00    +0.149 HD
BRANCH  23  27
ATOM     27  C   UNL     1       1.069  -0.736   3.608  0.00  0.00    +0.148 C 
BRANCH  27  29
ATOM     28  C   UNL     1      -0.183   1.299   4.338  0.00  0.00    +0.053 C 
ATOM     29  C   UNL     1      -0.005  -0.204   4.559  0.00  0.00    +0.187 C 
BRANCH  29  30
ATOM     30  O   UNL     1       0.394  -0.443   5.910  0.00  0.00    -0.486 OA
BRANCH  30  31
ATOM     31  C   UNL     1      -0.593  -0.515   6.842  0.00  0.00    +0.139 A 
ATOM     32  C   UNL     1      -1.920  -0.400   6.458  0.00  0.00    +0.047 A 
ATOM     33  C   UNL     1      -2.922  -0.474   7.407  0.00  0.00    +0.004 A 
ATOM     34  C   UNL     1      -2.602  -0.662   8.739  0.00  0.00    +0.002 A 
ATOM     35  C   UNL     1      -1.279  -0.777   9.125  0.00  0.00    +0.023 A 
ATOM     36  C   UNL     1      -0.274  -0.710   8.179  0.00  0.00    +0.083 A 
ATOM     37 CL   UNL     1       1.387  -0.861   8.663  0.00  0.00    -0.080 Cl
ENDBRANCH  30  31
ENDBRANCH  29  30
ENDBRANCH  27  29
ENDBRANCH  23  27
ENDBRANCH   1  24
TORSDOF 6
