REMARK  Name = ZINC67204811
REMARK  12 active torsions:
REMARK  status: ('A' for Active; 'I' for Inactive)
REMARK    1  A    between atoms: C_1  and  C_2
REMARK    2  A    between atoms: C_2  and  C_3
REMARK    3  A    between atoms: C_2  and  C_4
REMARK    4  A    between atoms: C_2  and  O_5
REMARK    5  A    between atoms: O_5  and  C_6
REMARK    6  A    between atoms: N_8  and  C_9
REMARK    7  A    between atoms: N_12  and  C_15
REMARK    8  A    between atoms: C_15  and  C_16
REMARK    9  A    between atoms: C_17  and  C_31
REMARK   10  A    between atoms: C_18  and  C_24
REMARK   11  A    between atoms: C_31  and  O_33
REMARK   12  A    between atoms: O_33  and  C_34
REMARK                            x       y       z     vdW  Elec       q    Type
REMARK                         _______ _______ _______ _____ _____    ______ ____
ROOT
ATOM      1  C   UNL     1       8.329   0.236  -5.713  0.00  0.00    +0.038 C 
ATOM      2  C   UNL     1       8.050   0.379  -7.026  0.00  0.00    +0.079 C 
ATOM      3  C   UNL     1       8.438  -0.753  -7.956  0.00  0.00    +0.144 C 
ATOM      4  N   UNL     1       9.091  -1.923  -7.347  0.00  0.00    -0.288 N 
ATOM      5  C   UNL     1       9.303  -1.919  -6.016  0.00  0.00    +0.304 C 
ATOM      6  O   UNL     1       9.842  -2.880  -5.503  0.00  0.00    -0.252 OA
ATOM      7  N   UNL     1       8.945  -0.888  -5.241  0.00  0.00    -0.271 N 
ATOM      8  H   UNL     1       9.363  -2.680  -7.890  0.00  0.00    +0.151 HD
ATOM      9  H   UNL     1       9.129  -0.944  -4.290  0.00  0.00    +0.156 HD
ENDROOT
BRANCH   3  10
ATOM     10  C   UNL     1       9.367  -0.196  -9.004  0.00  0.00    -0.022 A 
ATOM     11  C   UNL     1      10.704  -0.007  -8.710  0.00  0.00    +0.008 A 
ATOM     12  C   UNL     1      11.558   0.504  -9.670  0.00  0.00    +0.038 A 
ATOM     13  C   UNL     1      11.072   0.826 -10.926  0.00  0.00    +0.123 A 
ATOM     14  C   UNL     1       9.733   0.635 -11.219  0.00  0.00    +0.038 A 
ATOM     15  C   UNL     1       8.882   0.120 -10.259  0.00  0.00    +0.008 A 
ATOM     16  F   UNL     1      11.906   1.325 -11.865  0.00  0.00    -0.205 F 
ENDBRANCH   3  10
BRANCH   2  17
ATOM     17  C   UNL     1       7.417   1.544  -7.517  0.00  0.00    +0.339 C 
ATOM     18  O   UNL     1       7.019   2.393  -6.742  0.00  0.00    -0.245 OA
BRANCH  17  19
ATOM     19  O   UNL     1       7.255   1.715  -8.846  0.00  0.00    -0.465 OA
ATOM     20  C   UNL     1       6.607   2.916  -9.271  0.00  0.00    +0.280 C 
ENDBRANCH  17  19
ENDBRANCH   2  17
BRANCH   1  21
ATOM     21  C   UNL     1       7.960   1.338  -4.753  0.00  0.00    +0.135 C 
BRANCH  21  25
ATOM     22  C   UNL     1       4.314   1.075  -2.536  0.00  0.00    +0.079 C 
ATOM     23  C   UNL     1       4.554   2.279  -3.452  0.00  0.00    +0.038 C 
ATOM     24  C   UNL     1       6.054   2.417  -3.721  0.00  0.00    +0.086 C 
ATOM     25  N   UNL     1       6.554   1.189  -4.354  0.00  0.00    -0.297 NA
ATOM     26  C   UNL     1       6.377   0.028  -3.473  0.00  0.00    +0.086 C 
ATOM     27  C   UNL     1       4.887  -0.181  -3.196  0.00  0.00    +0.038 C 
BRANCH  22  30
ATOM     28  C   UNL     1       2.251   1.597  -1.348  0.00  0.00    +0.401 C 
ATOM     29  O   UNL     1       2.882   2.364  -0.649  0.00  0.00    -0.226 OA
ATOM     30  N   UNL     1       2.875   0.903  -2.321  0.00  0.00    -0.278 N 
ATOM     31  H   UNL     1       2.371   0.290  -2.879  0.00  0.00    +0.152 HD
BRANCH  28  32
ATOM     32  O   UNL     1       0.928   1.438  -1.151  0.00  0.00    -0.445 OA
BRANCH  32  34
ATOM     33  C   UNL     1       0.531   3.695  -0.384  0.00  0.00    +0.055 C 
ATOM     34  C   UNL     1       0.333   2.205  -0.102  0.00  0.00    +0.107 C 
ATOM     35  C   UNL     1       0.993   1.845   1.230  0.00  0.00    +0.055 C 
ATOM     36  C   UNL     1      -1.164   1.894  -0.030  0.00  0.00    +0.055 C 
ENDBRANCH  32  34
ENDBRANCH  28  32
ENDBRANCH  22  30
ENDBRANCH  21  25
ENDBRANCH   1  21
TORSDOF 8
