REMARK  Name = ZINC36372000
REMARK  16 active torsions:
REMARK  status: ('A' for Active; 'I' for Inactive)
REMARK    1  A    between atoms: C_1  and  C_2
REMARK    2  A    between atoms: C_2  and  O_4
REMARK    3  A    between atoms: O_4  and  C_5
REMARK    4  A    between atoms: C_5  and  C_6
REMARK    5  A    between atoms: C_6  and  C_8
REMARK    6  A    between atoms: C_6  and  O_41
REMARK    7  A    between atoms: C_12  and  O_40
REMARK    8  A    between atoms: C_13  and  C_39
REMARK    9  A    between atoms: C_22  and  O_38
REMARK   10  A    between atoms: C_23  and  C_33
REMARK   11  A    between atoms: C_26  and  O_29
REMARK   12  A    between atoms: O_29  and  C_30
REMARK   13  A    between atoms: C_30  and  C_32
REMARK   14  A    between atoms: C_33  and  O_34
REMARK   15  A    between atoms: O_34  and  C_35
REMARK   16  A    between atoms: C_35  and  C_37
REMARK                            x       y       z     vdW  Elec       q    Type
REMARK                         _______ _______ _______ _____ _____    ______ ____
ROOT
ATOM      1  C   UNL     1      -2.349  -4.076  -0.221  0.00  0.00    +0.030 C 
ATOM      2  C   UNL     1      -1.853  -4.676   1.121  0.00  0.00    +0.009 C 
ATOM      3  C   UNL     1      -2.914  -5.737   1.543  0.00  0.00    +0.036 C 
ATOM      4  C   UNL     1      -3.621  -6.013   0.204  0.00  0.00    +0.075 C 
ATOM      5  C   UNL     1      -3.812  -4.572  -0.322  0.00  0.00    +0.002 C 
ATOM      6  C   UNL     1      -4.382  -4.582  -1.714  0.00  0.00    +0.010 C 
ATOM      7  C   UNL     1      -5.550  -5.571  -1.844  0.00  0.00    +0.005 C 
ATOM      8  C   UNL     1      -6.023  -6.087  -0.496  0.00  0.00    +0.007 C 
ATOM      9  C   UNL     1      -4.899  -6.798   0.249  0.00  0.00    +0.025 C 
ATOM     10  C   UNL     1      -5.358  -7.151   1.657  0.00  0.00    +0.009 C 
ATOM     11  C   UNL     1      -6.619  -8.018   1.602  0.00  0.00    +0.036 C 
ATOM     12  C   UNL     1      -7.059  -8.285   0.170  0.00  0.00    +0.078 C 
ATOM     13  C   UNL     1      -7.250  -6.989  -0.612  0.00  0.00    +0.037 C 
ATOM     14  C   UNL     1      -7.553  -7.333  -2.069  0.00  0.00    +0.017 C 
ATOM     15  C   UNL     1      -8.825  -8.175  -2.156  0.00  0.00    +0.045 C 
ATOM     16  C   UNL     1      -8.732  -9.424  -1.286  0.00  0.00    +0.179 C 
ATOM     17  C   UNL     1      -8.378  -9.073   0.159  0.00  0.00    +0.080 C 
ATOM     18  C   UNL     1      -4.625  -3.683   0.615  0.00  0.00    +0.014 C 
ENDROOT
BRANCH  12  19
ATOM     19  O   UNL     1      -6.095  -9.123  -0.486  0.00  0.00    -0.388 OA
ATOM     20  H   UNL     1      -5.970  -9.983  -0.064  0.00  0.00    +0.210 HD
ENDBRANCH  12  19
BRANCH   4  21
ATOM     21  O   UNL     1      -2.688  -6.705  -0.655  0.00  0.00    -0.388 OA
ATOM     22  H   UNL     1      -2.396  -7.560  -0.309  0.00  0.00    +0.210 HD
ENDBRANCH   4  21
BRANCH   1  23
ATOM     23  C   UNL     1      -2.325  -2.551  -0.167  0.00  0.00    +0.156 C 
BRANCH  23  24
ATOM     24  O   UNL     1      -0.991  -2.104   0.081  0.00  0.00    -0.388 OA
ATOM     25  H   UNL     1      -0.369  -2.311  -0.630  0.00  0.00    +0.210 HD
ENDBRANCH  23  24
BRANCH  23  26
ATOM     26  C   UNL     1      -2.813  -1.986  -1.503  0.00  0.00    +0.263 C 
BRANCH  26  27
ATOM     27  O   UNL     1      -2.835  -0.559  -1.437  0.00  0.00    -0.462 OA
BRANCH  27  29
ATOM     28  C   UNL     1      -3.292   1.602  -2.540  0.00  0.00    +0.136 C 
ATOM     29  C   UNL     1      -3.242   0.096  -2.536  0.00  0.00    +0.304 C 
ATOM     30  O   UNL     1      -3.569  -0.523  -3.521  0.00  0.00    -0.251 OA
ENDBRANCH  27  29
ENDBRANCH  26  27
ENDBRANCH  23  26
ENDBRANCH   1  23
BRANCH  16  31
ATOM     31  O   UNL     1      -9.992 -10.106  -1.306  0.00  0.00    -0.461 OA
BRANCH  31  32
ATOM     32  C   UNL     1     -10.169 -11.031  -2.263  0.00  0.00    +0.304 C 
ATOM     33  O   UNL     1      -9.287 -11.255  -3.058  0.00  0.00    -0.251 OA
ATOM     34  C   UNL     1     -11.469 -11.789  -2.346  0.00  0.00    +0.136 C 
ENDBRANCH  31  32
ENDBRANCH  16  31
BRANCH  13  35
ATOM     35  C   UNL     1      -8.437  -6.199  -0.035  0.00  0.00    +0.242 C 
BRANCH  35  36
ATOM     36  O   UNL     1      -8.663  -5.031  -0.827  0.00  0.00    -0.464 OA
BRANCH  36  37
ATOM     37  C   UNL     1      -9.671  -4.227  -0.455  0.00  0.00    +0.304 C 
ATOM     38  O   UNL     1     -10.340  -4.505   0.512  0.00  0.00    -0.251 OA
ATOM     39  C   UNL     1      -9.968  -2.977  -1.243  0.00  0.00    +0.136 C 
ENDBRANCH  36  37
ENDBRANCH  35  36
ENDBRANCH  13  35
TORSDOF 12
