REMARK  Name = ZINC21011204
REMARK  6 active torsions:
REMARK  status: ('A' for Active; 'I' for Inactive)
REMARK    1  A    between atoms: C_1  and  C_2
REMARK    2  A    between atoms: C_7  and  N_12
REMARK    3  A    between atoms: C_9  and  C_11
REMARK    4  A    between atoms: N_12  and  S_13
REMARK    5  A    between atoms: S_13  and  C_16
REMARK    6  A    between atoms: C_20  and  N_22
REMARK                            x       y       z     vdW  Elec       q    Type
REMARK                         _______ _______ _______ _____ _____    ______ ____
ROOT
ATOM      1  S   UNL     1       2.765  -2.927  -0.040  0.00  0.00    +0.059 S 
ATOM      2  O   UNL     1       2.504  -4.209  -0.595  0.00  0.00    -0.153 OA
ATOM      3  O   UNL     1       3.723  -2.037  -0.595  0.00  0.00    -0.153 OA
ENDROOT
BRANCH   1   4
ATOM      4  C   UNL     1       1.228  -2.065  -0.021  0.00  0.00    +0.107 A 
ATOM      5  C   UNL     1       0.040  -2.772  -0.014  0.00  0.00    +0.030 A 
ATOM      6  C   UNL     1      -1.168  -2.099   0.001  0.00  0.00    +0.024 A 
ATOM      7  C   UNL     1      -1.191  -0.717   0.015  0.00  0.00    +0.062 A 
ATOM      8  C   UNL     1       0.002  -0.004   0.002  0.00  0.00    +0.045 A 
ATOM      9  C   UNL     1       1.213  -0.684  -0.013  0.00  0.00    +0.052 A 
ATOM     10 CL   UNL     1      -2.708   0.127   0.042  0.00  0.00    -0.082 Cl
BRANCH   8  11
ATOM     11  N   UNL     1      -0.017   1.393   0.010  0.00  0.00    -0.357 N 
ATOM     12  H   UNL     1       0.928   1.956  -0.001  0.00  0.00    +0.142 HD
ATOM     13  H   UNL     1      -0.977   1.930   0.026  0.00  0.00    +0.142 HD
ENDBRANCH   8  11
ENDBRANCH   1   4
BRANCH   1  14
ATOM     14  N   UNL     1       3.207  -3.176   1.536  0.00  0.00    -0.187 NA
ATOM     15  H   UNL     1       4.011  -2.564   1.972  0.00  0.00    +0.148 HD
BRANCH  14  21
ATOM     16  C   UNL     1       3.368  -6.454   5.234  0.00  0.00    +0.008 C 
ATOM     17  C   UNL     1       2.457  -5.697   4.266  0.00  0.00    -0.010 C 
ATOM     18  C   UNL     1       1.469  -4.839   5.060  0.00  0.00    +0.003 C 
ATOM     19  C   UNL     1       0.558  -4.082   4.092  0.00  0.00    +0.002 C 
ATOM     20  C   UNL     1       1.407  -3.181   3.192  0.00  0.00    +0.020 C 
ATOM     21  C   UNL     1       2.394  -4.038   2.398  0.00  0.00    +0.080 C 
ATOM     22  C   UNL     1       3.305  -4.796   3.366  0.00  0.00    +0.007 C 
ATOM     23  C   UNL     1       4.293  -5.653   2.572  0.00  0.00    +0.009 C 
ENDBRANCH  14  21
ENDBRANCH   1  14
TORSDOF 4
