REMARK  Name = ZINC39711248
REMARK  10 active torsions:
REMARK  status: ('A' for Active; 'I' for Inactive)
REMARK    1  A    between atoms: C_1  and  C_2
REMARK    2  A    between atoms: C_6  and  C_15
REMARK    3  A    between atoms: C_13  and  C_14
REMARK    4  A    between atoms: C_15  and  C_17
REMARK    5  A    between atoms: C_15  and  N_28
REMARK    6  A    between atoms: N_22  and  C_23
REMARK    7  A    between atoms: N_28  and  C_29
REMARK    8  A    between atoms: N_28  and  C_36
REMARK    9  A    between atoms: C_29  and  C_30
REMARK   10  A    between atoms: C_36  and  C_37
REMARK                            x       y       z     vdW  Elec       q    Type
REMARK                         _______ _______ _______ _____ _____    ______ ____
ROOT
ATOM      1  C   UNL     1      -1.713  -5.928  -2.264  0.00  0.00    -0.009 C 
ENDROOT
BRANCH   1   7
ATOM      2  C   UNL     1      -2.452  -1.271   3.101  0.00  0.00    +0.044 C 
ATOM      3  C   UNL     1      -2.037  -2.597   2.516  0.00  0.00    -0.047 A 
ATOM      4  C   UNL     1      -1.788  -2.687   1.184  0.00  0.00    +0.013 A 
ATOM      5  C   UNL     1      -1.385  -3.979   0.628  0.00  0.00    -0.007 A 
ATOM      6  C   UNL     1      -1.125  -4.117  -0.703  0.00  0.00    -0.006 C 
ATOM      7  C   UNL     1      -0.713  -5.492  -1.192  0.00  0.00    +0.088 C 
ATOM      8  C   UNL     1      -0.624  -6.598  -0.164  0.00  0.00    +0.223 C 
ATOM      9  O   UNL     1      -0.298  -7.720  -0.501  0.00  0.00    -0.275 OA
ATOM     10  N   UNL     1      -0.902  -6.339   1.103  0.00  0.00    -0.285 N 
ATOM     11  C   UNL     1      -1.265  -5.132   1.537  0.00  0.00    +0.041 A 
ATOM     12  C   UNL     1      -1.545  -4.931   2.901  0.00  0.00    +0.027 A 
ATOM     13  C   UNL     1      -1.910  -3.704   3.356  0.00  0.00    -0.046 A 
ATOM     14  C   UNL     1      -2.195  -3.533   4.826  0.00  0.00    +0.044 C 
ATOM     15  H   UNL     1      -0.840  -7.062   1.746  0.00  0.00    +0.155 HD
ENDBRANCH   1   7
BRANCH   1  16
ATOM     16  C   UNL     1      -1.835  -4.832  -3.324  0.00  0.00    +0.205 C 
ATOM     17  N   UNL     1      -2.422  -3.618  -2.741  0.00  0.00    -0.152 NA
ATOM     18  N   UNL     1      -3.481  -3.369  -3.322  0.00  0.00    -0.070 NA
ATOM     19  N   UNL     1      -3.781  -4.292  -4.323  0.00  0.00    -0.179 N 
ATOM     20  N   UNL     1      -2.787  -5.238  -4.379  0.00  0.00    -0.185 NA
ATOM     21  H   UNL     1      -4.567  -4.269  -4.890  0.00  0.00    +0.191 HD
BRANCH  20  22
ATOM     22  C   UNL     1      -2.140  -5.247  -5.698  0.00  0.00    +0.080 C 
ATOM     23  C   UNL     1      -1.771  -3.808  -6.115  0.00  0.00    +0.021 C 
ATOM     24  C   UNL     1      -2.032  -3.776  -7.642  0.00  0.00    +0.002 C 
ATOM     25  C   UNL     1      -3.309  -4.640  -7.788  0.00  0.00    +0.002 C 
ATOM     26  C   UNL     1      -3.118  -5.776  -6.762  0.00  0.00    +0.021 C 
ENDBRANCH  20  22
ENDBRANCH   1  16
BRANCH   1  27
ATOM     27  N   UNL     1      -1.245  -7.170  -2.895  0.00  0.00    +0.390 N 
ATOM     28  H   UNL     1      -0.943  -7.816  -2.182  0.00  0.00    -0.080 HD
BRANCH  27  29
ATOM     29  C   UNL     1      -2.340  -7.769  -3.668  0.00  0.00    -0.042 C 
BRANCH  29  30
ATOM     30  C   UNL     1      -1.918  -9.127  -4.167  0.00  0.00    -0.064 A 
ATOM     31  C   UNL     1      -1.289  -9.249  -5.392  0.00  0.00    +0.002 A 
ATOM     32  C   UNL     1      -0.902 -10.495  -5.849  0.00  0.00    +0.000 A 
ATOM     33  C   UNL     1      -1.143 -11.618  -5.082  0.00  0.00    +0.000 A 
ATOM     34  C   UNL     1      -1.772 -11.497  -3.857  0.00  0.00    +0.000 A 
ATOM     35  C   UNL     1      -2.155 -10.251  -3.397  0.00  0.00    +0.002 A 
ENDBRANCH  29  30
ENDBRANCH  27  29
BRANCH  27  36
ATOM     36  C   UNL     1      -0.120  -6.869  -3.791  0.00  0.00    -0.040 C 
BRANCH  36  37
ATOM     37  C   UNL     1       1.119  -6.613  -2.973  0.00  0.00    -0.046 A 
ATOM     38  C   UNL     1       1.756  -5.383  -3.029  0.00  0.00    +0.005 A 
ATOM     39  C   UNL     1       2.893  -5.193  -2.260  0.00  0.00    +0.020 A 
ATOM     40  C   UNL     1       3.352  -6.229  -1.468  0.00  0.00    +0.111 A 
ATOM     41  N   UNL     1       2.721  -7.386  -1.440  0.00  0.00    -0.263 NA
ATOM     42  C   UNL     1       1.633  -7.601  -2.154  0.00  0.00    +0.112 A 
ENDBRANCH  36  37
ENDBRANCH  27  36
ENDBRANCH   1  27
TORSDOF 8
