REMARK  Name = ZINC63375525
REMARK  8 active torsions:
REMARK  status: ('A' for Active; 'I' for Inactive)
REMARK    1  A    between atoms: C_1  and  C_2
REMARK    2  A    between atoms: C_2  and  C_3
REMARK    3  A    between atoms: C_3  and  N_4
REMARK    4  A    between atoms: C_5  and  C_7
REMARK    5  A    between atoms: C_12  and  N_13
REMARK    6  A    between atoms: C_29  and  C_34
REMARK    7  A    between atoms: C_38  and  O_40
REMARK    8  A    between atoms: O_40  and  C_41
REMARK                            x       y       z     vdW  Elec       q    Type
REMARK                         _______ _______ _______ _____ _____    ______ ____
ROOT
ATOM      1  N   UNL     1      -5.193  -4.560   0.098  0.00  0.00    -0.192 N 
ATOM      2  C   UNL     1      -5.835  -4.171  -1.023  0.00  0.00    +0.248 C 
ATOM      3  O   UNL     1      -5.521  -4.414  -2.168  0.00  0.00    -0.273 OA
ATOM      4  C   UNL     1      -7.029  -3.370  -0.553  0.00  0.00    +0.169 C 
ATOM      5  C   UNL     1      -6.968  -1.946  -1.134  0.00  0.00    +0.065 C 
ATOM      6  C   UNL     1      -7.781  -1.073  -0.207  0.00  0.00    -0.034 C 
ATOM      7  C   UNL     1      -8.799  -0.256  -0.458  0.00  0.00    -0.001 A 
ATOM      8  C   UNL     1      -9.428   0.163  -1.721  0.00  0.00    +0.010 A 
ATOM      9  C   UNL     1     -10.484   1.013  -1.611  0.00  0.00    +0.001 A 
ATOM     10  C   UNL     1     -10.969   1.483  -0.387  0.00  0.00    +0.002 A 
ATOM     11  C   UNL     1     -10.445   1.156   0.822  0.00  0.00    +0.026 A 
ATOM     12  C   UNL     1      -9.327   0.273   0.836  0.00  0.00    +0.043 A 
ATOM     13  N   UNL     1      -8.627  -0.183   1.832  0.00  0.00    -0.375 N 
ATOM     14  C   UNL     1      -7.543  -1.009   1.296  0.00  0.00    +0.131 C 
ATOM     15  C   UNL     1      -7.618  -2.449   1.822  0.00  0.00    +0.135 C 
ATOM     16  N   UNL     1      -6.835  -3.299   0.909  0.00  0.00    -0.264 N 
ATOM     17  C   UNL     1      -5.792  -4.086   1.200  0.00  0.00    +0.317 C 
ATOM     18  O   UNL     1      -5.428  -4.340   2.332  0.00  0.00    -0.252 OA
ATOM     19  H   UNL     1      -8.795  -0.007   2.771  0.00  0.00    +0.160 HD
ENDROOT
BRANCH   1  25
ATOM     20  C   UNL     1      -2.777  -4.772   0.066  0.00  0.00    +0.059 A 
ATOM     21  C   UNL     1      -1.640  -5.584   0.084  0.00  0.00    +0.015 A 
ATOM     22  C   UNL     1      -1.775  -6.955   0.138  0.00  0.00    +0.001 A 
ATOM     23  C   UNL     1      -3.034  -7.532   0.174  0.00  0.00    +0.002 A 
ATOM     24  C   UNL     1      -4.166  -6.742   0.158  0.00  0.00    +0.025 A 
ATOM     25  C   UNL     1      -4.049  -5.361   0.110  0.00  0.00    +0.058 A 
BRANCH  20  27
ATOM     26  N   UNL     1      -1.415  -2.743  -0.032  0.00  0.00    -0.311 N 
ATOM     27  C   UNL     1      -2.640  -3.304   0.009  0.00  0.00    +0.246 C 
ATOM     28  O   UNL     1      -3.631  -2.601  -0.001  0.00  0.00    -0.270 OA
ATOM     29  H   UNL     1      -0.624  -3.304  -0.024  0.00  0.00    +0.149 HD
BRANCH  26  30
ATOM     30  C   UNL     1      -1.279  -1.286  -0.089  0.00  0.00    +0.104 C 
BRANCH  30  32
ATOM     31  C   UNL     1       0.347   0.609  -0.187  0.00  0.00    +0.005 C 
ATOM     32  C   UNL     1       0.205  -0.913  -0.128  0.00  0.00    +0.015 C 
ENDBRANCH  30  32
ENDBRANCH  26  30
ENDBRANCH  20  27
ENDBRANCH   1  25
BRANCH  15  33
ATOM     33  C   UNL     1      -7.044  -2.520   3.214  0.00  0.00    -0.021 A 
ATOM     34  C   UNL     1      -5.740  -2.120   3.444  0.00  0.00    +0.006 A 
ATOM     35  C   UNL     1      -5.211  -2.184   4.720  0.00  0.00    +0.004 A 
ATOM     36  C   UNL     1      -5.983  -2.647   5.768  0.00  0.00    +0.045 A 
ATOM     37  C   UNL     1      -7.291  -3.047   5.539  0.00  0.00    +0.120 A 
ATOM     38  C   UNL     1      -7.822  -2.977   4.259  0.00  0.00    +0.051 A 
BRANCH  37  39
ATOM     39  O   UNL     1      -8.053  -3.503   6.568  0.00  0.00    -0.495 OA
ATOM     40  C   UNL     1      -7.443  -3.542   7.859  0.00  0.00    +0.277 C 
ENDBRANCH  37  39
ENDBRANCH  15  33
TORSDOF 6
