REMARK  Name = ZINC22323273
REMARK  12 active torsions:
REMARK  status: ('A' for Active; 'I' for Inactive)
REMARK    1  A    between atoms: C_1  and  C_2
REMARK    2  A    between atoms: C_5  and  S_8
REMARK    3  A    between atoms: S_8  and  N_11
REMARK    4  A    between atoms: N_11  and  C_12
REMARK    5  A    between atoms: N_11  and  C_27
REMARK    6  A    between atoms: C_12  and  C_13
REMARK    7  A    between atoms: N_15  and  C_16
REMARK    8  A    between atoms: C_16  and  C_17
REMARK    9  A    between atoms: C_21  and  O_23
REMARK   10  A    between atoms: O_23  and  C_24
REMARK   11  A    between atoms: C_24  and  C_25
REMARK   12  A    between atoms: C_24  and  C_26
REMARK                            x       y       z     vdW  Elec       q    Type
REMARK                         _______ _______ _______ _____ _____    ______ ____
ROOT
ATOM      1  N   UNL     1      -0.294   9.021  -4.137  0.00  0.00    -0.194 N 
ENDROOT
BRANCH   1   2
ATOM      2  C   UNL     1       1.038   9.437  -4.079  0.00  0.00    +0.055 A 
ATOM      3  C   UNL     1       1.355  10.684  -3.555  0.00  0.00    +0.044 A 
ATOM      4  C   UNL     1       2.675  11.091  -3.494  0.00  0.00    +0.044 A 
ATOM      5  C   UNL     1       3.678  10.263  -3.964  0.00  0.00    +0.040 A 
ATOM      6  C   UNL     1       3.365   9.022  -4.491  0.00  0.00    +0.044 A 
ATOM      7  C   UNL     1       2.048   8.607  -4.550  0.00  0.00    +0.044 A 
ATOM      8 CL   UNL     1       4.627   7.986  -5.080  0.00  0.00    -0.083 Cl
ATOM      9 CL   UNL     1       3.072  12.647  -2.833  0.00  0.00    -0.083 Cl
ENDBRANCH   1   2
BRANCH   1  10
ATOM     10  S   UNL     1      -1.440  10.006  -4.814  0.00  0.00    +0.075 S 
ATOM     11  O   UNL     1      -0.742  10.960  -5.601  0.00  0.00    -0.150 OA
ATOM     12  O   UNL     1      -2.439   9.153  -5.357  0.00  0.00    -0.150 OA
BRANCH  10  17
ATOM     13  C   UNL     1      -4.047  13.062  -0.311  0.00  0.00    +0.044 C 
ATOM     14  C   UNL     1      -3.396  12.299  -1.436  0.00  0.00    -0.050 A 
ATOM     15  C   UNL     1      -2.350  12.864  -2.140  0.00  0.00    +0.005 A 
ATOM     16  C   UNL     1      -1.752  12.164  -3.172  0.00  0.00    +0.029 A 
ATOM     17  C   UNL     1      -2.201  10.898  -3.499  0.00  0.00    +0.109 A 
ATOM     18  C   UNL     1      -3.251  10.335  -2.798  0.00  0.00    +0.029 A 
ATOM     19  C   UNL     1      -3.846  11.033  -1.763  0.00  0.00    +0.005 A 
ENDBRANCH  10  17
ENDBRANCH   1  10
BRANCH   1  20
ATOM     20  C   UNL     1      -0.677   7.713  -3.600  0.00  0.00    +0.227 C 
BRANCH  20  21
ATOM     21  C   UNL     1      -0.930   7.832  -2.120  0.00  0.00    +0.232 C 
ATOM     22  O   UNL     1      -0.803   8.904  -1.567  0.00  0.00    -0.274 OA
ATOM     23  N   UNL     1      -1.297   6.747  -1.409  0.00  0.00    -0.310 N 
ATOM     24  H   UNL     1      -1.412   5.774  -1.910  0.00  0.00    +0.149 HD
BRANCH  23  25
ATOM     25  C   UNL     1      -1.543   6.863   0.030  0.00  0.00    +0.139 C 
BRANCH  25  26
ATOM     26  C   UNL     1      -1.937   5.517   0.583  0.00  0.00    -0.027 A 
ATOM     27  C   UNL     1      -0.966   4.652   1.053  0.00  0.00    +0.005 A 
ATOM     28  C   UNL     1      -1.324   3.417   1.560  0.00  0.00    +0.004 A 
ATOM     29  C   UNL     1      -2.653   3.044   1.598  0.00  0.00    +0.045 A 
ATOM     30  C   UNL     1      -3.629   3.907   1.122  0.00  0.00    +0.121 A 
ATOM     31  C   UNL     1      -3.268   5.149   0.619  0.00  0.00    +0.050 A 
BRANCH  30  32
ATOM     32  O   UNL     1      -4.937   3.540   1.153  0.00  0.00    -0.489 OA
BRANCH  32  33
ATOM     33  C   UNL     1      -5.226   2.205   1.573  0.00  0.00    +0.167 C 
ATOM     34  C   UNL     1      -6.660   2.136   2.102  0.00  0.00    +0.051 C 
ATOM     35  C   UNL     1      -5.074   1.253   0.385  0.00  0.00    +0.051 C 
ENDBRANCH  32  33
ENDBRANCH  30  32
ENDBRANCH  25  26
ENDBRANCH  23  25
ENDBRANCH  20  21
ENDBRANCH   1  20
TORSDOF 9
