REMARK  Name = ZINC22756282
REMARK  13 active torsions:
REMARK  status: ('A' for Active; 'I' for Inactive)
REMARK    1  A    between atoms: C_1  and  C_2
REMARK    2  A    between atoms: C_3  and  C_34
REMARK    3  A    between atoms: C_4  and  C_22
REMARK    4  A    between atoms: C_12  and  C_13
REMARK    5  A    between atoms: C_16  and  O_19
REMARK    6  A    between atoms: C_25  and  O_30
REMARK    7  A    between atoms: C_26  and  O_28
REMARK    8  A    between atoms: O_28  and  C_29
REMARK    9  A    between atoms: O_30  and  C_31
REMARK   10  A    between atoms: C_31  and  C_32
REMARK   11  A    between atoms: C_31  and  C_33
REMARK   12  A    between atoms: C_34  and  O_36
REMARK   13  A    between atoms: O_36  and  C_37
REMARK                            x       y       z     vdW  Elec       q    Type
REMARK                         _______ _______ _______ _____ _____    ______ ____
ROOT
ATOM      1  C   UNL     1       7.505   5.372   1.984  0.00  0.00    +0.061 C 
ATOM      2  C   UNL     1       6.996   5.137   0.586  0.00  0.00    +0.015 C 
ATOM      3  C   UNL     1       5.713   5.426   0.318  0.00  0.00    +0.078 C 
ATOM      4  C   UNL     1       5.107   5.242  -1.050  0.00  0.00    +0.148 C 
ATOM      5  N   UNL     1       6.061   4.439  -1.857  0.00  0.00    -0.258 N 
ATOM      6  C   UNL     1       7.512   4.761  -1.769  0.00  0.00    +0.227 C 
ATOM      7  N   UNL     1       7.863   4.641  -0.346  0.00  0.00    -0.320 N 
ATOM      8  S   UNL     1       8.270   3.376  -2.701  0.00  0.00    -0.078 S 
ATOM      9  C   UNL     1       6.764   2.579  -3.239  0.00  0.00    +0.074 C 
ATOM     10  C   UNL     1       6.620   1.470  -4.003  0.00  0.00    +0.028 C 
ATOM     11  C   UNL     1       5.721   3.429  -2.644  0.00  0.00    +0.256 C 
ATOM     12  O   UNL     1       4.548   3.204  -2.875  0.00  0.00    -0.269 OA
ATOM     13  H   UNL     1       8.807   4.160  -0.051  0.00  0.00    +0.148 HD
ENDROOT
BRANCH  10  14
ATOM     14  C   UNL     1       7.793   0.864  -4.647  0.00  0.00    -0.024 A 
ATOM     15  C   UNL     1       8.971   1.603  -4.800  0.00  0.00    +0.011 A 
ATOM     16  C   UNL     1      10.069   1.028  -5.400  0.00  0.00    +0.046 A 
ATOM     17  C   UNL     1      10.006  -0.280  -5.864  0.00  0.00    +0.117 A 
ATOM     18  C   UNL     1       8.836  -1.017  -5.719  0.00  0.00    +0.046 A 
ATOM     19  C   UNL     1       7.734  -0.454  -5.116  0.00  0.00    +0.011 A 
BRANCH  17  20
ATOM     20  O   UNL     1      11.090  -0.841  -6.459  0.00  0.00    -0.507 OA
ATOM     21  H   UNL     1      11.041  -1.877  -6.827  0.00  0.00    +0.292 HD
ENDBRANCH  17  20
ENDBRANCH  10  14
BRANCH   4  22
ATOM     22  C   UNL     1       3.793   4.513  -0.935  0.00  0.00    -0.019 A 
ATOM     23  C   UNL     1       3.778   3.141  -0.766  0.00  0.00    +0.009 A 
ATOM     24  C   UNL     1       2.575   2.469  -0.654  0.00  0.00    +0.050 A 
ATOM     25  C   UNL     1       1.381   3.168  -0.723  0.00  0.00    +0.162 A 
ATOM     26  C   UNL     1       1.397   4.550  -0.893  0.00  0.00    +0.162 A 
ATOM     27  C   UNL     1       2.606   5.218  -0.999  0.00  0.00    +0.055 A 
BRANCH  26  28
ATOM     28  O   UNL     1       0.228   5.242  -0.955  0.00  0.00    -0.491 OA
ATOM     29  C   UNL     1       0.320   6.657  -1.130  0.00  0.00    +0.277 C 
ENDBRANCH  26  28
BRANCH  25  30
ATOM     30  O   UNL     1       0.197   2.508  -0.619  0.00  0.00    -0.486 OA
BRANCH  30  31
ATOM     31  C   UNL     1       0.258   1.091  -0.446  0.00  0.00    +0.167 C 
ATOM     32  C   UNL     1       0.444   0.765   1.037  0.00  0.00    +0.051 C 
ATOM     33  C   UNL     1      -1.042   0.459  -0.947  0.00  0.00    +0.051 C 
ENDBRANCH  30  31
ENDBRANCH  25  30
ENDBRANCH   4  22
BRANCH   3  34
ATOM     34  C   UNL     1       4.896   5.920   1.359  0.00  0.00    +0.338 C 
ATOM     35  O   UNL     1       5.360   6.078   2.473  0.00  0.00    -0.245 OA
BRANCH  34  36
ATOM     36  O   UNL     1       3.602   6.218   1.118  0.00  0.00    -0.465 OA
ATOM     37  C   UNL     1       2.835   6.714   2.217  0.00  0.00    +0.280 C 
ENDBRANCH  34  36
ENDBRANCH   3  34
TORSDOF 8
