REMARK  Name = ZINC12474449
REMARK  10 active torsions:
REMARK  status: ('A' for Active; 'I' for Inactive)
REMARK    1  A    between atoms: C_1  and  C_2
REMARK    2  A    between atoms: C_2  and  O_3
REMARK    3  A    between atoms: O_3  and  C_4
REMARK    4  A    between atoms: C_7  and  C_10
REMARK    5  A    between atoms: C_10  and  N_62
REMARK    6  A    between atoms: C_16  and  C_18
REMARK    7  A    between atoms: C_18  and  C_19
REMARK    8  A    between atoms: N_21  and  C_22
REMARK    9  A    between atoms: C_22  and  C_23
REMARK   10  A    between atoms: C_30  and  C_33
REMARK                            x       y       z     vdW  Elec       q    Type
REMARK                         _______ _______ _______ _____ _____    ______ ____
ROOT
ATOM      1  C   UNL     1      -0.210   9.261   2.529  0.00  0.00    -0.058 C 
ATOM      2  C   UNL     1      -0.358   9.681   3.992  0.00  0.00    +0.085 C 
ATOM      3  N   UNL     1       0.570   8.923   4.827  0.00  0.00    -0.318 N 
ATOM      4  C   UNL     1       1.145   7.785   4.425  0.00  0.00    +0.200 C 
ATOM      5  O   UNL     1       1.880   7.202   5.194  0.00  0.00    -0.278 OA
ATOM      6  C   UNL     1       0.919   7.197   3.060  0.00  0.00    +0.028 C 
ATOM      7  H   UNL     1       0.778   9.260   5.712  0.00  0.00    +0.149 HD
ATOM      8  N   UNL     1      -0.294   7.788   2.465  0.00  0.00    +0.391 N 
ATOM      9  H   UNL     1      -1.115   7.476   2.997  0.00  0.00    -0.080 HD
ENDROOT
BRANCH   8  10
ATOM     10  C   UNL     1      -0.434   7.347   1.058  0.00  0.00    -0.042 C 
BRANCH  10  14
ATOM     11  C   UNL     1      -3.776   9.342  -0.706  0.00  0.00    +0.121 A 
ATOM     12  C   UNL     1      -2.510   9.905  -0.784  0.00  0.00    +0.046 A 
ATOM     13  C   UNL     1      -1.432   9.258  -0.214  0.00  0.00    +0.005 A 
ATOM     14  C   UNL     1      -1.613   8.051   0.436  0.00  0.00    -0.064 A 
ATOM     15  C   UNL     1      -2.872   7.486   0.511  0.00  0.00    +0.005 A 
ATOM     16  C   UNL     1      -3.955   8.131  -0.053  0.00  0.00    +0.046 A 
BRANCH  11  17
ATOM     17  O   UNL     1      -4.839   9.977  -1.267  0.00  0.00    -0.492 OA
BRANCH  17  19
ATOM     18  C   UNL     1      -7.178  10.195  -1.834  0.00  0.00    +0.048 C 
ATOM     19  C   UNL     1      -6.112   9.339  -1.147  0.00  0.00    +0.225 C 
ENDBRANCH  17  19
ENDBRANCH  11  17
ENDBRANCH  10  14
ENDBRANCH   8  10
BRANCH   6  20
ATOM     20  C   UNL     1       0.727   5.685   3.184  0.00  0.00    +0.089 C 
BRANCH  20  21
ATOM     21  C   UNL     1      -0.472   5.400   4.051  0.00  0.00    +0.212 C 
ATOM     22  O   UNL     1      -1.167   6.313   4.444  0.00  0.00    -0.276 OA
ATOM     23  N   UNL     1      -0.773   4.131   4.390  0.00  0.00    -0.311 N 
ATOM     24  H   UNL     1      -0.217   3.400   4.076  0.00  0.00    +0.149 HD
BRANCH  23  25
ATOM     25  C   UNL     1      -1.938   3.854   5.233  0.00  0.00    +0.139 C 
BRANCH  25  26
ATOM     26  C   UNL     1      -2.051   2.369   5.462  0.00  0.00    -0.030 A 
ATOM     27  C   UNL     1      -2.792   1.590   4.583  0.00  0.00    +0.007 A 
ATOM     28  C   UNL     1      -2.907   0.231   4.774  0.00  0.00    +0.026 A 
ATOM     29  C   UNL     1      -2.277  -0.370   5.859  0.00  0.00    +0.047 A 
ATOM     30  C   UNL     1      -1.529   0.423   6.748  0.00  0.00    +0.000 A 
ATOM     31  C   UNL     1      -1.425   1.799   6.535  0.00  0.00    +0.015 A 
ATOM     32  C   UNL     1      -1.004  -0.493   7.763  0.00  0.00    +0.030 A 
ATOM     33  C   UNL     1      -1.441  -1.722   7.447  0.00  0.00    +0.014 A 
ATOM     34  N   UNL     1      -2.204  -1.668   6.313  0.00  0.00    -0.358 N 
ATOM     35  H   UNL     1      -2.630  -2.431   5.891  0.00  0.00    +0.166 HD
ATOM     36  C   UNL     1      -1.137  -2.975   8.227  0.00  0.00    +0.063 C 
ENDBRANCH  25  26
ENDBRANCH  23  25
ENDBRANCH  20  21
ENDBRANCH   6  20
TORSDOF 8
