REMARK  Name = ZINC08962350
REMARK  6 active torsions:
REMARK  status: ('A' for Active; 'I' for Inactive)
REMARK    1  A    between atoms: C_1  and  C_2
REMARK    2  A    between atoms: C_2  and  C_26
REMARK    3  A    between atoms: C_8  and  N_14
REMARK    4  A    between atoms: N_14  and  S_15
REMARK    5  A    between atoms: S_15  and  C_18
REMARK    6  A    between atoms: C_18  and  C_19
REMARK                            x       y       z     vdW  Elec       q    Type
REMARK                         _______ _______ _______ _____ _____    ______ ____
ROOT
ATOM      1  C   UNL     1       0.614  -1.612  -0.680  0.00  0.00    +0.035 C 
ATOM      2  C   UNL     1       0.826  -0.116  -0.436  0.00  0.00    +0.063 C 
ATOM      3  C   UNL     1      -0.401   0.649  -0.916  0.00  0.00    +0.254 C 
ATOM      4  O   UNL     1      -0.412   1.983  -0.424  0.00  0.00    -0.489 OA
ATOM      5  C   UNL     1       0.754   2.676  -0.486  0.00  0.00    +0.133 A 
ATOM      6  C   UNL     1       0.935   3.681  -1.421  0.00  0.00    +0.048 A 
ATOM      7  C   UNL     1       2.132   4.369  -1.471  0.00  0.00    +0.028 A 
ATOM      8  C   UNL     1       3.161   4.060  -0.587  0.00  0.00    +0.049 A 
ATOM      9  C   UNL     1       2.992   3.059   0.355  0.00  0.00    +0.041 A 
ATOM     10  C   UNL     1       1.786   2.363   0.412  0.00  0.00    +0.080 A 
ATOM     11  C   UNL     1       1.569   1.294   1.406  0.00  0.00    +0.248 C 
ATOM     12  O   UNL     1       1.847   1.472   2.576  0.00  0.00    -0.270 OA
ATOM     13  N   UNL     1       1.054   0.112   0.992  0.00  0.00    -0.303 N 
ATOM     14  C   UNL     1       2.051   0.353  -1.222  0.00  0.00    +0.035 C 
ATOM     15  H   UNL     1       0.838  -0.579   1.637  0.00  0.00    +0.150 HD
ENDROOT
BRANCH   8  16
ATOM     16  N   UNL     1       4.370   4.762  -0.651  0.00  0.00    -0.220 N 
ATOM     17  H   UNL     1       4.574   5.437   0.015  0.00  0.00    +0.173 HD
BRANCH  16  18
ATOM     18  S   UNL     1       5.451   4.442  -1.863  0.00  0.00    +0.047 S 
ATOM     19  O   UNL     1       4.697   4.559  -3.062  0.00  0.00    -0.155 OA
ATOM     20  O   UNL     1       6.548   5.309  -1.610  0.00  0.00    -0.155 OA
BRANCH  18  21
ATOM     21  C   UNL     1       5.946   2.716  -1.602  0.00  0.00    +0.225 C 
BRANCH  21  22
ATOM     22  C   UNL     1       6.846   2.276  -2.728  0.00  0.00    -0.006 A 
ATOM     23  C   UNL     1       6.305   1.701  -3.862  0.00  0.00    +0.007 A 
ATOM     24  C   UNL     1       7.130   1.301  -4.896  0.00  0.00    +0.000 A 
ATOM     25  C   UNL     1       8.499   1.467  -4.793  0.00  0.00    +0.001 A 
ATOM     26  C   UNL     1       9.042   2.037  -3.657  0.00  0.00    +0.020 A 
ATOM     27  C   UNL     1       8.216   2.442  -2.623  0.00  0.00    +0.046 A 
ATOM     28 CL   UNL     1       8.897   3.157  -1.196  0.00  0.00    -0.083 Cl
ENDBRANCH  21  22
ENDBRANCH  18  21
ENDBRANCH  16  18
ENDBRANCH   8  16
TORSDOF 4
