REMARK  Name = ZINC38685292
REMARK  12 active torsions:
REMARK  status: ('A' for Active; 'I' for Inactive)
REMARK    1  A    between atoms: C_1  and  C_2
REMARK    2  A    between atoms: C_2  and  C_3
REMARK    3  A    between atoms: C_3  and  C_4
REMARK    4  A    between atoms: C_4  and  C_5
REMARK    5  A    between atoms: C_5  and  O_6
REMARK    6  A    between atoms: O_6  and  C_7
REMARK    7  A    between atoms: C_10  and  C_13
REMARK    8  A    between atoms: C_18  and  O_27
REMARK    9  A    between atoms: C_22  and  N_26
REMARK   10  A    between atoms: C_23  and  C_24
REMARK   11  A    between atoms: O_27  and  C_28
REMARK   12  A    between atoms: C_28  and  C_30
REMARK                            x       y       z     vdW  Elec       q    Type
REMARK                         _______ _______ _______ _____ _____    ______ ____
ROOT
ATOM      1  C   UNL     1       4.019  -6.403  -6.935  0.00  0.00    +0.098 C 
ATOM      2  C   UNL     1       5.151  -7.261  -6.435  0.00  0.00    +0.008 A 
ATOM      3  C   UNL     1       6.370  -6.676  -6.140  0.00  0.00    +0.012 A 
ATOM      4  C   UNL     1       7.419  -7.447  -5.681  0.00  0.00    +0.047 A 
ATOM      5  C   UNL     1       7.253  -8.815  -5.513  0.00  0.00    +0.135 A 
ATOM      6  C   UNL     1       6.034  -9.404  -5.806  0.00  0.00    +0.093 A 
ATOM      7  C   UNL     1       4.979  -8.626  -6.268  0.00  0.00    +0.138 A 
ATOM      8  O   UNL     1       3.793  -9.218  -6.551  0.00  0.00    -0.441 OA
ATOM      9  C   UNL     1       2.905  -8.594  -7.344  0.00  0.00    +0.199 C 
ATOM     10  C   UNL     1       2.959  -7.262  -7.565  0.00  0.00    +0.098 C 
ENDROOT
BRANCH   1  14
ATOM     11  C   UNL     1       2.328  -4.239  -3.661  0.00  0.00    +0.121 A 
ATOM     12  C   UNL     1       2.881  -3.555  -4.735  0.00  0.00    +0.046 A 
ATOM     13  C   UNL     1       3.427  -4.257  -5.792  0.00  0.00    +0.008 A 
ATOM     14  C   UNL     1       3.423  -5.640  -5.781  0.00  0.00    -0.034 A 
ATOM     15  C   UNL     1       2.873  -6.324  -4.712  0.00  0.00    +0.008 A 
ATOM     16  C   UNL     1       2.331  -5.626  -3.650  0.00  0.00    +0.046 A 
BRANCH  11  17
ATOM     17  O   UNL     1       1.791  -3.551  -2.620  0.00  0.00    -0.492 OA
BRANCH  17  18
ATOM     18  C   UNL     1       1.823  -2.124  -2.700  0.00  0.00    +0.229 C 
BRANCH  18  19
ATOM     19  C   UNL     1       1.177  -1.529  -1.447  0.00  0.00    +0.041 C 
BRANCH  19  20
ATOM     20  C   UNL     1       1.212  -0.002  -1.532  0.00  0.00    +0.003 C 
BRANCH  20  22
ATOM     21  C   UNL     1       0.601   2.120  -0.364  0.00  0.00    +0.004 C 
ATOM     22  C   UNL     1       0.566   0.593  -0.279  0.00  0.00    -0.003 C 
ENDBRANCH  20  22
ENDBRANCH  19  20
ENDBRANCH  18  19
ENDBRANCH  17  18
ENDBRANCH  11  17
ENDBRANCH   1  14
BRANCH   9  23
ATOM     23  N   UNL     1       1.916  -9.331  -7.945  0.00  0.00    -0.328 N 
ATOM     24  H   UNL     1       1.865 -10.288  -7.795  0.00  0.00    +0.145 HD
ATOM     25  H   UNL     1       1.268  -8.895  -8.520  0.00  0.00    +0.145 HD
ENDBRANCH   9  23
BRANCH  10  26
ATOM     26  C   UNL     1       1.982  -6.657  -8.420  0.00  0.00    +0.101 C 
ATOM     27  N   UNL     1       1.207  -6.178  -9.098  0.00  0.00    -0.191 NA
ENDBRANCH  10  26
BRANCH   5  28
ATOM     28  O   UNL     1       8.284  -9.576  -5.061  0.00  0.00    -0.422 OA
BRANCH  28  29
ATOM     29  C   UNL     1       8.674  -9.417  -3.781  0.00  0.00    +0.344 C 
ATOM     30  O   UNL     1       8.042  -8.692  -3.039  0.00  0.00    -0.245 OA
BRANCH  29  31
ATOM     31  C   UNL     1       9.868 -10.126  -3.279  0.00  0.00    +0.059 A 
ATOM     32  C   UNL     1      10.600 -10.956  -4.131  0.00  0.00    +0.016 A 
ATOM     33  C   UNL     1      11.715 -11.615  -3.657  0.00  0.00    +0.021 A 
ATOM     34  C   UNL     1      12.109 -11.455  -2.339  0.00  0.00    +0.041 A 
ATOM     35  C   UNL     1      11.387 -10.633  -1.489  0.00  0.00    +0.021 A 
ATOM     36  C   UNL     1      10.275  -9.964  -1.953  0.00  0.00    +0.016 A 
ATOM     37 CL   UNL     1      13.513 -12.288  -1.749  0.00  0.00    -0.084 Cl
ENDBRANCH  29  31
ENDBRANCH  28  29
ENDBRANCH   5  28
TORSDOF 11
