REMARK  Name = ZINC54245518
REMARK  4 active torsions:
REMARK  status: ('A' for Active; 'I' for Inactive)
REMARK    1  A    between atoms: C_5  and  C_7
REMARK    2  A    between atoms: C_7  and  C_8
REMARK    3  A    between atoms: C_14  and  N_18
REMARK    4  A    between atoms: C_19  and  C_21
REMARK                            x       y       z     vdW  Elec       q    Type
REMARK                         _______ _______ _______ _____ _____    ______ ____
ROOT
ATOM      1  C   UNL     1       1.367  -2.723   1.385  0.00  0.00    +0.113 A 
ATOM      2  N   UNL     1       0.530  -3.610   1.988  0.00  0.00    -0.342 N 
ATOM      3  H   UNL     1      -0.253  -4.022   1.590  0.00  0.00    +0.167 HD
ATOM      4  C   UNL     1       1.002  -3.815   3.270  0.00  0.00    +0.066 A 
ATOM      5  C   UNL     1       0.582  -4.594   4.339  0.00  0.00    +0.029 A 
ATOM      6  C   UNL     1       1.289  -4.580   5.521  0.00  0.00    +0.025 A 
ATOM      7  C   UNL     1       2.427  -3.786   5.652  0.00  0.00    +0.036 A 
ATOM      8  C   UNL     1       2.858  -3.004   4.597  0.00  0.00    +0.053 A 
ATOM      9  C   UNL     1       2.149  -3.012   3.393  0.00  0.00    +0.091 A 
ATOM     10  N   UNL     1       2.317  -2.377   2.205  0.00  0.00    -0.232 NA
ENDROOT
BRANCH   7  11
ATOM     11  N   UNL     1       3.137  -3.780   6.859  0.00  0.00    -0.285 N 
ATOM     12  C   UNL     1       2.478  -3.893   8.029  0.00  0.00    +0.225 C 
ATOM     13  O   UNL     1       1.280  -4.084   8.035  0.00  0.00    -0.275 OA
ATOM     14  H   UNL     1       4.104  -3.694   6.853  0.00  0.00    +0.155 HD
BRANCH  12  15
ATOM     15  C   UNL     1       3.229  -3.783   9.331  0.00  0.00    +0.116 C 
ATOM     16  C   UNL     1       4.295  -4.878   9.399  0.00  0.00    +0.113 C 
ATOM     17  C   UNL     1       3.639  -6.219   9.596  0.00  0.00    +0.218 C 
ATOM     18  O   UNL     1       4.118  -7.202   9.072  0.00  0.00    -0.275 OA
ATOM     19  N   UNL     1       2.530  -6.339  10.347  0.00  0.00    -0.285 N 
ATOM     20  C   UNL     1       1.954  -5.214  10.945  0.00  0.00    +0.037 A 
ATOM     21  C   UNL     1       2.269  -3.944  10.480  0.00  0.00    -0.014 A 
ATOM     22  C   UNL     1       1.701  -2.833  11.071  0.00  0.00    +0.006 A 
ATOM     23  C   UNL     1       0.820  -2.984  12.127  0.00  0.00    +0.000 A 
ATOM     24  C   UNL     1       0.504  -4.247  12.592  0.00  0.00    +0.002 A 
ATOM     25  C   UNL     1       1.067  -5.362  12.003  0.00  0.00    +0.023 A 
ATOM     26  H   UNL     1       2.126  -7.212  10.474  0.00  0.00    +0.155 HD
ENDBRANCH  12  15
ENDBRANCH   7  11
BRANCH   1  27
ATOM     27  C   UNL     1       1.219  -2.219  -0.027  0.00  0.00    +0.112 C 
BRANCH  27  32
ATOM     28  C   UNL     1      -0.055   1.335  -0.005  0.00  0.00    +0.000 A 
ATOM     29  C   UNL     1       1.126   2.054  -0.013  0.00  0.00    +0.003 A 
ATOM     30  C   UNL     1       2.338   1.391  -0.026  0.00  0.00    +0.038 A 
ATOM     31  C   UNL     1       2.370   0.006  -0.030  0.00  0.00    +0.127 A 
ATOM     32  C   UNL     1       1.187  -0.712  -0.022  0.00  0.00    -0.005 A 
ATOM     33  C   UNL     1      -0.025  -0.047  -0.009  0.00  0.00    +0.007 A 
ATOM     34  F   UNL     1       3.555  -0.643  -0.043  0.00  0.00    -0.205 F 
ENDBRANCH  27  32
ENDBRANCH   1  27
TORSDOF 4
