REMARK  Name = ZINC09285236
REMARK  12 active torsions:
REMARK  status: ('A' for Active; 'I' for Inactive)
REMARK    1  A    between atoms: C_1  and  C_2
REMARK    2  A    between atoms: C_2  and  C_3
REMARK    3  A    between atoms: C_3  and  N_4
REMARK    4  A    between atoms: C_6  and  O_35
REMARK    5  A    between atoms: N_13  and  C_14
REMARK    6  A    between atoms: C_14  and  C_16
REMARK    7  A    between atoms: C_19  and  S_22
REMARK    8  A    between atoms: S_22  and  N_25
REMARK    9  A    between atoms: C_27  and  C_34
REMARK   10  A    between atoms: C_30  and  C_33
REMARK   11  A    between atoms: O_35  and  C_36
REMARK   12  A    between atoms: C_36  and  C_37
REMARK                            x       y       z     vdW  Elec       q    Type
REMARK                         _______ _______ _______ _____ _____    ______ ____
ROOT
ATOM      1  C   UNL     1      -6.759  -1.310  -0.894  0.00  0.00    +0.269 C 
ATOM      2  O   UNL     1      -7.731  -0.691  -1.290  0.00  0.00    -0.268 OA
ENDROOT
BRANCH   1  12
ATOM      3  N   UNL     1      -8.508  -3.874   0.945  0.00  0.00    -0.318 N 
ATOM      4  C   UNL     1      -9.847  -4.139   1.177  0.00  0.00    +0.100 A 
ATOM      5  C   UNL     1     -10.413  -5.189   1.926  0.00  0.00    +0.145 A 
ATOM      6  C   UNL     1     -11.781  -5.303   2.054  0.00  0.00    +0.048 A 
ATOM      7  C   UNL     1     -12.635  -4.393   1.454  0.00  0.00    +0.005 A 
ATOM      8  C   UNL     1     -12.104  -3.353   0.713  0.00  0.00    +0.017 A 
ATOM      9  C   UNL     1     -10.739  -3.236   0.583  0.00  0.00    +0.042 A 
ATOM     10  S   UNL     1      -9.667  -2.088  -0.244  0.00  0.00    -0.052 S 
ATOM     11  C   UNL     1      -8.147  -2.803   0.190  0.00  0.00    +0.167 A 
ATOM     12  N   UNL     1      -6.924  -2.398  -0.134  0.00  0.00    -0.152 NA
BRANCH   3  13
ATOM     13  C   UNL     1      -7.480  -4.748   1.515  0.00  0.00    +0.124 C 
BRANCH  13  15
ATOM     14  C   UNL     1      -6.005  -5.142   3.493  0.00  0.00    +0.005 C 
ATOM     15  C   UNL     1      -7.079  -4.230   2.898  0.00  0.00    +0.018 C 
ENDBRANCH  13  15
ENDBRANCH   3  13
BRANCH   5  16
ATOM     16  O   UNL     1      -9.602  -6.099   2.528  0.00  0.00    -0.490 OA
BRANCH  16  17
ATOM     17  C   UNL     1     -10.237  -7.140   3.273  0.00  0.00    +0.226 C 
ATOM     18  C   UNL     1      -9.171  -8.060   3.873  0.00  0.00    +0.048 C 
ENDBRANCH  16  17
ENDBRANCH   5  16
ENDBRANCH   1  12
BRANCH   1  19
ATOM     19  C   UNL     1      -5.395  -0.859  -1.256  0.00  0.00    +0.039 A 
ATOM     20  C   UNL     1      -5.220   0.275  -2.048  0.00  0.00    +0.015 A 
ATOM     21  C   UNL     1      -3.947   0.691  -2.381  0.00  0.00    +0.029 A 
ATOM     22  C   UNL     1      -2.846  -0.014  -1.929  0.00  0.00    +0.106 A 
ATOM     23  C   UNL     1      -3.013  -1.143  -1.147  0.00  0.00    +0.029 A 
ATOM     24  C   UNL     1      -4.281  -1.566  -0.804  0.00  0.00    +0.015 A 
BRANCH  22  25
ATOM     25  S   UNL     1      -1.224   0.524  -2.358  0.00  0.00    +0.061 S 
ATOM     26  O   UNL     1      -1.350   1.284  -3.552  0.00  0.00    -0.153 OA
ATOM     27  O   UNL     1      -0.381  -0.616  -2.266  0.00  0.00    -0.153 OA
BRANCH  25  28
ATOM     28  N   UNL     1      -0.729   1.575  -1.178  0.00  0.00    -0.176 NA
ATOM     29  C   UNL     1      -0.013   1.086   0.008  0.00  0.00    +0.112 C 
ATOM     30  C   UNL     1      -0.736   1.583   1.264  0.00  0.00    +0.002 C 
ATOM     31  C   UNL     1      -0.878   3.105   1.196  0.00  0.00    +0.009 C 
ATOM     32  C   UNL     1      -1.712   3.490  -0.028  0.00  0.00    +0.002 C 
ATOM     33  C   UNL     1      -0.997   3.015  -1.297  0.00  0.00    +0.112 C 
ATOM     34  C   UNL     1      -3.088   2.827   0.061  0.00  0.00    +0.009 C 
ATOM     35  C   UNL     1       0.073   1.197   2.505  0.00  0.00    +0.009 C 
ENDBRANCH  25  28
ENDBRANCH  22  25
ENDBRANCH   1  19
TORSDOF 8
