REMARK  Name = ZINC00126273
REMARK  7 active torsions:
REMARK  status: ('A' for Active; 'I' for Inactive)
REMARK    1  A    between atoms: C_1  and  C_2
REMARK    2  A    between atoms: C_5  and  C_7
REMARK    3  A    between atoms: N_8  and  N_9
REMARK    4  A    between atoms: C_10  and  C_12
REMARK    5  A    between atoms: C_12  and  C_14
REMARK    6  A    between atoms: C_12  and  N_15
REMARK    7  A    between atoms: N_15  and  C_16
REMARK                            x       y       z     vdW  Elec       q    Type
REMARK                         _______ _______ _______ _____ _____    ______ ____
ROOT
ATOM      1  N   UNL     1       3.385  -5.003   0.648  0.00  0.00    -0.205 N 
ATOM      2  C   UNL     1       2.335  -4.163   0.559  0.00  0.00    +0.252 C 
ATOM      3  O   UNL     1       1.244  -4.511   0.957  0.00  0.00    -0.272 OA
ATOM      4  H   UNL     1       4.258  -4.724   0.330  0.00  0.00    +0.177 HD
ENDROOT
BRANCH   1   6
ATOM      5  C   UNL     1       4.230  -7.090   1.288  0.00  0.00    +0.176 C 
ATOM      6  N   UNL     1       3.217  -6.279   1.202  0.00  0.00    -0.185 NA
BRANCH   5  11
ATOM      7  C   UNL     1       2.078 -11.087   3.405  0.00  0.00    +0.086 C 
ATOM      8  C   UNL     1       3.117 -10.181   2.795  0.00  0.00    +0.103 A 
ATOM      9  C   UNL     1       4.417 -10.489   2.612  0.00  0.00    +0.045 A 
ATOM     10  C   UNL     1       5.026  -9.371   2.012  0.00  0.00    +0.051 A 
ATOM     11  C   UNL     1       4.054  -8.425   1.867  0.00  0.00    +0.148 A 
ATOM     12  O   UNL     1       2.901  -8.935   2.345  0.00  0.00    -0.459 OA
ENDBRANCH   5  11
ENDBRANCH   1   6
BRANCH   2  13
ATOM     13  C   UNL     1       2.517  -2.790  -0.037  0.00  0.00    +0.155 C 
ATOM     14  C   UNL     1       3.010  -2.921  -1.479  0.00  0.00    +0.038 C 
BRANCH  13  15
ATOM     15  N   UNL     1       1.237  -2.078  -0.021  0.00  0.00    -0.333 N 
ATOM     16  H   UNL     1       0.405  -2.576  -0.015  0.00  0.00    +0.147 HD
BRANCH  15  17
ATOM     17  C   UNL     1       1.215  -0.681  -0.013  0.00  0.00    +0.029 A 
ATOM     18  C   UNL     1       0.002  -0.004   0.002  0.00  0.00    +0.023 A 
ATOM     19  C   UNL     1      -0.017   1.377   0.010  0.00  0.00    +0.003 A 
ATOM     20  C   UNL     1       1.170   2.086   0.002  0.00  0.00    +0.020 A 
ATOM     21  C   UNL     1       2.381   1.415  -0.013  0.00  0.00    +0.043 A 
ATOM     22  C   UNL     1       2.406   0.033  -0.021  0.00  0.00    +0.043 A 
ATOM     23 CL   UNL     1       3.868   2.310  -0.023  0.00  0.00    -0.083 Cl
ENDBRANCH  15  17
ENDBRANCH  13  15
ENDBRANCH   2  13
TORSDOF 5
