REMARK  Name = ZINC07127041
REMARK  4 active torsions:
REMARK  status: ('A' for Active; 'I' for Inactive)
REMARK    1  A    between atoms: C_10  and  C_15
REMARK    2  A    between atoms: C_18  and  C_20
REMARK    3  A    between atoms: C_20  and  S_21
REMARK    4  A    between atoms: S_21  and  C_22
REMARK                            x       y       z     vdW  Elec       q    Type
REMARK                         _______ _______ _______ _____ _____    ______ ____
ROOT
ATOM      1  C   UNL     1      -0.017   1.373   0.010  0.00  0.00    +0.002 A 
ATOM      2  C   UNL     1       1.170   2.091   0.002  0.00  0.00    +0.002 A 
ATOM      3  C   UNL     1       2.384   1.436  -0.013  0.00  0.00    +0.028 A 
ATOM      4  C   UNL     1       2.425   0.049  -0.021  0.00  0.00    +0.072 A 
ATOM      5  C   UNL     1       1.223  -0.684  -0.014  0.00  0.00    +0.091 A 
ATOM      6  C   UNL     1       0.002  -0.004   0.002  0.00  0.00    +0.030 A 
ATOM      7  N   UNL     1       1.550  -2.004  -0.026  0.00  0.00    -0.212 NA
ATOM      8  C   UNL     1       2.850  -2.135  -0.051  0.00  0.00    +0.213 A 
ATOM      9  N   UNL     1       3.434  -0.883  -0.033  0.00  0.00    -0.284 N 
ATOM     10  C   UNL     1       4.891  -0.705  -0.021  0.00  0.00    +0.245 C 
ATOM     11  N   UNL     1       5.471  -1.938  -0.584  0.00  0.00    -0.292 N 
ATOM     12  C   UNL     1       4.897  -3.150  -0.308  0.00  0.00    +0.160 C 
ATOM     13  N   UNL     1       3.600  -3.262  -0.075  0.00  0.00    -0.302 N 
ATOM     14  N   UNL     1       5.682  -4.270  -0.272  0.00  0.00    -0.332 N 
ATOM     15  H   UNL     1       6.258  -1.890  -1.149  0.00  0.00    +0.151 HD
ATOM     16  H   UNL     1       6.635  -4.199  -0.442  0.00  0.00    +0.145 HD
ATOM     17  H   UNL     1       5.287  -5.134  -0.077  0.00  0.00    +0.145 HD
ATOM     18  H   UNL     1       3.196  -4.131   0.076  0.00  0.00    +0.171 HD
ENDROOT
BRANCH  10  19
ATOM     19  C   UNL     1       5.374  -0.506   1.393  0.00  0.00    +0.146 A 
ATOM     20  C   UNL     1       5.671   0.675   1.964  0.00  0.00    +0.049 A 
ATOM     21  C   UNL     1       6.081   0.398   3.288  0.00  0.00    +0.046 A 
ATOM     22  C   UNL     1       6.011  -0.936   3.447  0.00  0.00    +0.115 A 
ATOM     23  O   UNL     1       5.577  -1.478   2.297  0.00  0.00    -0.460 OA
BRANCH  22  24
ATOM     24  C   UNL     1       6.356  -1.693   4.703  0.00  0.00    +0.148 C 
BRANCH  24  25
ATOM     25  S   UNL     1       4.876  -1.848   5.741  0.00  0.00    -0.084 S 
BRANCH  25  26
ATOM     26  C   UNL     1       5.453  -2.771   7.193  0.00  0.00    +0.400 C 
ATOM     27  F   UNL     1       5.946  -4.016   6.788  0.00  0.00    -0.197 F 
ATOM     28  F   UNL     1       6.470  -2.051   7.829  0.00  0.00    -0.197 F 
ENDBRANCH  25  26
ENDBRANCH  24  25
ENDBRANCH  22  24
ENDBRANCH  10  19
TORSDOF 4
