REMARK  Name = ZINC07457303
REMARK  4 active torsions:
REMARK  status: ('A' for Active; 'I' for Inactive)
REMARK    1  A    between atoms: C_1  and  C_2
REMARK    2  A    between atoms: C_15  and  C_17
REMARK    3  A    between atoms: C_17  and  N_53
REMARK    4  A    between atoms: C_20  and  C_23
REMARK                            x       y       z     vdW  Elec       q    Type
REMARK                         _______ _______ _______ _____ _____    ______ ____
ROOT
ATOM      1  C   UNL     1      -1.517   5.636  -2.240  0.00  0.00    +0.029 C 
ATOM      2  C   UNL     1      -0.262   5.929  -1.414  0.00  0.00    +0.087 C 
ATOM      3  C   UNL     1       0.969   5.414  -2.162  0.00  0.00    +0.118 C 
ATOM      4  C   UNL     1       2.145   5.325  -1.224  0.00  0.00    +0.219 C 
ATOM      5  O   UNL     1       3.024   6.159  -1.280  0.00  0.00    -0.275 OA
ATOM      6  N   UNL     1       2.226   4.323  -0.322  0.00  0.00    -0.284 N 
ATOM      7  C   UNL     1       1.178   3.407  -0.180  0.00  0.00    +0.055 A 
ATOM      8  C   UNL     1       1.423   2.044  -0.151  0.00  0.00    +0.025 A 
ATOM      9  C   UNL     1       0.375   1.160   0.022  0.00  0.00    +0.002 A 
ATOM     10  C   UNL     1      -0.917   1.631   0.169  0.00  0.00    +0.002 A 
ATOM     11  C   UNL     1      -1.170   2.991   0.143  0.00  0.00    +0.025 A 
ATOM     12  C   UNL     1      -0.127   3.883  -0.044  0.00  0.00    +0.058 A 
ATOM     13  N   UNL     1      -0.369   5.261  -0.116  0.00  0.00    -0.268 N 
ATOM     14  C   UNL     1      -0.695   5.960   0.990  0.00  0.00    +0.204 C 
ATOM     15  O   UNL     1      -0.903   7.152   0.915  0.00  0.00    -0.277 OA
ATOM     16  H   UNL     1       3.018   4.238   0.233  0.00  0.00    +0.155 HD
ENDROOT
BRANCH  14  17
ATOM     17  C   UNL     1      -0.802   5.259   2.320  0.00  0.00    +0.020 C 
BRANCH  17  23
ATOM     18  C   UNL     1       0.161   7.117   3.542  0.00  0.00    -0.073 C 
ATOM     19  C   UNL     1      -0.229   8.312   4.416  0.00  0.00    +0.017 C 
ATOM     20  C   UNL     1      -0.936   7.828   5.651  0.00  0.00    -0.048 C 
ATOM     21  C   UNL     1      -1.438   6.617   5.753  0.00  0.00    -0.041 C 
ATOM     22  C   UNL     1      -1.349   5.598   4.654  0.00  0.00    -0.050 C 
ATOM     23  N   UNL     1      -1.037   6.268   3.377  0.00  0.00    +0.388 N 
ATOM     24  H   UNL     1      -1.831   6.859   3.105  0.00  0.00    -0.081 HD
BRANCH  20  25
ATOM     25  C   UNL     1      -1.074   8.751   6.798  0.00  0.00    -0.022 A 
ATOM     26  C   UNL     1      -1.837   9.912   6.674  0.00  0.00    +0.008 A 
ATOM     27  C   UNL     1      -1.966  10.768   7.750  0.00  0.00    +0.001 A 
ATOM     28  C   UNL     1      -1.331  10.481   8.945  0.00  0.00    +0.000 A 
ATOM     29  C   UNL     1      -0.568   9.334   9.072  0.00  0.00    +0.001 A 
ATOM     30  C   UNL     1      -0.436   8.468   8.005  0.00  0.00    +0.008 A 
ENDBRANCH  20  25
ENDBRANCH  17  23
ENDBRANCH  14  17
TORSDOF 3
