REMARK  Name = ZINC42486610
REMARK  5 active torsions:
REMARK  status: ('A' for Active; 'I' for Inactive)
REMARK    1  A    between atoms: C_1  and  C_2
REMARK    2  A    between atoms: C_6  and  O_8
REMARK    3  A    between atoms: O_8  and  C_9
REMARK    4  A    between atoms: C_9  and  C_11
REMARK    5  A    between atoms: C_11  and  N_12
REMARK                            x       y       z     vdW  Elec       q    Type
REMARK                         _______ _______ _______ _____ _____    ______ ____
ROOT
ATOM      1  N   UNL     1      -0.219  -6.341   3.254  0.00  0.00    -0.213 N 
ATOM      2  C   UNL     1      -1.374  -7.006   3.037  0.00  0.00    +0.252 C 
ATOM      3  O   UNL     1      -2.500  -6.556   3.072  0.00  0.00    -0.272 OA
ATOM      4  C   UNL     1      -0.965  -8.425   2.743  0.00  0.00    +0.138 C 
ATOM      5  C   UNL     1      -1.440  -8.862   1.351  0.00  0.00    +0.045 C 
ATOM      6  C   UNL     1      -2.764  -9.591   1.673  0.00  0.00    +0.038 C 
ATOM      7  C   UNL     1      -2.618 -10.069   3.103  0.00  0.00    -0.042 A 
ATOM      8  C   UNL     1      -1.578  -9.393   3.719  0.00  0.00    -0.012 A 
ATOM      9  C   UNL     1      -1.264  -9.673   5.038  0.00  0.00    +0.006 A 
ATOM     10  C   UNL     1      -1.983 -10.620   5.740  0.00  0.00    +0.000 A 
ATOM     11  C   UNL     1      -3.021 -11.294   5.125  0.00  0.00    +0.000 A 
ATOM     12  C   UNL     1      -3.337 -11.018   3.808  0.00  0.00    +0.004 A 
ATOM     13  N   UNL     1       0.495  -8.414   2.830  0.00  0.00    -0.281 N 
ATOM     14  C   UNL     1       0.844  -7.146   3.129  0.00  0.00    +0.310 C 
ATOM     15  O   UNL     1       1.993  -6.777   3.272  0.00  0.00    -0.252 OA
ATOM     16  H   UNL     1       1.093  -9.167   2.697  0.00  0.00    +0.152 HD
ENDROOT
BRANCH   1  17
ATOM     17  C   UNL     1      -0.138  -4.914   3.578  0.00  0.00    +0.238 C 
BRANCH  17  18
ATOM     18  C   UNL     1      -0.036  -4.114   2.305  0.00  0.00    +0.330 C 
ATOM     19  O   UNL     1      -0.032  -4.678   1.236  0.00  0.00    -0.249 OA
BRANCH  18  20
ATOM     20  O   UNL     1       0.050  -2.776   2.359  0.00  0.00    -0.425 OA
BRANCH  20  26
ATOM     21  C   UNL     1      -2.448  -1.272  -1.556  0.00  0.00    +0.044 C 
ATOM     22  C   UNL     1      -1.178  -1.332  -0.747  0.00  0.00    -0.047 A 
ATOM     23  C   UNL     1      -0.041  -0.686  -1.197  0.00  0.00    +0.003 A 
ATOM     24  C   UNL     1       1.126  -0.739  -0.458  0.00  0.00    +0.004 A 
ATOM     25  C   UNL     1       1.159  -1.438   0.734  0.00  0.00    +0.046 A 
ATOM     26  C   UNL     1       0.020  -2.087   1.187  0.00  0.00    +0.132 A 
ATOM     27  C   UNL     1      -1.152  -2.027   0.446  0.00  0.00    +0.049 A 
ENDBRANCH  20  26
ENDBRANCH  18  20
ENDBRANCH  17  18
ENDBRANCH   1  17
TORSDOF 4
