REMARK  Name = ZINC17722291
REMARK  1 active torsions:
REMARK  status: ('A' for Active; 'I' for Inactive)
REMARK    1  A    between atoms: C_1  and  C_2
REMARK                            x       y       z     vdW  Elec       q    Type
REMARK                         _______ _______ _______ _____ _____    ______ ____
ROOT
ATOM      1  C   UNL     1      -0.018   1.503   0.010  0.00  0.00    +0.047 C 
ATOM      2  C   UNL     1       0.002  -0.004   0.002  0.00  0.00    -0.009 A 
ATOM      3  C   UNL     1       0.006  -0.684  -1.178  0.00  0.00    +0.008 A 
ATOM      4  C   UNL     1       0.026  -2.086  -1.168  0.00  0.00    +0.019 A 
ATOM      5  C   UNL     1       0.042  -2.757   0.005  0.00  0.00    +0.096 A 
ATOM      6  N   UNL     1       0.037  -2.087   1.192  0.00  0.00    -0.269 N 
ATOM      7  C   UNL     1       0.023  -0.720   1.214  0.00  0.00    +0.122 A 
ATOM      8  N   UNL     1       0.024  -0.057   2.367  0.00  0.00    -0.329 N 
ATOM      9  C   UNL     1       0.040  -0.699   3.533  0.00  0.00    +0.109 A 
ATOM     10  C   UNL     1       0.056  -2.089   3.560  0.00  0.00    +0.057 A 
ATOM     11  C   UNL     1       0.050  -2.782   2.349  0.00  0.00    +0.263 A 
ATOM     12  O   UNL     1       0.071  -4.003   2.336  0.00  0.00    -0.267 OA
ATOM     13  C   UNL     1       0.058  -2.858   4.852  0.00  0.00    +0.072 C 
ATOM     14  C   UNL     1       0.522  -1.970   6.009  0.00  0.00    +0.151 C 
ATOM     15  C   UNL     1      -0.272  -0.659   5.965  0.00  0.00    +0.129 C 
ATOM     16  N   UNL     1       0.043   0.025   4.713  0.00  0.00    -0.307 N 
ATOM     17  C   UNL     1       0.382   1.451   4.695  0.00  0.00    +0.112 C 
ATOM     18  C   UNL     1       1.460   1.681   5.768  0.00  0.00    +0.054 C 
ATOM     19  C   UNL     1       0.858   1.287   7.097  0.00  0.00    -0.041 A 
ATOM     20  C   UNL     1       0.050   0.188   7.160  0.00  0.00    -0.022 A 
ATOM     21  C   UNL     1      -0.492  -0.149   8.392  0.00  0.00    +0.006 A 
ATOM     22  C   UNL     1      -0.208   0.610   9.510  0.00  0.00    +0.000 A 
ATOM     23  C   UNL     1       0.621   1.711   9.410  0.00  0.00    +0.000 A 
ATOM     24  C   UNL     1       1.132   2.035   8.224  0.00  0.00    +0.004 A 
ATOM     25  C   UNL     1       1.986  -1.672   5.857  0.00  0.00    +0.256 C 
ATOM     26  N   UNL     1       2.859  -1.994   6.762  0.00  0.00    -0.157 NA
ATOM     27  C   UNL     1       2.523  -2.617   7.900  0.00  0.00    +0.163 C 
ATOM     28  N   UNL     1       1.250  -2.948   8.172  0.00  0.00    -0.265 N 
ATOM     29  C   UNL     1       0.257  -2.668   7.314  0.00  0.00    +0.236 C 
ATOM     30  O   UNL     1      -0.878  -2.985   7.598  0.00  0.00    -0.274 OA
ATOM     31  S   UNL     1       3.746  -3.000   9.035  0.00  0.00    -0.016 S 
ATOM     32  O   UNL     1       2.408  -1.050   4.744  0.00  0.00    -0.272 OA
ATOM     33  H   UNL     1       1.045  -3.399   9.005  0.00  0.00    +0.157 HD
ATOM     34  H   UNL     1       0.014   0.913   2.358  0.00  0.00    +0.168 HD
ENDROOT
TORSDOF 0
