REMARK  Name = ZINC39674696
REMARK  7 active torsions:
REMARK  status: ('A' for Active; 'I' for Inactive)
REMARK    1  A    between atoms: C_1  and  C_2
REMARK    2  A    between atoms: C_4  and  C_14
REMARK    3  A    between atoms: C_7  and  C_12
REMARK    4  A    between atoms: C_14  and  C_15
REMARK    5  A    between atoms: C_15  and  N_16
REMARK    6  A    between atoms: C_17  and  C_19
REMARK    7  A    between atoms: C_30  and  C_32
REMARK                            x       y       z     vdW  Elec       q    Type
REMARK                         _______ _______ _______ _____ _____    ______ ____
ROOT
ATOM      1  C   UNL     1      -7.133  -0.798  -1.785  0.00  0.00    +0.100 C 
ATOM      2  C   UNL     1      -7.603   0.632  -2.134  0.00  0.00    +0.121 C 
ATOM      3  N   UNL     1      -9.054   0.494  -2.403  0.00  0.00    -0.296 N 
ATOM      4  C   UNL     1      -9.527  -0.474  -1.385  0.00  0.00    +0.115 C 
ATOM      5  C   UNL     1      -8.399  -1.520  -1.293  0.00  0.00    -0.004 C 
ATOM      6  C   UNL     1      -8.219  -1.976   0.152  0.00  0.00    -0.010 C 
ATOM      7  C   UNL     1      -9.467  -2.742   0.600  0.00  0.00    -0.082 C 
ATOM      8  N   UNL     1      -9.673  -3.901  -0.278  0.00  0.00    +0.379 N 
ATOM      9  C   UNL     1      -9.938  -3.449  -1.649  0.00  0.00    -0.082 C 
ATOM     10  C   UNL     1      -8.710  -2.713  -2.192  0.00  0.00    -0.010 C 
ATOM     11  C   UNL     1      -9.779   1.110  -3.358  0.00  0.00    +0.247 C 
ATOM     12  O   UNL     1      -9.223   1.782  -4.204  0.00  0.00    -0.270 OA
ATOM     13  H   UNL     1      -8.847  -4.479  -0.269  0.00  0.00    -0.086 HD
ATOM     14  H   UNL     1     -10.460  -4.438   0.056  0.00  0.00    -0.086 HD
ENDROOT
BRANCH  11  15
ATOM     15  C   UNL     1     -11.251   0.968  -3.375  0.00  0.00    +0.038 A 
ATOM     16  C   UNL     1     -11.932   0.586  -2.218  0.00  0.00    +0.013 A 
ATOM     17  C   UNL     1     -13.305   0.455  -2.240  0.00  0.00    +0.002 A 
ATOM     18  C   UNL     1     -14.008   0.701  -3.406  0.00  0.00    +0.020 A 
ATOM     19  C   UNL     1     -13.339   1.081  -4.558  0.00  0.00    +0.042 A 
ATOM     20  C   UNL     1     -11.965   1.220  -4.547  0.00  0.00    +0.033 A 
ATOM     21 CL   UNL     1     -14.230   1.388  -6.016  0.00  0.00    -0.084 Cl
ENDBRANCH  11  15
BRANCH   1  23
ATOM     22  N   UNL     1      -5.140  -1.707  -0.637  0.00  0.00    -0.315 N 
ATOM     23  C   UNL     1      -6.095  -0.757  -0.694  0.00  0.00    +0.218 C 
ATOM     24  O   UNL     1      -6.118   0.130   0.132  0.00  0.00    -0.275 OA
ATOM     25  H   UNL     1      -5.122  -2.417  -1.298  0.00  0.00    +0.149 HD
BRANCH  22  26
ATOM     26  C   UNL     1      -4.130  -1.667   0.424  0.00  0.00    +0.108 C 
BRANCH  26  27
ATOM     27  C   UNL     1      -3.173  -2.850   0.261  0.00  0.00    +0.052 C 
BRANCH  27  30
ATOM     28  C   UNL     1      -0.073  -3.791   0.348  0.00  0.00    +0.035 C 
ATOM     29  C   UNL     1      -1.000  -3.786   1.565  0.00  0.00    +0.103 C 
ATOM     30  C   UNL     1      -2.134  -2.809   1.352  0.00  0.00    -0.037 C 
ATOM     31  C   UNL     1      -2.027  -1.887   2.343  0.00  0.00    +0.000 A 
ATOM     32  C   UNL     1      -2.801  -0.740   2.657  0.00  0.00    +0.028 A 
ATOM     33  C   UNL     1      -2.469   0.042   3.739  0.00  0.00    +0.052 A 
ATOM     34  C   UNL     1      -1.326  -0.283   4.586  0.00  0.00    +0.021 A 
ATOM     35  C   UNL     1      -0.555  -1.361   4.336  0.00  0.00    +0.027 A 
ATOM     36  C   UNL     1      -0.865  -2.228   3.193  0.00  0.00    +0.043 A 
ATOM     37  N   UNL     1      -0.277  -3.314   2.750  0.00  0.00    -0.378 N 
ATOM     38  H   UNL     1       0.505  -3.735   3.140  0.00  0.00    +0.160 HD
BRANCH  33  39
ATOM     39  C   UNL     1      -3.261   1.196   4.041  0.00  0.00    +0.099 C 
ATOM     40  N   UNL     1      -3.889   2.111   4.281  0.00  0.00    -0.191 NA
ENDBRANCH  33  39
ENDBRANCH  27  30
ENDBRANCH  26  27
ENDBRANCH  22  26
ENDBRANCH   1  23
TORSDOF 6
