REMARK  Name = ZINC13401121
REMARK  5 active torsions:
REMARK  status: ('A' for Active; 'I' for Inactive)
REMARK    1  A    between atoms: C_1  and  C_2
REMARK    2  A    between atoms: C_5  and  C_26
REMARK    3  A    between atoms: C_5  and  O_28
REMARK    4  A    between atoms: C_17  and  C_25
REMARK    5  A    between atoms: C_22  and  O_24
REMARK                            x       y       z     vdW  Elec       q    Type
REMARK                         _______ _______ _______ _____ _____    ______ ____
ROOT
ATOM      1  C   UNL     1      -0.708   1.966  -1.302  0.00  0.00    +0.012 C 
ATOM      2  C   UNL     1      -0.019   1.519   0.010  0.00  0.00    -0.026 C 
ATOM      3  C   UNL     1      -0.834   2.058   1.179  0.00  0.00    +0.011 C 
ATOM      4  C   UNL     1      -0.908   3.580   1.146  0.00  0.00    +0.048 C 
ATOM      5  C   UNL     1       0.473   4.219   1.145  0.00  0.00    +0.126 C 
ATOM      6  C   UNL     1       1.384   3.633   0.081  0.00  0.00    +0.052 C 
ATOM      7  C   UNL     1       1.379   2.119   0.000  0.00  0.00    -0.001 C 
ATOM      8  C   UNL     1       2.254   1.502   1.089  0.00  0.00    +0.004 C 
ATOM      9  C   UNL     1       2.414   0.015   0.758  0.00  0.00    +0.004 C 
ATOM     10  C   UNL     1       1.048  -0.660   0.894  0.00  0.00    -0.004 C 
ATOM     11  C   UNL     1       0.002  -0.004   0.002  0.00  0.00    -0.001 C 
ATOM     12  C   UNL     1      -1.394  -0.578   0.229  0.00  0.00    +0.005 C 
ATOM     13  C   UNL     1      -1.796  -0.699   1.700  0.00  0.00    +0.010 C 
ATOM     14  C   UNL     1      -0.726  -1.454   2.458  0.00  0.00    -0.003 C 
ATOM     15  C   UNL     1       0.592  -0.654   2.329  0.00  0.00    +0.001 C 
ATOM     16  C   UNL     1       1.488  -1.367   3.350  0.00  0.00    +0.007 C 
ATOM     17  C   UNL     1       0.526  -1.562   4.555  0.00  0.00    +0.032 C 
ATOM     18  C   UNL     1      -0.911  -1.529   3.978  0.00  0.00    +0.121 C 
ATOM     19  C   UNL     1      -0.592  -2.875   1.917  0.00  0.00    +0.014 C 
ENDROOT
BRANCH  18  20
ATOM     20  O   UNL     1      -1.613  -2.723   4.325  0.00  0.00    -0.391 OA
ATOM     21  H   UNL     1      -1.762  -2.830   5.274  0.00  0.00    +0.210 HD
ENDBRANCH  18  20
BRANCH   5  22
ATOM     22  C   UNL     1       1.085   4.114   2.481  0.00  0.00    -0.071 C 
ATOM     23  C   UNL     1       1.573   4.031   3.545  0.00  0.00    +0.007 C 
ENDBRANCH   5  22
BRANCH   5  24
ATOM     24  O   UNL     1       0.307   5.625   0.862  0.00  0.00    -0.377 OA
ATOM     25  H   UNL     1      -0.262   6.089   1.491  0.00  0.00    +0.211 HD
ENDBRANCH   5  24
TORSDOF 3
