REMARK  Name = ZINC04065163
REMARK  6 active torsions:
REMARK  status: ('A' for Active; 'I' for Inactive)
REMARK    1  A    between atoms: C_1  and  C_2
REMARK    2  A    between atoms: C_2  and  C_3
REMARK    3  A    between atoms: C_2  and  O_4
REMARK    4  A    between atoms: O_4  and  C_5
REMARK    5  A    between atoms: C_10  and  C_11
REMARK    6  A    between atoms: C_16  and  C_21
REMARK                            x       y       z     vdW  Elec       q    Type
REMARK                         _______ _______ _______ _____ _____    ______ ____
ROOT
ATOM      1  C   UNL     1       1.577  -0.658   0.145  0.00  0.00    +0.139 C 
ATOM      2  C   UNL     1       0.495   0.394   0.117  0.00  0.00    +0.037 C 
ATOM      3  C   UNL     1       0.659   1.701   0.386  0.00  0.00    +0.017 C 
ATOM      4  C   UNL     1      -0.520   2.656   0.312  0.00  0.00    +0.059 C 
ATOM      5  C   UNL     1      -1.804   1.930   0.712  0.00  0.00    +0.032 C 
ATOM      6  C   UNL     1      -2.003   0.762  -0.262  0.00  0.00    +0.088 C 
ATOM      7  C   UNL     1      -0.784  -0.109  -0.218  0.00  0.00    +0.163 C 
ATOM      8  O   UNL     1      -0.899  -1.290  -0.480  0.00  0.00    -0.292 OA
ATOM      9  N   UNL     1       1.840   2.278   0.722  0.00  0.00    -0.316 N 
ATOM     10  C   UNL     1       2.735   1.775   1.659  0.00  0.00    +0.052 A 
ATOM     11  C   UNL     1       3.072   2.471   2.807  0.00  0.00    +0.025 A 
ATOM     12  C   UNL     1       4.056   1.968   3.641  0.00  0.00    +0.002 A 
ATOM     13  C   UNL     1       4.694   0.781   3.329  0.00  0.00    +0.002 A 
ATOM     14  C   UNL     1       4.343   0.073   2.193  0.00  0.00    +0.025 A 
ATOM     15  C   UNL     1       3.345   0.565   1.367  0.00  0.00    +0.049 A 
ATOM     16  N   UNL     1       2.924  -0.135   0.237  0.00  0.00    -0.331 N 
ATOM     17  H   UNL     1       2.079   3.104   0.273  0.00  0.00    +0.152 HD
ATOM     18  H   UNL     1       3.542  -0.273  -0.498  0.00  0.00    +0.147 HD
ENDROOT
BRANCH   5  19
ATOM     19  C   UNL     1      -2.975   2.875   0.623  0.00  0.00    -0.043 A 
ATOM     20  C   UNL     1      -3.270   3.498  -0.576  0.00  0.00    +0.005 A 
ATOM     21  C   UNL     1      -4.348   4.360  -0.659  0.00  0.00    +0.020 A 
ATOM     22  C   UNL     1      -5.124   4.608   0.459  0.00  0.00    +0.041 A 
ATOM     23  C   UNL     1      -4.824   3.988   1.659  0.00  0.00    +0.020 A 
ATOM     24  C   UNL     1      -3.750   3.122   1.740  0.00  0.00    +0.005 A 
ATOM     25 CL   UNL     1      -6.473   5.695   0.356  0.00  0.00    -0.084 Cl
ENDBRANCH   5  19
BRANCH   1  31
ATOM     26  C   UNL     1       1.960  -2.798   1.395  0.00  0.00    +0.126 A 
ATOM     27  C   UNL     1       1.734  -3.627   2.484  0.00  0.00    +0.046 A 
ATOM     28  C   UNL     1       0.889  -3.220   3.498  0.00  0.00    +0.004 A 
ATOM     29  C   UNL     1       0.267  -1.986   3.427  0.00  0.00    +0.001 A 
ATOM     30  C   UNL     1       0.494  -1.156   2.345  0.00  0.00    +0.009 A 
ATOM     31  C   UNL     1       1.335  -1.562   1.326  0.00  0.00    +0.019 A 
BRANCH  26  32
ATOM     32  O   UNL     1       2.791  -3.197   0.397  0.00  0.00    -0.489 OA
BRANCH  32  34
ATOM     33  C   UNL     1       2.589  -5.592   0.149  0.00  0.00    +0.051 C 
ATOM     34  C   UNL     1       3.485  -4.431   0.585  0.00  0.00    +0.167 C 
ATOM     35  C   UNL     1       4.764  -4.431  -0.256  0.00  0.00    +0.051 C 
ENDBRANCH  32  34
ENDBRANCH  26  32
ENDBRANCH   1  31
TORSDOF 4
