REMARK  Name = ZINC41087735
REMARK  8 active torsions:
REMARK  status: ('A' for Active; 'I' for Inactive)
REMARK    1  A    between atoms: C_1  and  C_2
REMARK    2  A    between atoms: C_5  and  O_12
REMARK    3  A    between atoms: C_8  and  C_10
REMARK    4  A    between atoms: C_8  and  C_11
REMARK    5  A    between atoms: O_12  and  C_13
REMARK    6  A    between atoms: C_13  and  C_15
REMARK    7  A    between atoms: C_17  and  N_23
REMARK    8  A    between atoms: N_19  and  C_20
REMARK                            x       y       z     vdW  Elec       q    Type
REMARK                         _______ _______ _______ _____ _____    ______ ____
ROOT
ATOM      1  C   UNL     1      -0.937  -3.213  -2.614  0.00  0.00    +0.356 C 
ATOM      2  O   UNL     1      -0.267  -3.099  -3.623  0.00  0.00    -0.243 OA
ENDROOT
BRANCH   1   3
ATOM      3  C   UNL     1      -2.303  -3.735  -2.697  0.00  0.00    +0.129 A 
ATOM      4  C   UNL     1      -2.987  -4.046  -3.855  0.00  0.00    +0.057 A 
ATOM      5  C   UNL     1      -4.253  -4.510  -3.474  0.00  0.00    +0.043 A 
ATOM      6  C   UNL     1      -4.318  -4.474  -2.116  0.00  0.00    +0.109 A 
ATOM      7  N   UNL     1      -3.135  -4.009  -1.635  0.00  0.00    -0.337 N 
BRANCH   7   8
ATOM      8  C   UNL     1      -2.801  -3.827  -0.220  0.00  0.00    +0.088 C 
ATOM      9  C   UNL     1      -3.775  -4.393   0.814  0.00  0.00    +0.027 C 
ATOM     10  C   UNL     1      -3.683  -2.881   0.598  0.00  0.00    +0.027 C 
ENDBRANCH   7   8
BRANCH   5  11
ATOM     11  N   UNL     1      -5.276  -4.938  -4.341  0.00  0.00    -0.357 N 
ATOM     12  H   UNL     1      -5.134  -4.927  -5.300  0.00  0.00    +0.142 HD
ATOM     13  H   UNL     1      -6.123  -5.243  -3.979  0.00  0.00    +0.142 HD
ENDBRANCH   5  11
ENDBRANCH   1   3
BRANCH   1  14
ATOM     14  O   UNL     1      -0.423  -2.858  -1.419  0.00  0.00    -0.457 OA
BRANCH  14  18
ATOM     15  C   UNL     1       0.411   1.339  -1.275  0.00  0.00    +0.007 C 
ATOM     16  C   UNL     1       0.285  -0.126  -0.851  0.00  0.00    -0.010 C 
ATOM     17  C   UNL     1       1.079  -1.007  -1.817  0.00  0.00    +0.048 C 
ATOM     18  C   UNL     1       0.953  -2.471  -1.393  0.00  0.00    +0.178 C 
ATOM     19  C   UNL     1       1.505  -2.642   0.023  0.00  0.00    +0.051 C 
ATOM     20  C   UNL     1       0.710  -1.761   0.990  0.00  0.00    -0.031 C 
ATOM     21  C   UNL     1       0.837  -0.296   0.566  0.00  0.00    +0.010 C 
ATOM     22  C   UNL     1       1.262  -1.931   2.406  0.00  0.00    +0.011 C 
ATOM     23  C   UNL     1      -0.763  -2.174   0.963  0.00  0.00    +0.011 C 
ENDBRANCH  14  18
ENDBRANCH   1  14
TORSDOF 5
