REMARK  Name = ZINC35057121
REMARK  9 active torsions:
REMARK  status: ('A' for Active; 'I' for Inactive)
REMARK    1  A    between atoms: C_1  and  C_2
REMARK    2  A    between atoms: C_2  and  C_4
REMARK    3  A    between atoms: C_2  and  O_7
REMARK    4  A    between atoms: O_7  and  C_8
REMARK    5  A    between atoms: C_10  and  N_37
REMARK    6  A    between atoms: C_12  and  S_30
REMARK    7  A    between atoms: C_20  and  C_24
REMARK    8  A    between atoms: S_30  and  C_31
REMARK    9  A    between atoms: C_38  and  C_40
REMARK                            x       y       z     vdW  Elec       q    Type
REMARK                         _______ _______ _______ _____ _____    ______ ____
ROOT
ATOM      1  C   UNL     1      -0.136  -1.060  -2.396  0.00  0.00    +0.174 C 
ATOM      2  C   UNL     1      -0.359  -2.572  -2.263  0.00  0.00    +0.143 C 
ATOM      3  C   UNL     1       0.980  -3.303  -2.380  0.00  0.00    +0.203 C 
ATOM      4  O   UNL     1       1.619  -2.959  -3.614  0.00  0.00    -0.356 OA
ATOM      5  C   UNL     1       1.898  -1.567  -3.737  0.00  0.00    +0.177 C 
ATOM      6  C   UNL     1       0.572  -0.787  -3.724  0.00  0.00    +0.183 C 
ATOM      7  O   UNL     1       0.853   0.604  -3.881  0.00  0.00    -0.339 OA
ATOM      8  C   UNL     1       1.544   0.902  -5.099  0.00  0.00    +0.282 C 
ATOM      9  O   UNL     1       2.771   0.173  -5.158  0.00  0.00    -0.345 OA
ATOM     10  C   UNL     1       2.621  -1.261  -5.049  0.00  0.00    +0.197 C 
ENDROOT
BRANCH   8  11
ATOM     11  C   UNL     1       0.680   0.516  -6.271  0.00  0.00    +0.008 A 
ATOM     12  C   UNL     1      -0.697   0.596  -6.171  0.00  0.00    +0.008 A 
ATOM     13  C   UNL     1      -1.490   0.242  -7.247  0.00  0.00    +0.000 A 
ATOM     14  C   UNL     1      -0.906  -0.191  -8.423  0.00  0.00    +0.000 A 
ATOM     15  C   UNL     1       0.470  -0.270  -8.523  0.00  0.00    +0.000 A 
ATOM     16  C   UNL     1       1.263   0.088  -7.449  0.00  0.00    +0.008 A 
ENDBRANCH   8  11
BRANCH   2  17
ATOM     17  N   UNL     1      -0.960  -2.863  -0.959  0.00  0.00    -0.307 N 
ATOM     18  C   UNL     1      -1.731  -3.957  -0.801  0.00  0.00    +0.210 C 
ATOM     19  O   UNL     1      -1.927  -4.701  -1.739  0.00  0.00    -0.276 OA
ATOM     20  C   UNL     1      -2.349  -4.256   0.540  0.00  0.00    +0.109 C 
ATOM     21  H   UNL     1      -0.803  -2.268  -0.209  0.00  0.00    +0.149 HD
ENDBRANCH   2  17
BRANCH   1  22
ATOM     22  O   UNL     1       0.676  -0.598  -1.315  0.00  0.00    -0.358 OA
BRANCH  22  24
ATOM     23  C   UNL     1       0.427   1.797  -1.101  0.00  0.00    +0.050 C 
ATOM     24  C   UNL     1       0.066   0.425  -0.526  0.00  0.00    +0.228 C 
BRANCH  24  25
ATOM     25  C   UNL     1       0.562   0.329   0.893  0.00  0.00    +0.384 C 
ATOM     26  O   UNL     1       0.094   1.056   1.753  0.00  0.00    -0.243 OA
ATOM     27  O   UNL     1       1.431  -0.476   1.182  0.00  0.00    -0.243 OA
ENDBRANCH  24  25
ENDBRANCH  22  24
ENDBRANCH   1  22
BRANCH   3  28
ATOM     28  S   UNL     1       2.050  -2.823  -0.996  0.00  0.00    -0.092 S 
BRANCH  28  29
ATOM     29  C   UNL     1       3.474  -3.844  -1.185  0.00  0.00    +0.010 A 
ATOM     30  C   UNL     1       3.550  -4.745  -2.240  0.00  0.00    +0.015 A 
ATOM     31  C   UNL     1       4.667  -5.543  -2.385  0.00  0.00    +0.001 A 
ATOM     32  C   UNL     1       5.710  -5.447  -1.481  0.00  0.00    +0.000 A 
ATOM     33  C   UNL     1       5.638  -4.552  -0.430  0.00  0.00    +0.001 A 
ATOM     34  C   UNL     1       4.526  -3.746  -0.282  0.00  0.00    +0.015 A 
ENDBRANCH  28  29
ENDBRANCH   3  28
TORSDOF 7
