REMARK  Name = ZINC52876381
REMARK  6 active torsions:
REMARK  status: ('A' for Active; 'I' for Inactive)
REMARK    1  A    between atoms: C_4  and  O_10
REMARK    2  A    between atoms: C_5  and  C_7
REMARK    3  A    between atoms: O_10  and  C_11
REMARK    4  A    between atoms: C_11  and  C_12
REMARK    5  A    between atoms: C_15  and  C_17
REMARK    6  A    between atoms: C_20  and  C_23
REMARK                            x       y       z     vdW  Elec       q    Type
REMARK                         _______ _______ _______ _____ _____    ______ ____
ROOT
ATOM      1  C   UNL     1       6.008  -0.687  -0.062  0.00  0.00    +0.086 A 
ATOM      2  C   UNL     1       5.864  -2.041  -0.073  0.00  0.00    +0.074 A 
ATOM      3  S   UNL     1       7.577  -2.554  -0.092  0.00  0.00    -0.075 S 
ATOM      4  C   UNL     1       8.294  -0.916  -0.083  0.00  0.00    +0.109 A 
ATOM      5  N   UNL     1       7.207  -0.158  -0.072  0.00  0.00    -0.241 NA
ENDROOT
BRANCH   4   6
ATOM      6  C   UNL     1       9.716  -0.516  -0.091  0.00  0.00    +0.007 A 
ATOM      7  C   UNL     1      10.061   0.838  -0.075  0.00  0.00    +0.011 A 
ATOM      8  C   UNL     1      11.385   1.212  -0.082  0.00  0.00    +0.014 A 
ATOM      9  C   UNL     1      12.386   0.236  -0.105  0.00  0.00    +0.037 A 
ATOM     10  C   UNL     1      12.041  -1.118  -0.121  0.00  0.00    +0.014 A 
ATOM     11  C   UNL     1      10.717  -1.491  -0.108  0.00  0.00    +0.011 A 
BRANCH   9  12
ATOM     12  C   UNL     1      13.807   0.637  -0.113  0.00  0.00    +0.242 C 
ATOM     13  O   UNL     1      14.107   1.815  -0.100  0.00  0.00    -0.270 OA
ATOM     14  N   UNL     1      14.772  -0.304  -0.135  0.00  0.00    -0.325 N 
ATOM     15  H   UNL     1      14.533  -1.244  -0.146  0.00  0.00    +0.145 HD
ATOM     16  H   UNL     1      15.706  -0.041  -0.140  0.00  0.00    +0.145 HD
ENDBRANCH   9  12
ENDBRANCH   4   6
BRANCH   1  17
ATOM     17  C   UNL     1       4.790   0.201  -0.045  0.00  0.00    +0.285 C 
BRANCH  17  18
ATOM     18  O   UNL     1       3.611  -0.606  -0.037  0.00  0.00    -0.485 OA
BRANCH  18  22
ATOM     19  C   UNL     1      -0.017   1.374   0.010  0.00  0.00    +0.001 A 
ATOM     20  C   UNL     1       1.170   2.089   0.002  0.00  0.00    +0.004 A 
ATOM     21  C   UNL     1       2.383   1.429  -0.013  0.00  0.00    +0.046 A 
ATOM     22  C   UNL     1       2.420   0.043  -0.021  0.00  0.00    +0.133 A 
ATOM     23  C   UNL     1       1.222  -0.684  -0.013  0.00  0.00    +0.078 A 
ATOM     24  C   UNL     1       0.002  -0.004   0.002  0.00  0.00    +0.017 A 
BRANCH  23  25
ATOM     25  C   UNL     1       1.250  -2.159  -0.022  0.00  0.00    +0.245 C 
ATOM     26  O   UNL     1       2.314  -2.748  -0.036  0.00  0.00    -0.270 OA
ATOM     27  N   UNL     1       0.095  -2.855  -0.014  0.00  0.00    -0.325 N 
ATOM     28  H   UNL     1      -0.754  -2.385  -0.003  0.00  0.00    +0.145 HD
ATOM     29  H   UNL     1       0.113  -3.824  -0.020  0.00  0.00    +0.145 HD
ENDBRANCH  23  25
ENDBRANCH  18  22
ENDBRANCH  17  18
ENDBRANCH   1  17
TORSDOF 6
