REMARK  Name = ZINC05593038
REMARK  6 active torsions:
REMARK  status: ('A' for Active; 'I' for Inactive)
REMARK    1  A    between atoms: C_1  and  C_2
REMARK    2  A    between atoms: C_2  and  O_3
REMARK    3  A    between atoms: O_3  and  C_4
REMARK    4  A    between atoms: C_7  and  N_10
REMARK    5  A    between atoms: N_11  and  C_12
REMARK    6  A    between atoms: C_17  and  O_18
REMARK                            x       y       z     vdW  Elec       q    Type
REMARK                         _______ _______ _______ _____ _____    ______ ____
ROOT
ATOM      1  N   UNL     1      -1.984  -5.955  -0.011  0.00  0.00    -0.149 NA
ATOM      2  N   UNL     1      -3.170  -6.465  -0.007  0.00  0.00    -0.146 NA
ENDROOT
BRANCH   2   3
ATOM      3  C   UNL     1      -3.330  -7.820  -0.013  0.00  0.00    +0.128 A 
ATOM      4  C   UNL     1      -2.213  -8.660  -0.018  0.00  0.00    +0.048 A 
ATOM      5  C   UNL     1      -2.383 -10.029  -0.024  0.00  0.00    +0.020 A 
ATOM      6  C   UNL     1      -3.656 -10.575  -0.026  0.00  0.00    +0.019 A 
ATOM      7  C   UNL     1      -4.769  -9.755  -0.021  0.00  0.00    +0.049 A 
ATOM      8  C   UNL     1      -4.617  -8.378  -0.010  0.00  0.00    +0.144 A 
ATOM      9 BR   UNL     1      -0.871 -11.165  -0.030  0.00  0.00    -0.050 Br
BRANCH   8  10
ATOM     10  O   UNL     1      -5.710  -7.572  -0.000  0.00  0.00    -0.505 OA
ATOM     11  H   UNL     1      -6.031  -7.335  -0.881  0.00  0.00    +0.292 HD
ENDBRANCH   8  10
ENDBRANCH   2   3
BRANCH   1  15
ATOM     12  C   UNL     1      -1.498  -1.847   0.006  0.00  0.00    +0.121 A 
ATOM     13  C   UNL     1      -0.383  -2.677  -0.003  0.00  0.00    +0.048 A 
ATOM     14  C   UNL     1      -0.540  -4.045  -0.009  0.00  0.00    +0.033 A 
ATOM     15  C   UNL     1      -1.824  -4.599  -0.005  0.00  0.00    +0.086 A 
ATOM     16  C   UNL     1      -2.943  -3.761   0.005  0.00  0.00    +0.033 A 
ATOM     17  C   UNL     1      -2.776  -2.393   0.016  0.00  0.00    +0.048 A 
BRANCH  12  18
ATOM     18  O   UNL     1      -1.339  -0.499   0.012  0.00  0.00    -0.492 OA
BRANCH  18  20
ATOM     19  C   UNL     1      -0.019   1.526   0.010  0.00  0.00    +0.048 C 
ATOM     20  C   UNL     1       0.002  -0.004   0.002  0.00  0.00    +0.225 C 
ENDBRANCH  18  20
ENDBRANCH  12  18
ENDBRANCH   1  15
TORSDOF 5
