REMARK  Name = ZINC14699447
REMARK  14 active torsions:
REMARK  status: ('A' for Active; 'I' for Inactive)
REMARK    1  A    between atoms: C_1  and  C_2
REMARK    2  A    between atoms: C_2  and  C_3
REMARK    3  A    between atoms: C_3  and  C_4
REMARK    4  A    between atoms: C_4  and  N_5
REMARK    5  A    between atoms: C_6  and  N_34
REMARK    6  A    between atoms: C_7  and  N_14
REMARK    7  A    between atoms: N_14  and  C_15
REMARK    8  A    between atoms: C_15  and  C_16
REMARK    9  A    between atoms: C_21  and  O_22
REMARK   10  A    between atoms: O_22  and  C_23
REMARK   11  A    between atoms: C_24  and  C_26
REMARK   12  A    between atoms: C_28  and  C_32
REMARK   13  A    between atoms: C_29  and  C_31
REMARK   14  A    between atoms: C_32  and  C_33
REMARK                            x       y       z     vdW  Elec       q    Type
REMARK                         _______ _______ _______ _____ _____    ______ ____
ROOT
ATOM      1  N   UNL     1      -5.691  -3.208   2.326  0.00  0.00    -0.255 N 
ATOM      2  C   UNL     1      -5.356  -2.674   3.517  0.00  0.00    +0.258 C 
ATOM      3  O   UNL     1      -6.011  -2.940   4.508  0.00  0.00    -0.269 OA
ENDROOT
BRANCH   1   6
ATOM      4  N   UNL     1      -4.862  -1.498  -0.819  0.00  0.00    -0.280 N 
ATOM      5  C   UNL     1      -5.553  -1.866   0.312  0.00  0.00    +0.127 A 
ATOM      6  C   UNL     1      -5.007  -2.810   1.157  0.00  0.00    +0.140 A 
ATOM      7  C   UNL     1      -3.756  -3.369   0.835  0.00  0.00    +0.277 A 
ATOM      8  O   UNL     1      -3.251  -4.206   1.564  0.00  0.00    -0.266 OA
ATOM      9  N   UNL     1      -3.121  -2.974  -0.286  0.00  0.00    -0.273 N 
ATOM     10  H   UNL     1      -2.259  -3.359  -0.509  0.00  0.00    +0.173 HD
ATOM     11  C   UNL     1      -3.671  -2.057  -1.101  0.00  0.00    +0.331 A 
ATOM     12  O   UNL     1      -3.078  -1.722  -2.108  0.00  0.00    -0.246 OA
BRANCH   5  13
ATOM     13  N   UNL     1      -6.772  -1.299   0.597  0.00  0.00    -0.343 N 
ATOM     14  H   UNL     1      -7.119  -0.588   0.036  0.00  0.00    +0.144 HD
ATOM     15  H   UNL     1      -7.286  -1.611   1.358  0.00  0.00    +0.144 HD
ENDBRANCH   5  13
BRANCH   4  16
ATOM     16  C   UNL     1      -5.429  -0.497  -1.726  0.00  0.00    +0.128 C 
BRANCH  16  17
ATOM     17  C   UNL     1      -6.292  -1.194  -2.780  0.00  0.00    +0.021 C 
BRANCH  17  19
ATOM     18  C   UNL     1      -7.746  -0.846  -4.781  0.00  0.00    +0.004 C 
ATOM     19  C   UNL     1      -6.884  -0.149  -3.727  0.00  0.00    -0.002 C 
ENDBRANCH  17  19
ENDBRANCH  16  17
ENDBRANCH   4  16
ENDBRANCH   1   6
BRANCH   2  20
ATOM     20  C   UNL     1      -4.205  -1.773   3.619  0.00  0.00    +0.075 A 
ATOM     21  C   UNL     1      -3.682  -1.147   4.740  0.00  0.00    +0.024 A 
ATOM     22  C   UNL     1      -2.582  -0.352   4.521  0.00  0.00    -0.037 A 
ATOM     23  C   UNL     1      -2.094  -0.234   3.262  0.00  0.00    -0.009 A 
ATOM     24  S   UNL     1      -3.106  -1.204   2.336  0.00  0.00    -0.089 S 
ATOM     25  C   UNL     1      -0.910   0.576   2.799  0.00  0.00    +0.052 C 
BRANCH  22  26
ATOM     26  C   UNL     1      -1.928   0.380   5.665  0.00  0.00    +0.032 C 
ATOM     27  C   UNL     1      -2.484   1.804   5.744  0.00  0.00    +0.009 C 
ENDBRANCH  22  26
ENDBRANCH   2  20
BRANCH   1  28
ATOM     28  C   UNL     1      -6.765  -4.201   2.244  0.00  0.00    +0.153 C 
BRANCH  28  29
ATOM     29  C   UNL     1      -6.171  -5.586   2.273  0.00  0.00    +0.012 A 
ATOM     30  C   UNL     1      -5.989  -6.285   1.096  0.00  0.00    +0.009 A 
ATOM     31  C   UNL     1      -5.445  -7.556   1.122  0.00  0.00    +0.001 A 
ATOM     32  C   UNL     1      -5.082  -8.130   2.327  0.00  0.00    +0.004 A 
ATOM     33  C   UNL     1      -5.262  -7.435   3.507  0.00  0.00    +0.046 A 
ATOM     34  C   UNL     1      -5.803  -6.157   3.482  0.00  0.00    +0.125 A 
BRANCH  34  35
ATOM     35  O   UNL     1      -5.976  -5.469   4.641  0.00  0.00    -0.495 OA
ATOM     36  C   UNL     1      -5.481  -6.077   5.836  0.00  0.00    +0.277 C 
ENDBRANCH  34  35
ENDBRANCH  28  29
ENDBRANCH   1  28
TORSDOF 10
