REMARK  Name = ZINC36017328
REMARK  17 active torsions:
REMARK  status: ('A' for Active; 'I' for Inactive)
REMARK    1  A    between atoms: C_1  and  C_2
REMARK    2  A    between atoms: C_2  and  N_3
REMARK    3  A    between atoms: C_4  and  C_26
REMARK    4  A    between atoms: C_5  and  C_21
REMARK    5  A    between atoms: C_6  and  C_11
REMARK    6  A    between atoms: C_13  and  O_19
REMARK    7  A    between atoms: C_16  and  O_17
REMARK    8  A    between atoms: O_17  and  C_18
REMARK    9  A    between atoms: O_19  and  C_20
REMARK   10  A    between atoms: C_21  and  O_23
REMARK   11  A    between atoms: O_23  and  C_24
REMARK   12  A    between atoms: C_24  and  C_25
REMARK   13  A    between atoms: C_26  and  N_27
REMARK   14  A    between atoms: C_31  and  C_34
REMARK   15  A    between atoms: N_37  and  C_38
REMARK   16  A    between atoms: C_38  and  C_39
REMARK   17  A    between atoms: C_38  and  C_40
REMARK                            x       y       z     vdW  Elec       q    Type
REMARK                         _______ _______ _______ _____ _____    ______ ____
ROOT
ATOM      1  N   UNL     1       0.066  -0.189  -0.698  0.00  0.00    -0.258 N 
ATOM      2  C   UNL     1      -0.801  -0.555  -1.688  0.00  0.00    +0.041 C 
ATOM      3  C   UNL     1      -0.369  -1.218  -2.783  0.00  0.00    +0.080 C 
ATOM      4  C   UNL     1       1.109  -1.539  -2.875  0.00  0.00    +0.147 C 
ATOM      5  N   UNL     1       1.958  -1.100  -1.755  0.00  0.00    -0.288 N 
ATOM      6  C   UNL     1       1.380  -0.443  -0.731  0.00  0.00    +0.307 C 
ATOM      7  O   UNL     1       2.074  -0.073   0.197  0.00  0.00    -0.252 OA
ATOM      8  H   UNL     1       2.912  -1.277  -1.757  0.00  0.00    +0.151 HD
ENDROOT
BRANCH   4   9
ATOM      9  C   UNL     1       1.252  -3.034  -3.007  0.00  0.00    +0.023 A 
ATOM     10  C   UNL     1       1.419  -3.814  -1.880  0.00  0.00    +0.055 A 
ATOM     11  C   UNL     1       1.550  -5.189  -2.002  0.00  0.00    +0.121 A 
ATOM     12  C   UNL     1       1.513  -5.781  -3.256  0.00  0.00    +0.049 A 
ATOM     13  C   UNL     1       1.345  -5.001  -4.383  0.00  0.00    +0.049 A 
ATOM     14  C   UNL     1       1.209  -3.626  -4.261  0.00  0.00    +0.126 A 
BRANCH  14  15
ATOM     15  O   UNL     1       1.039  -2.858  -5.370  0.00  0.00    -0.495 OA
ATOM     16  C   UNL     1       1.120  -3.519  -6.635  0.00  0.00    +0.277 C 
ENDBRANCH  14  15
BRANCH  11  17
ATOM     17  O   UNL     1       1.715  -5.957  -0.892  0.00  0.00    -0.495 OA
ATOM     18  C   UNL     1       1.844  -7.367  -1.091  0.00  0.00    +0.277 C 
ENDBRANCH  11  17
ENDBRANCH   4   9
BRANCH   1  20
ATOM     19  C   UNL     1      -0.432   2.033   0.194  0.00  0.00    +0.025 C 
ATOM     20  C   UNL     1      -0.472   0.527   0.461  0.00  0.00    +0.111 C 
ENDBRANCH   1  20
BRANCH   3  21
ATOM     21  C   UNL     1      -1.266  -1.598  -3.808  0.00  0.00    +0.339 C 
ATOM     22  O   UNL     1      -1.251  -1.016  -4.877  0.00  0.00    -0.245 OA
BRANCH  21  23
ATOM     23  O   UNL     1      -2.138  -2.607  -3.602  0.00  0.00    -0.462 OA
BRANCH  23  24
ATOM     24  C   UNL     1      -2.936  -3.013  -4.715  0.00  0.00    +0.229 C 
ATOM     25  C   UNL     1      -3.941  -4.074  -4.263  0.00  0.00    +0.048 C 
ENDBRANCH  23  24
ENDBRANCH  21  23
ENDBRANCH   3  21
BRANCH   2  26
ATOM     26  C   UNL     1      -2.263  -0.215  -1.556  0.00  0.00    +0.136 C 
BRANCH  26  27
ATOM     27  N   UNL     1      -2.836  -0.950  -0.420  0.00  0.00    -0.294 NA
ATOM     28  C   UNL     1      -2.827  -2.397  -0.670  0.00  0.00    +0.104 C 
ATOM     29  C   UNL     1      -3.261  -3.135   0.601  0.00  0.00    +0.125 C 
ATOM     30  N   UNL     1      -4.553  -2.587   1.041  0.00  0.00    -0.280 N 
ATOM     31  C   UNL     1      -4.679  -1.129   1.182  0.00  0.00    +0.088 C 
ATOM     32  C   UNL     1      -4.190  -0.470  -0.112  0.00  0.00    +0.107 C 
ATOM     33  C   UNL     1      -6.144  -0.761   1.429  0.00  0.00    +0.029 C 
ATOM     34  C   UNL     1      -5.594  -3.401   1.308  0.00  0.00    +0.303 C 
ATOM     35  O   UNL     1      -6.680  -2.928   1.584  0.00  0.00    -0.253 OA
ATOM     36  N   UNL     1      -5.432  -4.738   1.269  0.00  0.00    -0.297 N 
ATOM     37  H   UNL     1      -4.551  -5.115   1.121  0.00  0.00    +0.150 HD
BRANCH  36  38
ATOM     38  C   UNL     1      -6.586  -5.622   1.450  0.00  0.00    +0.068 C 
ATOM     39  C   UNL     1      -7.295  -5.816   0.108  0.00  0.00    +0.027 C 
ATOM     40  C   UNL     1      -6.112  -6.978   1.978  0.00  0.00    +0.027 C 
ENDBRANCH  36  38
ENDBRANCH  26  27
ENDBRANCH   2  26
TORSDOF 10
