REMARK  Name = ZINC35486279
REMARK  13 active torsions:
REMARK  status: ('A' for Active; 'I' for Inactive)
REMARK    1  A    between atoms: C_1  and  C_2
REMARK    2  A    between atoms: C_2  and  N_3
REMARK    3  A    between atoms: N_3  and  C_4
REMARK    4  A    between atoms: N_3  and  C_6
REMARK    5  A    between atoms: C_4  and  C_5
REMARK    6  A    between atoms: C_6  and  C_7
REMARK    7  A    between atoms: C_7  and  N_8
REMARK    8  A    between atoms: C_9  and  C_26
REMARK    9  A    between atoms: C_16  and  C_25
REMARK   10  A    between atoms: C_17  and  C_24
REMARK   11  A    between atoms: C_29  and  O_34
REMARK   12  A    between atoms: C_30  and  O_32
REMARK   13  A    between atoms: O_32  and  C_33
REMARK                            x       y       z     vdW  Elec       q    Type
REMARK                         _______ _______ _______ _____ _____    ______ ____
ROOT
ATOM      1  N   UNL     1       2.012  -3.380  -2.845  0.00  0.00    -0.285 N 
ATOM      2  C   UNL     1       3.003  -4.263  -2.209  0.00  0.00    +0.145 C 
ATOM      3  C   UNL     1       2.695  -5.640  -2.699  0.00  0.00    +0.072 A 
ATOM      4  C   UNL     1       3.339  -6.929  -2.425  0.00  0.00    +0.199 A 
ATOM      5  O   UNL     1       4.184  -7.083  -1.561  0.00  0.00    -0.287 OA
ATOM      6  C   UNL     1       2.861  -8.030  -3.300  0.00  0.00    +0.065 A 
ATOM      7  C   UNL     1       3.511  -9.264  -3.302  0.00  0.00    +0.019 A 
ATOM      8  C   UNL     1       3.062 -10.265  -4.117  0.00  0.00    -0.047 A 
ATOM      9  C   UNL     1       1.965 -10.056  -4.941  0.00  0.00    -0.044 A 
ATOM     10  C   UNL     1       1.310  -8.845  -4.951  0.00  0.00    +0.050 A 
ATOM     11  C   UNL     1       1.747  -7.808  -4.127  0.00  0.00    +0.140 A 
ATOM     12  O   UNL     1       1.084  -6.630  -4.145  0.00  0.00    -0.450 OA
ATOM     13  C   UNL     1       1.620  -5.553  -3.537  0.00  0.00    +0.199 A 
ATOM     14  C   UNL     1       1.207  -4.141  -3.614  0.00  0.00    +0.283 C 
ATOM     15  O   UNL     1       0.277  -3.723  -4.275  0.00  0.00    -0.267 OA
ATOM     16  C   UNL     1       1.484 -11.169  -5.837  0.00  0.00    +0.044 C 
ATOM     17  C   UNL     1       3.761 -11.600  -4.122  0.00  0.00    +0.044 C 
ENDROOT
BRANCH   2  18
ATOM     18  C   UNL     1       2.869  -4.201  -0.710  0.00  0.00    -0.019 A 
ATOM     19  C   UNL     1       1.613  -4.159  -0.131  0.00  0.00    +0.009 A 
ATOM     20  C   UNL     1       1.484  -4.101   1.244  0.00  0.00    +0.049 A 
ATOM     21  C   UNL     1       2.615  -4.087   2.046  0.00  0.00    +0.158 A 
ATOM     22  C   UNL     1       3.878  -4.129   1.464  0.00  0.00    +0.162 A 
ATOM     23  C   UNL     1       4.000  -4.192   0.085  0.00  0.00    +0.055 A 
BRANCH  22  24
ATOM     24  O   UNL     1       4.990  -4.115   2.247  0.00  0.00    -0.491 OA
ATOM     25  C   UNL     1       6.253  -4.161   1.580  0.00  0.00    +0.277 C 
ENDBRANCH  22  24
BRANCH  21  26
ATOM     26  O   UNL     1       2.489  -4.030   3.399  0.00  0.00    -0.503 OA
ATOM     27  H   UNL     1       2.439  -4.896   3.826  0.00  0.00    +0.292 HD
ENDBRANCH  21  26
ENDBRANCH   2  18
BRANCH   1  28
ATOM     28  C   UNL     1       1.914  -1.929  -2.670  0.00  0.00    +0.090 C 
BRANCH  28  29
ATOM     29  C   UNL     1       0.995  -1.619  -1.487  0.00  0.00    -0.060 C 
BRANCH  29  30
ATOM     30  N   UNL     1       0.789  -0.168  -1.393  0.00  0.00    +0.380 N 
ATOM     31  H   UNL     1       1.684   0.296  -1.350  0.00  0.00    -0.082 HD
BRANCH  30  33
ATOM     32  C   UNL     1      -0.055   1.826  -2.538  0.00  0.00    -0.017 C 
ATOM     33  C   UNL     1       0.051   0.300  -2.574  0.00  0.00    -0.082 C 
ENDBRANCH  30  33
BRANCH  30  34
ATOM     34  C   UNL     1       0.019   0.140  -0.180  0.00  0.00    -0.082 C 
ATOM     35  C   UNL     1       0.851  -0.211   1.055  0.00  0.00    -0.017 C 
ENDBRANCH  30  34
ENDBRANCH  29  30
ENDBRANCH  28  29
ENDBRANCH   1  28
TORSDOF 8
