REMARK  Name = ZINC02208860
REMARK  6 active torsions:
REMARK  status: ('A' for Active; 'I' for Inactive)
REMARK    1  A    between atoms: C_1  and  C_2
REMARK    2  A    between atoms: C_5  and  C_8
REMARK    3  A    between atoms: C_11  and  C_34
REMARK    4  A    between atoms: C_16  and  C_18
REMARK    5  A    between atoms: N_20  and  C_21
REMARK    6  A    between atoms: C_22  and  C_30
REMARK                            x       y       z     vdW  Elec       q    Type
REMARK                         _______ _______ _______ _____ _____    ______ ____
ROOT
ATOM      1  C   UNL     1       0.059  -4.275  -0.021  0.00  0.00    +0.104 C 
ATOM      2  C   UNL     1      -1.352  -4.810   0.243  0.00  0.00    +0.063 C 
ATOM      3  C   UNL     1      -1.354  -6.341   0.168  0.00  0.00    +0.215 C 
ATOM      4  N   UNL     1      -0.267  -6.858   1.003  0.00  0.00    -0.237 N 
ATOM      5  C   UNL     1       0.803  -6.109   1.406  0.00  0.00    +0.137 A 
ATOM      6  C   UNL     1       1.604  -6.889   2.158  0.00  0.00    +0.112 A 
ATOM      7  C   UNL     1       1.011  -8.171   2.223  0.00  0.00    +0.168 A 
ATOM      8  N   UNL     1      -0.112  -8.142   1.525  0.00  0.00    -0.163 NA
ATOM      9 CL   UNL     1       3.092  -6.408   2.910  0.00  0.00    -0.078 Cl
ATOM     10  N   UNL     1       0.959  -4.765   1.042  0.00  0.00    -0.321 N 
ATOM     11  H   UNL     1       1.615  -4.190   1.465  0.00  0.00    +0.148 HD
ENDROOT
BRANCH   1  16
ATOM     12  C   UNL     1      -0.018   1.503   0.010  0.00  0.00    +0.044 C 
ATOM     13  C   UNL     1       0.002  -0.004   0.002  0.00  0.00    -0.050 A 
ATOM     14  C   UNL     1       0.006  -0.689  -1.199  0.00  0.00    +0.004 A 
ATOM     15  C   UNL     1       0.025  -2.071  -1.206  0.00  0.00    +0.006 A 
ATOM     16  C   UNL     1       0.040  -2.768  -0.013  0.00  0.00    -0.027 A 
ATOM     17  C   UNL     1       0.037  -2.084   1.188  0.00  0.00    +0.006 A 
ATOM     18  C   UNL     1       0.023  -0.702   1.195  0.00  0.00    +0.004 A 
ENDBRANCH   1  16
BRANCH   7  19
ATOM     19  C   UNL     1       1.552  -9.340   2.945  0.00  0.00    +0.270 C 
ATOM     20  O   UNL     1       2.600  -9.246   3.556  0.00  0.00    -0.268 OA
ATOM     21  N   UNL     1       0.885 -10.511   2.927  0.00  0.00    -0.274 N 
ATOM     22  H   UNL     1       0.050 -10.586   2.440  0.00  0.00    +0.156 HD
BRANCH  21  23
ATOM     23  C   UNL     1       1.393 -11.609   3.606  0.00  0.00    +0.090 A 
ATOM     24  C   UNL     1       0.853 -12.881   3.692  0.00  0.00    +0.084 A 
ATOM     25  C   UNL     1       1.586 -13.863   4.471  0.00  0.00    -0.018 A 
ATOM     26  C   UNL     1       2.727 -13.392   5.021  0.00  0.00    -0.004 A 
ATOM     27  S   UNL     1       2.809 -11.703   4.504  0.00  0.00    -0.077 S 
ATOM     28  C   UNL     1       3.695 -14.152   5.874  0.00  0.00    +0.043 C 
ATOM     29  C   UNL     1       3.011 -15.444   6.346  0.00  0.00    +0.005 C 
ATOM     30  C   UNL     1       2.353 -16.124   5.142  0.00  0.00    +0.005 C 
ATOM     31  C   UNL     1       1.147 -15.306   4.675  0.00  0.00    +0.037 C 
BRANCH  24  32
ATOM     32  C   UNL     1      -0.379 -13.214   3.041  0.00  0.00    +0.102 C 
ATOM     33  N   UNL     1      -1.355 -13.479   2.525  0.00  0.00    -0.191 NA
ENDBRANCH  24  32
ENDBRANCH  21  23
ENDBRANCH   7  19
BRANCH   3  34
ATOM     34  C   UNL     1      -2.694  -6.878   0.676  0.00  0.00    +0.412 C 
ATOM     35  F   UNL     1      -3.729  -6.371  -0.117  0.00  0.00    -0.168 F 
ATOM     36  F   UNL     1      -2.693  -8.275   0.606  0.00  0.00    -0.168 F 
ATOM     37  F   UNL     1      -2.883  -6.477   2.003  0.00  0.00    -0.168 F 
ENDBRANCH   3  34
TORSDOF 5
