REMARK  Name = ZINC03521260
REMARK  8 active torsions:
REMARK  status: ('A' for Active; 'I' for Inactive)
REMARK    1  A    between atoms: C_1  and  C_2
REMARK    2  A    between atoms: C_2  and  C_4
REMARK    3  A    between atoms: C_2  and  O_17
REMARK    4  A    between atoms: N_6  and  C_7
REMARK    5  A    between atoms: C_10  and  S_13
REMARK    6  A    between atoms: S_13  and  N_16
REMARK    7  A    between atoms: O_17  and  C_18
REMARK    8  A    between atoms: C_18  and  C_20
REMARK                            x       y       z     vdW  Elec       q    Type
REMARK                         _______ _______ _______ _____ _____    ______ ____
ROOT
ATOM      1  C   UNL     1       3.356   9.961   0.730  0.00  0.00    +0.258 C 
ATOM      2  O   UNL     1       2.237  10.006   1.195  0.00  0.00    -0.271 OA
ATOM      3  N   UNL     1       4.179  11.021   0.853  0.00  0.00    -0.282 N 
ATOM      4  H   UNL     1       5.096  10.962   0.541  0.00  0.00    +0.155 HD
ENDROOT
BRANCH   3   5
ATOM      5  C   UNL     1       3.712  12.207   1.429  0.00  0.00    +0.034 A 
ATOM      6  C   UNL     1       4.170  13.434   0.967  0.00  0.00    +0.025 A 
ATOM      7  C   UNL     1       3.702  14.603   1.535  0.00  0.00    +0.030 A 
ATOM      8  C   UNL     1       2.787  14.552   2.571  0.00  0.00    +0.105 A 
ATOM      9  C   UNL     1       2.334  13.332   3.038  0.00  0.00    +0.030 A 
ATOM     10  C   UNL     1       2.793  12.160   2.470  0.00  0.00    +0.025 A 
BRANCH   8  11
ATOM     11  S   UNL     1       2.198  16.046   3.296  0.00  0.00    +0.056 S 
ATOM     12  O   UNL     1       2.360  17.064   2.319  0.00  0.00    -0.153 OA
ATOM     13  O   UNL     1       0.938  15.744   3.880  0.00  0.00    -0.153 OA
BRANCH  11  14
ATOM     14  N   UNL     1       3.221  16.420   4.544  0.00  0.00    -0.204 NA
ATOM     15  H   UNL     1       3.975  15.843   4.743  0.00  0.00    +0.144 HD
ATOM     16  H   UNL     1       3.065  17.216   5.076  0.00  0.00    +0.144 HD
ENDBRANCH  11  14
ENDBRANCH   8  11
ENDBRANCH   3   5
BRANCH   1  18
ATOM     17  C   UNL     1       4.194   9.072  -1.427  0.00  0.00    +0.062 C 
ATOM     18  C   UNL     1       3.826   8.720   0.016  0.00  0.00    +0.259 C 
BRANCH  18  19
ATOM     19  O   UNL     1       2.765   7.729   0.017  0.00  0.00    -0.448 OA
BRANCH  19  20
ATOM     20  C   UNL     1       3.138   6.433   0.013  0.00  0.00    +0.348 C 
ATOM     21  O   UNL     1       4.318   6.140   0.009  0.00  0.00    -0.244 OA
BRANCH  20  22
ATOM     22  C   UNL     1       2.120   5.378   0.015  0.00  0.00    +0.116 A 
ATOM     23  C   UNL     1       2.298   4.027   0.013  0.00  0.00    +0.070 A 
ATOM     24  C   UNL     1       1.179   3.173   0.015  0.00  0.00    +0.008 A 
ATOM     25  C   UNL     1       1.158   1.755   0.013  0.00  0.00    +0.010 A 
ATOM     26  C   UNL     1      -0.019   1.078   0.015  0.00  0.00    +0.001 A 
ATOM     27  C   UNL     1      -1.241   1.741   0.015  0.00  0.00    +0.001 A 
ATOM     28  C   UNL     1      -1.266   3.120   0.023  0.00  0.00    +0.016 A 
ATOM     29  C   UNL     1      -0.078   3.821   0.020  0.00  0.00    +0.022 A 
ATOM     30  S   UNL     1       0.344   5.546   0.021  0.00  0.00    -0.080 S 
ATOM     31 CL   UNL     1       3.901   3.361   0.007  0.00  0.00    -0.082 Cl
ENDBRANCH  20  22
ENDBRANCH  19  20
ENDBRANCH  18  19
ENDBRANCH   1  18
TORSDOF 7
