REMARK  Name = ZINC50441431
REMARK  5 active torsions:
REMARK  status: ('A' for Active; 'I' for Inactive)
REMARK    1  A    between atoms: C_3  and  O_10
REMARK    2  A    between atoms: C_4  and  C_8
REMARK    3  A    between atoms: C_8  and  N_9
REMARK    4  A    between atoms: O_10  and  C_11
REMARK    5  A    between atoms: C_14  and  N_18
REMARK                            x       y       z     vdW  Elec       q    Type
REMARK                         _______ _______ _______ _____ _____    ______ ____
ROOT
ATOM      1  C   UNL     1      -0.017   1.380   0.010  0.00  0.00    +0.042 A 
ATOM      2  C   UNL     1       1.170   2.088   0.002  0.00  0.00    +0.049 A 
ATOM      3  C   UNL     1       2.380   1.411  -0.013  0.00  0.00    +0.130 A 
ATOM      4  C   UNL     1       2.398   0.023  -0.021  0.00  0.00    -0.020 A 
ATOM      5  C   UNL     1       1.210  -0.681  -0.013  0.00  0.00    +0.043 A 
ATOM      6  C   UNL     1       0.002  -0.004   0.002  0.00  0.00    +0.124 A 
ATOM      7  F   UNL     1      -1.159  -0.695   0.009  0.00  0.00    -0.205 F 
ENDROOT
BRANCH   4   8
ATOM      8  C   UNL     1       3.712  -0.714  -0.038  0.00  0.00    -0.047 C 
BRANCH   8   9
ATOM      9  N   UNL     1       4.270  -0.751   1.321  0.00  0.00    +0.381 N 
ATOM     10  H   UNL     1       4.417   0.191   1.650  0.00  0.00    -0.090 HD
ATOM     11  H   UNL     1       3.626  -1.226   1.936  0.00  0.00    -0.090 HD
ATOM     12  H   UNL     1       5.150  -1.245   1.309  0.00  0.00    -0.090 HD
ENDBRANCH   8   9
ENDBRANCH   4   8
BRANCH   3  13
ATOM     13  O   UNL     1       3.549   2.106  -0.021  0.00  0.00    -0.454 OA
BRANCH  13  14
ATOM     14  C   UNL     1       3.483   3.463  -0.013  0.00  0.00    +0.156 A 
ATOM     15  C   UNL     1       3.433   4.163  -1.211  0.00  0.00    +0.063 A 
ATOM     16  C   UNL     1       3.367   5.544  -1.200  0.00  0.00    +0.051 A 
ATOM     17  C   UNL     1       3.351   6.228   0.002  0.00  0.00    +0.129 A 
ATOM     18  C   UNL     1       3.401   5.533   1.196  0.00  0.00    +0.051 A 
ATOM     19  C   UNL     1       3.462   4.152   1.192  0.00  0.00    +0.063 A 
ATOM     20 BR   UNL     1       3.522   3.202   2.825  0.00  0.00    -0.046 Br
ATOM     21 BR   UNL     1       3.455   3.230  -2.855  0.00  0.00    -0.046 Br
BRANCH  17  22
ATOM     22  N   UNL     1       3.281   7.706   0.010  0.00  0.00    +0.056 N 
ATOM     23  O   UNL     1       3.237   8.315  -1.034  0.00  0.00    -0.126 OA
ATOM     24  O   UNL     1       3.267   8.305   1.060  0.00  0.00    -0.126 OA
ENDBRANCH  17  22
ENDBRANCH  13  14
ENDBRANCH   3  13
TORSDOF 5
