REMARK  Name = ZINC28849268
REMARK  7 active torsions:
REMARK  status: ('A' for Active; 'I' for Inactive)
REMARK    1  A    between atoms: C_1  and  C_2
REMARK    2  A    between atoms: C_7  and  N_8
REMARK    3  A    between atoms: C_9  and  C_23
REMARK    4  A    between atoms: C_12  and  S_13
REMARK    5  A    between atoms: S_13  and  C_14
REMARK    6  A    between atoms: C_14  and  C_16
REMARK    7  A    between atoms: C_14  and  C_17
REMARK                            x       y       z     vdW  Elec       q    Type
REMARK                         _______ _______ _______ _____ _____    ______ ____
ROOT
ATOM      1  N   UNL     1       0.002  -0.004   0.002  0.00  0.00    -0.270 N 
ATOM      2  C   UNL     1       0.024  -0.843   1.095  0.00  0.00    +0.171 A 
ATOM      3  N   UNL     1       0.036  -2.074   0.634  0.00  0.00    -0.128 NA
ATOM      4  N   UNL     1       0.024  -2.063  -0.651  0.00  0.00    -0.122 NA
ATOM      5  C   UNL     1      -0.003  -0.827  -1.094  0.00  0.00    +0.197 A 
ENDROOT
BRANCH   2   6
ATOM      6  C   UNL     1       0.031  -0.437   2.514  0.00  0.00    +0.045 A 
ATOM      7  C   UNL     1       0.023   0.833   2.994  0.00  0.00    +0.095 A 
ATOM      8  N   UNL     1       0.030   0.809   4.359  0.00  0.00    -0.360 N 
ATOM      9  H   UNL     1       0.018   1.752   4.926  0.00  0.00    +0.165 HD
ATOM     10  C   UNL     1       0.053  -0.492   4.812  0.00  0.00    +0.047 A 
ATOM     11  C   UNL     1       0.054  -1.331   3.685  0.00  0.00    +0.010 A 
ATOM     12  C   UNL     1       0.076  -2.715   3.844  0.00  0.00    +0.011 A 
ATOM     13  C   UNL     1       0.094  -3.255   5.111  0.00  0.00    +0.001 A 
ATOM     14  C   UNL     1       0.093  -2.428   6.226  0.00  0.00    +0.002 A 
ATOM     15  C   UNL     1       0.072  -1.058   6.083  0.00  0.00    +0.026 A 
ENDBRANCH   2   6
BRANCH   1  22
ATOM     16  C   UNL     1      -2.524   1.308   0.022  0.00  0.00    +0.046 C 
ATOM     17  C   UNL     1      -1.228   2.077   0.019  0.00  0.00    -0.026 A 
ATOM     18  C   UNL     1      -1.243   3.458   0.032  0.00  0.00    +0.005 A 
ATOM     19  C   UNL     1      -0.054   4.164   0.024  0.00  0.00    +0.000 A 
ATOM     20  C   UNL     1       1.153   3.490   0.009  0.00  0.00    +0.002 A 
ATOM     21  C   UNL     1       1.175   2.110   0.002  0.00  0.00    +0.026 A 
ATOM     22  C   UNL     1      -0.017   1.398   0.010  0.00  0.00    +0.053 A 
ENDBRANCH   1  22
BRANCH   5  23
ATOM     23  S   UNL     1      -0.036  -0.322  -2.781  0.00  0.00    -0.073 S 
BRANCH  23  24
ATOM     24  C   UNL     1      -0.026  -1.939  -3.594  0.00  0.00    +0.137 C 
ATOM     25  C   UNL     1       1.296  -2.650  -3.298  0.00  0.00    +0.029 C 
BRANCH  24  26
ATOM     26  C   UNL     1      -0.175  -1.754  -5.082  0.00  0.00    +0.233 C 
ATOM     27  O   UNL     1       0.168  -0.713  -5.601  0.00  0.00    -0.274 OA
ATOM     28  N   UNL     1      -0.688  -2.746  -5.836  0.00  0.00    -0.239 N 
ATOM     29  C   UNL     1      -0.822  -2.580  -7.167  0.00  0.00    +0.303 C 
ATOM     30  O   UNL     1      -0.479  -1.537  -7.687  0.00  0.00    -0.253 OA
ATOM     31  N   UNL     1      -1.335  -3.572  -7.922  0.00  0.00    -0.313 N 
ATOM     32  H   UNL     1      -0.999  -3.690  -5.366  0.00  0.00    +0.159 HD
ATOM     33  H   UNL     1      -1.444  -3.437  -9.008  0.00  0.00    +0.146 HD
ATOM     34  H   UNL     1      -1.646  -4.516  -7.451  0.00  0.00    +0.146 HD
ENDBRANCH  24  26
ENDBRANCH  23  24
ENDBRANCH   5  23
TORSDOF 5
