REMARK  Name = ZINC09502089
REMARK  6 active torsions:
REMARK  status: ('A' for Active; 'I' for Inactive)
REMARK    1  A    between atoms: C_1  and  C_2
REMARK    2  A    between atoms: N_8  and  S_9
REMARK    3  A    between atoms: S_9  and  C_12
REMARK    4  A    between atoms: N_21  and  C_22
REMARK    5  A    between atoms: C_22  and  C_23
REMARK    6  A    between atoms: N_25  and  C_26
REMARK                            x       y       z     vdW  Elec       q    Type
REMARK                         _______ _______ _______ _____ _____    ______ ____
ROOT
ATOM      1  C   UNL     1       3.080  -1.085  -3.890  0.00  0.00    +0.109 A 
ATOM      2  C   UNL     1       3.795  -0.192  -4.669  0.00  0.00    +0.031 A 
ATOM      3  C   UNL     1       3.751  -0.282  -6.047  0.00  0.00    +0.031 A 
ATOM      4  C   UNL     1       2.988  -1.270  -6.649  0.00  0.00    +0.091 A 
ATOM      5  C   UNL     1       2.268  -2.171  -5.865  0.00  0.00    +0.159 A 
ATOM      6  C   UNL     1       2.322  -2.076  -4.483  0.00  0.00    +0.077 A 
ATOM      7  O   UNL     1       1.624  -3.014  -6.709  0.00  0.00    -0.407 OA
ATOM      8  C   UNL     1       1.913  -2.676  -7.976  0.00  0.00    +0.422 A 
ATOM      9  O   UNL     1       1.492  -3.240  -8.967  0.00  0.00    -0.223 OA
ATOM     10  N   UNL     1       2.744  -1.615  -7.978  0.00  0.00    -0.265 N 
ENDROOT
BRANCH   1  11
ATOM     11  S   UNL     1       3.143  -0.963  -2.134  0.00  0.00    +0.061 S 
ATOM     12  O   UNL     1       4.358  -0.298  -1.816  0.00  0.00    -0.153 OA
ATOM     13  O   UNL     1       2.824  -2.251  -1.625  0.00  0.00    -0.153 OA
BRANCH  11  20
ATOM     14  C   UNL     1       0.548  -1.989  -1.642  0.00  0.00    +0.026 C 
ATOM     15  C   UNL     1       0.550  -0.466  -1.495  0.00  0.00    +0.077 C 
ATOM     16  C   UNL     1       0.055  -0.085  -0.096  0.00  0.00    +0.020 C 
ATOM     17  C   UNL     1       0.187   1.428   0.093  0.00  0.00    +0.003 C 
ATOM     18  C   UNL     1       1.658   1.832  -0.025  0.00  0.00    +0.017 C 
ATOM     19  C   UNL     1       2.172   1.473  -1.423  0.00  0.00    +0.110 C 
ATOM     20  N   UNL     1       1.916   0.047  -1.669  0.00  0.00    -0.174 NA
ENDBRANCH  11  20
ENDBRANCH   1  11
BRANCH  10  21
ATOM     21  C   UNL     1       3.291  -0.945  -9.161  0.00  0.00    +0.224 C 
BRANCH  21  22
ATOM     22  C   UNL     1       4.597  -1.591  -9.545  0.00  0.00    +0.233 C 
ATOM     23  O   UNL     1       5.029  -2.519  -8.895  0.00  0.00    -0.274 OA
ATOM     24  N   UNL     1       5.285  -1.138 -10.611  0.00  0.00    -0.311 N 
ATOM     25  H   UNL     1       4.940  -0.395 -11.132  0.00  0.00    +0.149 HD
BRANCH  24  26
ATOM     26  C   UNL     1       6.555  -1.766 -10.985  0.00  0.00    +0.073 C 
ATOM     27  C   UNL     1       7.691  -1.142 -10.171  0.00  0.00    +0.022 C 
ATOM     28  C   UNL     1       8.928  -2.038 -10.253  0.00  0.00    +0.002 C 
ATOM     29  C   UNL     1       8.514  -3.500 -10.073  0.00  0.00    +0.000 C 
ATOM     30  C   UNL     1       8.742  -4.260 -11.381  0.00  0.00    +0.000 C 
ATOM     31  C   UNL     1       7.638  -3.901 -12.378  0.00  0.00    +0.000 C 
ATOM     32  C   UNL     1       7.903  -2.508 -12.953  0.00  0.00    +0.002 C 
ATOM     33  C   UNL     1       6.815  -1.544 -12.476  0.00  0.00    +0.022 C 
ENDBRANCH  24  26
ENDBRANCH  21  22
ENDBRANCH  10  21
TORSDOF 5
