REMARK  Name = ZINC18199043
REMARK  6 active torsions:
REMARK  status: ('A' for Active; 'I' for Inactive)
REMARK    1  A    between atoms: C_1  and  O_2
REMARK    2  A    between atoms: O_2  and  C_3
REMARK    3  A    between atoms: C_6  and  C_11
REMARK    4  A    between atoms: C_8  and  O_9
REMARK    5  A    between atoms: O_9  and  C_10
REMARK    6  A    between atoms: C_16  and  C_25
REMARK                            x       y       z     vdW  Elec       q    Type
REMARK                         _______ _______ _______ _____ _____    ______ ____
ROOT
ATOM      1  C   UNL     1       2.489   1.046  -0.017  0.00  0.00    +0.032 C 
ATOM      2  C   UNL     1       3.309   1.425   1.218  0.00  0.00    +0.060 C 
ATOM      3  C   UNL     1       4.645   0.722   1.178  0.00  0.00    +0.020 C 
ATOM      4  C   UNL     1       5.240   0.428   0.002  0.00  0.00    +0.041 C 
ATOM      5  C   UNL     1       6.579  -0.272  -0.070  0.00  0.00    +0.176 C 
ATOM      6  N   UNL     1       7.218  -0.261   1.240  0.00  0.00    -0.219 N 
ATOM      7  C   UNL     1       6.566   0.053   2.386  0.00  0.00    +0.220 A 
ATOM      8  N   UNL     1       7.414  -0.039   3.374  0.00  0.00    -0.180 NA
ATOM      9  C   UNL     1       8.614  -0.404   2.901  0.00  0.00    +0.233 A 
ATOM     10  N   UNL     1       8.535  -0.549   1.596  0.00  0.00    -0.132 NA
ATOM     11  N   UNL     1       9.763  -0.598   3.670  0.00  0.00    -0.326 N 
ATOM     12  N   UNL     1       5.226   0.403   2.382  0.00  0.00    -0.287 N 
ATOM     13  C   UNL     1       4.628   0.764  -1.220  0.00  0.00    +0.164 C 
ATOM     14  O   UNL     1       5.197   0.502  -2.261  0.00  0.00    -0.292 OA
ATOM     15  C   UNL     1       3.286   1.440  -1.265  0.00  0.00    +0.088 C 
ATOM     16  H   UNL     1       9.731  -0.468   4.631  0.00  0.00    +0.145 HD
ATOM     17  H   UNL     1      10.593  -0.863   3.244  0.00  0.00    +0.145 HD
ATOM     18  H   UNL     1       4.712   0.421   3.204  0.00  0.00    +0.155 HD
ENDROOT
BRANCH   5  19
ATOM     19  C   UNL     1       6.375  -1.697  -0.515  0.00  0.00    -0.017 A 
ATOM     20  C   UNL     1       6.974  -2.151  -1.676  0.00  0.00    +0.007 A 
ATOM     21  C   UNL     1       6.788  -3.457  -2.086  0.00  0.00    +0.022 A 
ATOM     22  C   UNL     1       6.003  -4.313  -1.334  0.00  0.00    +0.059 A 
ATOM     23  C   UNL     1       5.404  -3.859  -0.171  0.00  0.00    +0.060 A 
ATOM     24  C   UNL     1       5.596  -2.552   0.240  0.00  0.00    +0.027 A 
ATOM     25 CL   UNL     1       4.418  -4.931   0.774  0.00  0.00    -0.082 Cl
ATOM     26 CL   UNL     1       5.769  -5.954  -1.848  0.00  0.00    -0.082 Cl
ENDBRANCH   5  19
BRANCH   1  30
ATOM     27  C   UNL     1      -1.237   3.144   0.030  0.00  0.00    +0.161 A 
ATOM     28  C   UNL     1      -0.043   3.847   0.023  0.00  0.00    +0.049 A 
ATOM     29  C   UNL     1       1.160   3.166   0.008  0.00  0.00    +0.008 A 
ATOM     30  C   UNL     1       1.175   1.783   0.000  0.00  0.00    -0.040 A 
ATOM     31  C   UNL     1      -0.013   1.076   0.008  0.00  0.00    +0.053 A 
ATOM     32  C   UNL     1      -1.222   1.752   0.017  0.00  0.00    +0.162 A 
BRANCH  27  34
ATOM     33  C   UNL     1      -2.361   5.240   0.051  0.00  0.00    +0.277 C 
ATOM     34  O   UNL     1      -2.421   3.812   0.044  0.00  0.00    -0.491 OA
ENDBRANCH  27  34
BRANCH  32  35
ATOM     35  O   UNL     1      -2.391   1.058   0.019  0.00  0.00    -0.491 OA
ATOM     36  C   UNL     1      -2.299  -0.368   0.011  0.00  0.00    +0.277 C 
ENDBRANCH  32  35
ENDBRANCH   1  30
TORSDOF 4
