REMARK  Name = ZINC28935014
REMARK  7 active torsions:
REMARK  status: ('A' for Active; 'I' for Inactive)
REMARK    1  A    between atoms: C_1  and  N_2
REMARK    2  A    between atoms: N_2  and  C_3
REMARK    3  A    between atoms: N_2  and  C_11
REMARK    4  A    between atoms: C_3  and  C_4
REMARK    5  A    between atoms: C_11  and  C_12
REMARK    6  A    between atoms: N_14  and  C_15
REMARK    7  A    between atoms: C_20  and  N_21
REMARK                            x       y       z     vdW  Elec       q    Type
REMARK                         _______ _______ _______ _____ _____    ______ ____
ROOT
ATOM      1  C   UNL     1      -1.112   1.262  -3.561  0.00  0.00    +0.201 C 
ATOM      2  O   UNL     1      -2.078   1.977  -3.393  0.00  0.00    -0.278 OA
ATOM      3  N   UNL     1      -0.840   0.775  -4.788  0.00  0.00    -0.285 N 
ATOM      4  H   UNL     1       0.084   0.203  -4.960  0.00  0.00    +0.155 HD
ENDROOT
BRANCH   3   5
ATOM      5  C   UNL     1      -1.734   0.996  -5.844  0.00  0.00    +0.066 A 
ATOM      6  C   UNL     1      -3.078   1.224  -5.579  0.00  0.00    +0.052 A 
ATOM      7  C   UNL     1      -3.957   1.443  -6.625  0.00  0.00    +0.078 A 
ATOM      8  C   UNL     1      -3.494   1.433  -7.941  0.00  0.00    +0.145 A 
ATOM      9  C   UNL     1      -2.154   1.206  -8.200  0.00  0.00    +0.082 A 
ATOM     10  C   UNL     1      -1.274   0.993  -7.154  0.00  0.00    +0.151 A 
ATOM     11  O   UNL     1      -4.370   1.647  -8.960  0.00  0.00    -0.481 OA
ATOM     12  C   UNL     1      -5.705   1.173  -8.770  0.00  0.00    +0.325 C 
ATOM     13  C   UNL     1      -6.195   1.572  -7.402  0.00  0.00    +0.255 C 
ATOM     14  O   UNL     1      -7.372   1.799  -7.219  0.00  0.00    -0.272 OA
ATOM     15  N   UNL     1      -5.318   1.676  -6.380  0.00  0.00    -0.280 N 
ATOM     16  H   UNL     1      -5.656   1.940  -5.367  0.00  0.00    +0.155 HD
BRANCH  10  17
ATOM     17  N   UNL     1       0.160   0.756  -7.432  0.00  0.00    +0.058 N 
ATOM     18  O   UNL     1       0.582   0.841  -8.572  0.00  0.00    -0.126 OA
ATOM     19  O   UNL     1       0.919   0.475  -6.522  0.00  0.00    -0.126 OA
ENDBRANCH  10  17
ENDBRANCH   3   5
BRANCH   1  20
ATOM     20  C   UNL     1      -0.217   0.920  -2.398  0.00  0.00    +0.019 C 
BRANCH  20  22
ATOM     21  C   UNL     1      -0.621   3.031  -1.283  0.00  0.00    -0.095 C 
ATOM     22  N   UNL     1      -0.724   1.569  -1.182  0.00  0.00    +0.386 N 
ATOM     23  H   UNL     1      -1.788   1.311  -1.080  0.00  0.00    -0.081 HD
BRANCH  22  24
ATOM     24  C   UNL     1      -0.023   1.073   0.010  0.00  0.00    -0.043 C 
BRANCH  24  25
ATOM     25  C   UNL     1      -0.726   1.569   1.248  0.00  0.00    -0.064 A 
ATOM     26  C   UNL     1      -0.353   2.771   1.819  0.00  0.00    +0.003 A 
ATOM     27  C   UNL     1      -1.001   3.228   2.952  0.00  0.00    +0.015 A 
ATOM     28  C   UNL     1      -2.014   2.477   3.519  0.00  0.00    +0.018 A 
ATOM     29  C   UNL     1      -2.383   1.272   2.950  0.00  0.00    +0.015 A 
ATOM     30  C   UNL     1      -1.738   0.818   1.815  0.00  0.00    +0.003 A 
ATOM     31 BR   UNL     1      -2.896   3.099   5.073  0.00  0.00    -0.050 Br
ENDBRANCH  24  25
ENDBRANCH  22  24
ENDBRANCH  20  22
ENDBRANCH   1  20
TORSDOF 6
