REMARK  Name = ZINC40170679
REMARK  11 active torsions:
REMARK  status: ('A' for Active; 'I' for Inactive)
REMARK    1  A    between atoms: C_1  and  C_2
REMARK    2  A    between atoms: C_4  and  C_31
REMARK    3  A    between atoms: C_8  and  C_30
REMARK    4  A    between atoms: C_12  and  S_15
REMARK    5  A    between atoms: S_15  and  C_16
REMARK    6  A    between atoms: C_16  and  C_17
REMARK    7  A    between atoms: C_17  and  C_18
REMARK    8  A    between atoms: N_20  and  C_21
REMARK    9  A    between atoms: C_26  and  C_27
REMARK   10  A    between atoms: C_27  and  C_28
REMARK   11  A    between atoms: C_27  and  C_29
REMARK                            x       y       z     vdW  Elec       q    Type
REMARK                         _______ _______ _______ _____ _____    ______ ____
ROOT
ATOM      1  C   UNL     1       0.061   1.510   0.057  0.00  0.00    +0.044 C 
ATOM      2  C   UNL     1       0.070   0.004   0.042  0.00  0.00    -0.050 A 
ATOM      3  C   UNL     1       0.022  -0.681  -1.159  0.00  0.00    +0.008 A 
ATOM      4  C   UNL     1       0.078  -2.063  -1.186  0.00  0.00    -0.026 A 
ATOM      5  C   UNL     1       0.258  -2.781  -0.017  0.00  0.00    +0.061 A 
ATOM      6  C   UNL     1       0.124  -2.091   1.212  0.00  0.00    +0.002 A 
ATOM      7  C   UNL     1       0.088  -0.695   1.229  0.00  0.00    +0.013 A 
ATOM      8  C   UNL     1      -0.043  -2.862   2.446  0.00  0.00    -0.038 A 
ATOM      9  C   UNL     1      -0.001  -4.213   2.388  0.00  0.00    +0.052 A 
ATOM     10  C   UNL     1       0.284  -4.861   1.168  0.00  0.00    +0.162 A 
ATOM     11  N   UNL     1       0.539  -4.134   0.018  0.00  0.00    -0.270 N 
ATOM     12  C   UNL     1       1.112  -5.039  -0.824  0.00  0.00    +0.196 A 
ATOM     13  N   UNL     1       0.858  -6.239  -0.339  0.00  0.00    -0.122 NA
ATOM     14  N   UNL     1       0.333  -6.135   0.826  0.00  0.00    -0.129 NA
ATOM     15  C   UNL     1      -0.264  -2.179   3.772  0.00  0.00    +0.044 C 
ATOM     16  C   UNL     1      -0.144  -2.748  -2.511  0.00  0.00    +0.046 C 
ENDROOT
BRANCH  12  17
ATOM     17  S   UNL     1       2.079  -4.718  -2.261  0.00  0.00    -0.085 S 
BRANCH  17  18
ATOM     18  C   UNL     1       2.505  -6.369  -2.881  0.00  0.00    +0.086 C 
BRANCH  18  19
ATOM     19  C   UNL     1       3.357  -6.234  -4.145  0.00  0.00    +0.107 C 
BRANCH  19  20
ATOM     20  C   UNL     1       3.711  -7.606  -4.661  0.00  0.00    +0.218 C 
ATOM     21  O   UNL     1       3.320  -8.593  -4.075  0.00  0.00    -0.275 OA
ATOM     22  N   UNL     1       4.461  -7.735  -5.773  0.00  0.00    -0.285 N 
ATOM     23  H   UNL     1       4.707  -6.949  -6.286  0.00  0.00    +0.155 HD
BRANCH  22  24
ATOM     24  C   UNL     1       4.886  -9.002  -6.187  0.00  0.00    +0.037 A 
ATOM     25  C   UNL     1       5.008 -10.032  -5.262  0.00  0.00    +0.023 A 
ATOM     26  C   UNL     1       5.428 -11.281  -5.674  0.00  0.00    +0.002 A 
ATOM     27  C   UNL     1       5.728 -11.508  -7.005  0.00  0.00    +0.000 A 
ATOM     28  C   UNL     1       5.608 -10.485  -7.928  0.00  0.00    +0.006 A 
ATOM     29  C   UNL     1       5.182  -9.235  -7.523  0.00  0.00    -0.024 A 
BRANCH  29  30
ATOM     30  C   UNL     1       5.045  -8.122  -8.531  0.00  0.00    +0.015 C 
ATOM     31  C   UNL     1       6.369  -7.944  -9.277  0.00  0.00    +0.012 C 
ATOM     32  C   UNL     1       3.939  -8.472  -9.529  0.00  0.00    +0.012 C 
ENDBRANCH  29  30
ENDBRANCH  22  24
ENDBRANCH  19  20
ENDBRANCH  18  19
ENDBRANCH  17  18
ENDBRANCH  12  17
TORSDOF 6
