REMARK  Name = ZINC39167433
REMARK  0 active torsions:
REMARK  status: ('A' for Active; 'I' for Inactive)
REMARK                            x       y       z     vdW  Elec       q    Type
REMARK                         _______ _______ _______ _____ _____    ______ ____
ROOT
ATOM      1  C   UNL     1      -0.018   1.512   0.010  0.00  0.00    +0.038 C 
ATOM      2  C   UNL     1       1.166   2.145   0.002  0.00  0.00    +0.056 C 
ATOM      3  C   UNL     1       2.375   1.423  -0.013  0.00  0.00    +0.120 C 
ATOM      4  N   UNL     1       2.451   0.120  -0.021  0.00  0.00    -0.185 NA
ATOM      5  C   UNL     1       1.366  -0.665  -0.015  0.00  0.00    +0.272 C 
ATOM      6  O   UNL     1       1.472  -1.875  -0.022  0.00  0.00    -0.270 OA
ATOM      7  C   UNL     1       0.002  -0.004   0.002  0.00  0.00    +0.268 C 
ATOM      8  O   UNL     1      -0.719  -0.450  -1.148  0.00  0.00    -0.217 OA
ATOM      9 CL   UNL     1       1.207   3.881   0.011  0.00  0.00    -0.082 Cl
ENDROOT
TORSDOF 0
