REMARK  Name = ZINC09085652
REMARK  8 active torsions:
REMARK  status: ('A' for Active; 'I' for Inactive)
REMARK    1  A    between atoms: C_1  and  C_2
REMARK    2  A    between atoms: C_2  and  C_4
REMARK    3  A    between atoms: C_2  and  S_16
REMARK    4  A    between atoms: N_6  and  C_7
REMARK    5  A    between atoms: C_10  and  N_13
REMARK    6  A    between atoms: S_16  and  C_17
REMARK    7  A    between atoms: N_27  and  C_28
REMARK    8  A    between atoms: C_28  and  C_29
REMARK                            x       y       z     vdW  Elec       q    Type
REMARK                         _______ _______ _______ _____ _____    ______ ____
ROOT
ATOM      1  S   UNL     1      -2.752   4.212   0.051  0.00  0.00    -0.075 S 
ENDROOT
BRANCH   1   2
ATOM      2  C   UNL     1      -1.195   3.387   0.021  0.00  0.00    +0.173 A 
ATOM      3  N   UNL     1      -1.183   2.077   0.010  0.00  0.00    -0.223 NA
ATOM      4  C   UNL     1      -0.022   1.380  -0.018  0.00  0.00    +0.080 A 
ATOM      5  C   UNL     1      -0.007  -0.017  -0.034  0.00  0.00    +0.048 A 
ATOM      6  C   UNL     1       1.198  -0.683  -0.058  0.00  0.00    +0.043 A 
ATOM      7  C   UNL     1       2.399   0.018  -0.066  0.00  0.00    +0.021 A 
ATOM      8  C   UNL     1       2.410   1.385  -0.050  0.00  0.00    +0.017 A 
ATOM      9  C   UNL     1       1.204   2.084  -0.026  0.00  0.00    +0.065 A 
ATOM     10  C   UNL     1       1.160   3.553  -0.009  0.00  0.00    +0.263 A 
ATOM     11  O   UNL     1       2.182   4.214  -0.014  0.00  0.00    -0.267 OA
ATOM     12  N   UNL     1      -0.058   4.143   0.015  0.00  0.00    -0.283 N 
ATOM     13 CL   UNL     1       1.219  -2.419  -0.078  0.00  0.00    -0.083 Cl
BRANCH  12  14
ATOM     14  C   UNL     1      -0.156   5.604   0.033  0.00  0.00    +0.154 C 
BRANCH  14  15
ATOM     15  C   UNL     1      -0.209   6.122  -1.381  0.00  0.00    -0.013 C 
ATOM     16  C   UNL     1      -1.197   6.894  -1.760  0.00  0.00    +0.005 C 
ENDBRANCH  14  15
ENDBRANCH  12  14
ENDBRANCH   1   2
BRANCH   1  18
ATOM     17  C   UNL     1      -3.715   2.022  -1.268  0.00  0.00    +0.029 C 
ATOM     18  C   UNL     1      -3.864   2.785   0.050  0.00  0.00    +0.137 C 
BRANCH  18  19
ATOM     19  C   UNL     1      -5.288   3.257   0.198  0.00  0.00    +0.230 C 
ATOM     20  O   UNL     1      -5.594   4.378  -0.149  0.00  0.00    -0.274 OA
ATOM     21  N   UNL     1      -6.220   2.434   0.718  0.00  0.00    -0.285 N 
ATOM     22  H   UNL     1      -5.991   1.516   0.934  0.00  0.00    +0.155 HD
BRANCH  21  23
ATOM     23  C   UNL     1      -7.519   2.903   0.945  0.00  0.00    +0.034 A 
ATOM     24  C   UNL     1      -8.243   2.444   2.038  0.00  0.00    +0.025 A 
ATOM     25  C   UNL     1      -9.523   2.912   2.262  0.00  0.00    +0.034 A 
ATOM     26  C   UNL     1     -10.087   3.830   1.395  0.00  0.00    +0.126 A 
ATOM     27  C   UNL     1      -9.370   4.285   0.303  0.00  0.00    +0.034 A 
ATOM     28  C   UNL     1      -8.088   3.825   0.076  0.00  0.00    +0.025 A 
BRANCH  26  29
ATOM     29  N   UNL     1     -11.460   4.326   1.636  0.00  0.00    +0.056 N 
ATOM     30  O   UNL     1     -11.958   5.135   0.873  0.00  0.00    -0.126 OA
ATOM     31  O   UNL     1     -12.093   3.926   2.596  0.00  0.00    -0.126 OA
ENDBRANCH  26  29
ENDBRANCH  21  23
ENDBRANCH  18  19
ENDBRANCH   1  18
TORSDOF 7
