REMARK  Name = ZINC20292953
REMARK  7 active torsions:
REMARK  status: ('A' for Active; 'I' for Inactive)
REMARK    1  A    between atoms: C_1  and  C_2
REMARK    2  A    between atoms: C_2  and  C_3
REMARK    3  A    between atoms: C_3  and  C_5
REMARK    4  A    between atoms: C_3  and  N_6
REMARK    5  A    between atoms: C_10  and  N_11
REMARK    6  A    between atoms: N_11  and  C_12
REMARK    7  A    between atoms: C_18  and  N_20
REMARK                            x       y       z     vdW  Elec       q    Type
REMARK                         _______ _______ _______ _____ _____    ______ ____
ROOT
ATOM      1  N   UNL     1       2.167  -0.096  -1.115  0.00  0.00    -0.246 N 
ATOM      2  C   UNL     1       2.728   0.746  -2.007  0.00  0.00    +0.259 C 
ATOM      3  O   UNL     1       2.072   1.222  -2.915  0.00  0.00    -0.269 OA
ATOM      4  C   UNL     1       4.156   1.075  -1.852  0.00  0.00    +0.113 C 
ATOM      5  C   UNL     1       4.799   1.931  -2.727  0.00  0.00    +0.086 C 
ATOM      6  C   UNL     1       4.870   0.452  -0.723  0.00  0.00    +0.256 C 
ATOM      7  O   UNL     1       6.050   0.675  -0.529  0.00  0.00    -0.270 OA
ATOM      8  N   UNL     1       4.178  -0.373   0.091  0.00  0.00    -0.263 N 
ATOM      9  C   UNL     1       2.876  -0.623  -0.107  0.00  0.00    +0.146 C 
ATOM     10  S   UNL     1       2.079  -1.677   0.980  0.00  0.00    -0.018 S 
ATOM     11  H   UNL     1       4.632  -0.791   0.839  0.00  0.00    +0.157 HD
ENDROOT
BRANCH   1  12
ATOM     12  C   UNL     1       0.749  -0.438  -1.248  0.00  0.00    +0.080 C 
ATOM     13  C   UNL     1      -0.091   0.840  -1.200  0.00  0.00    +0.028 C 
BRANCH  12  15
ATOM     14  C   UNL     1       1.256  -2.491  -2.579  0.00  0.00    +0.006 C 
ATOM     15  C   UNL     1       0.518  -1.150  -2.582  0.00  0.00    +0.019 C 
ENDBRANCH  12  15
ENDBRANCH   1  12
BRANCH   5  16
ATOM     16  N   UNL     1       6.071   2.308  -2.488  0.00  0.00    -0.348 N 
ATOM     17  H   UNL     1       6.560   1.924  -1.744  0.00  0.00    +0.146 HD
BRANCH  16  18
ATOM     18  C   UNL     1       6.715   3.300  -3.353  0.00  0.00    +0.055 C 
ATOM     19  C   UNL     1       6.362   4.707  -2.868  0.00  0.00    +0.020 C 
ATOM     20  C   UNL     1       7.035   5.742  -3.772  0.00  0.00    +0.002 C 
ATOM     21  C   UNL     1       8.552   5.552  -3.723  0.00  0.00    -0.001 C 
ATOM     22  C   UNL     1       8.906   4.145  -4.208  0.00  0.00    -0.014 C 
ATOM     23  C   UNL     1       8.233   3.110  -3.304  0.00  0.00    -0.055 C 
BRANCH  23  24
ATOM     24  N   UNL     1       8.573   1.758  -3.770  0.00  0.00    +0.381 N 
ATOM     25  H   UNL     1       8.249   1.638  -4.718  0.00  0.00    -0.090 HD
ATOM     26  H   UNL     1       9.573   1.633  -3.738  0.00  0.00    -0.090 HD
ATOM     27  H   UNL     1       8.129   1.076  -3.174  0.00  0.00    -0.090 HD
ENDBRANCH  23  24
ENDBRANCH  16  18
ENDBRANCH   5  16
TORSDOF 5
