REMARK  Name = ZINC32951672
REMARK  4 active torsions:
REMARK  status: ('A' for Active; 'I' for Inactive)
REMARK    1  A    between atoms: C_8  and  C_10
REMARK    2  A    between atoms: N_12  and  C_13
REMARK    3  A    between atoms: C_13  and  C_14
REMARK    4  A    between atoms: C_14  and  C_15
REMARK                            x       y       z     vdW  Elec       q    Type
REMARK                         _______ _______ _______ _____ _____    ______ ____
ROOT
ATOM      1  C   UNL     1      -1.187   1.624   0.017  0.00  0.00    +0.264 C 
ATOM      2  O   UNL     1      -1.204   2.839   0.023  0.00  0.00    -0.268 OA
ATOM      3  N   UNL     1      -0.011   0.966   0.007  0.00  0.00    -0.310 N 
ATOM      4  H   UNL     1       0.004  -0.134   0.006  0.00  0.00    +0.149 HD
ENDROOT
BRANCH   1  12
ATOM      5  C   UNL     1      -6.688  -0.866   0.029  0.00  0.00    +0.004 A 
ATOM      6  C   UNL     1      -5.926  -2.047   0.020  0.00  0.00    +0.020 A 
ATOM      7  C   UNL     1      -4.578  -1.991   0.013  0.00  0.00    +0.113 A 
ATOM      8  N   UNL     1      -3.930  -0.789   0.017  0.00  0.00    -0.239 N 
ATOM      9  C   UNL     1      -4.649   0.380   0.026  0.00  0.00    +0.068 A 
ATOM     10  C   UNL     1      -6.059   0.339   0.032  0.00  0.00    +0.028 A 
ATOM     11  C   UNL     1      -3.739   1.425   0.033  0.00  0.00    +0.062 A 
ATOM     12  C   UNL     1      -2.457   0.867   0.018  0.00  0.00    +0.148 A 
ATOM     13  N   UNL     1      -2.571  -0.453   0.012  0.00  0.00    -0.162 NA
ENDBRANCH   1  12
BRANCH   3  14
ATOM     14  C   UNL     1       1.248   1.716  -0.001  0.00  0.00    +0.109 C 
BRANCH  14  15
ATOM     15  C   UNL     1       2.424   0.737  -0.017  0.00  0.00    +0.056 C 
BRANCH  15  16
ATOM     16  C   UNL     1       3.719   1.508  -0.025  0.00  0.00    -0.021 A 
ATOM     17  C   UNL     1       4.442   1.842  -1.105  0.00  0.00    +0.087 A 
ATOM     18  N   UNL     1       5.555   2.541  -0.724  0.00  0.00    -0.360 N 
ATOM     19  H   UNL     1       6.267   2.897  -1.482  0.00  0.00    +0.165 HD
ATOM     20  C   UNL     1       5.575   2.677   0.647  0.00  0.00    +0.047 A 
ATOM     21  C   UNL     1       4.423   2.041   1.143  0.00  0.00    +0.004 A 
ATOM     22  C   UNL     1       4.179   2.014   2.518  0.00  0.00    +0.030 A 
ATOM     23  C   UNL     1       5.066   2.622   3.379  0.00  0.00    +0.042 A 
ATOM     24  C   UNL     1       6.201   3.254   2.887  0.00  0.00    +0.022 A 
ATOM     25  C   UNL     1       6.457   3.284   1.534  0.00  0.00    +0.027 A 
ATOM     26 CL   UNL     1       4.764   2.597   5.088  0.00  0.00    -0.084 Cl
ENDBRANCH  15  16
ENDBRANCH  14  15
ENDBRANCH   3  14
TORSDOF 4
