REMARK  Name = ZINC28290115
REMARK  11 active torsions:
REMARK  status: ('A' for Active; 'I' for Inactive)
REMARK    1  A    between atoms: C_1  and  C_2
REMARK    2  A    between atoms: C_2  and  C_3
REMARK    3  A    between atoms: C_2  and  C_4
REMARK    4  A    between atoms: C_2  and  C_5
REMARK    5  A    between atoms: C_8  and  C_11
REMARK    6  A    between atoms: C_11  and  C_13
REMARK    7  A    between atoms: C_11  and  N_29
REMARK    8  A    between atoms: C_13  and  N_14
REMARK    9  A    between atoms: C_15  and  C_17
REMARK   10  A    between atoms: N_29  and  C_30
REMARK   11  A    between atoms: N_29  and  C_31
REMARK                            x       y       z     vdW  Elec       q    Type
REMARK                         _______ _______ _______ _____ _____    ______ ____
ROOT
ATOM      1  C   UNL     1      -0.055  -0.019  -0.028  0.00  0.00    +0.094 C 
ENDROOT
BRANCH   1   2
ATOM      2  N   UNL     1      -0.135   1.399  -0.387  0.00  0.00    -0.310 N 
ATOM      3  C   UNL     1       0.992   2.131  -0.494  0.00  0.00    +0.279 C 
ATOM      4  O   UNL     1       2.073   1.615  -0.293  0.00  0.00    -0.267 OA
ATOM      5  H   UNL     1      -1.114   1.866  -0.569  0.00  0.00    +0.149 HD
BRANCH   3   6
ATOM      6  C   UNL     1       0.911   3.566  -0.857  0.00  0.00    +0.193 A 
ATOM      7  C   UNL     1       2.059   4.277  -0.958  0.00  0.00    +0.103 A 
ATOM      8  C   UNL     1       1.981   5.700  -1.318  0.00  0.00    +0.193 A 
ATOM      9  O   UNL     1       2.981   6.389  -1.423  0.00  0.00    -0.287 OA
ATOM     10  C   UNL     1       0.633   6.256  -1.548  0.00  0.00    +0.065 A 
ATOM     11  C   UNL     1       0.450   7.594  -1.895  0.00  0.00    +0.030 A 
ATOM     12  C   UNL     1      -0.825   8.075  -2.100  0.00  0.00    +0.019 A 
ATOM     13  C   UNL     1      -1.920   7.232  -1.964  0.00  0.00    +0.019 A 
ATOM     14  C   UNL     1      -1.752   5.908  -1.621  0.00  0.00    +0.048 A 
ATOM     15  C   UNL     1      -0.474   5.401  -1.409  0.00  0.00    +0.140 A 
ATOM     16  O   UNL     1      -0.295   4.107  -1.079  0.00  0.00    -0.450 OA
ATOM     17 BR   UNL     1      -1.084   9.888  -2.570  0.00  0.00    -0.050 Br
ENDBRANCH   3   6
ENDBRANCH   1   2
BRANCH   1  18
ATOM     18  C   UNL     1      -1.466  -0.570   0.191  0.00  0.00    -0.021 C 
BRANCH  18  22
ATOM     19  C   UNL     1      -1.246  -4.750   1.042  0.00  0.00    -0.042 A 
ATOM     20  C   UNL     1      -1.659  -4.320  -0.205  0.00  0.00    +0.004 A 
ATOM     21  C   UNL     1      -1.731  -2.967  -0.480  0.00  0.00    +0.002 A 
ATOM     22  C   UNL     1      -1.389  -2.045   0.491  0.00  0.00    -0.059 A 
ATOM     23  C   UNL     1      -0.970  -2.475   1.736  0.00  0.00    +0.002 A 
ATOM     24  C   UNL     1      -0.904  -3.828   2.013  0.00  0.00    +0.004 A 
BRANCH  19  26
ATOM     25  C   UNL     1      -0.185  -6.891   0.377  0.00  0.00    +0.015 C 
ATOM     26  C   UNL     1      -1.168  -6.225   1.342  0.00  0.00    -0.013 C 
ATOM     27  C   UNL     1      -0.686  -6.428   2.780  0.00  0.00    +0.015 C 
ATOM     28  C   UNL     1      -2.552  -6.854   1.174  0.00  0.00    +0.015 C 
ENDBRANCH  19  26
ENDBRANCH  18  22
BRANCH  18  29
ATOM     29  N   UNL     1      -2.094   0.128   1.321  0.00  0.00    +0.382 N 
ATOM     30  C   UNL     1      -1.081   0.615   2.267  0.00  0.00    -0.096 C 
ATOM     31  C   UNL     1      -2.948   1.227   0.852  0.00  0.00    -0.096 C 
ATOM     32  H   UNL     1      -2.732  -0.594   1.851  0.00  0.00    -0.082 HD
ENDBRANCH  18  29
ENDBRANCH   1  18
TORSDOF 6
