REMARK  Name = ZINC04595567
REMARK  3 active torsions:
REMARK  status: ('A' for Active; 'I' for Inactive)
REMARK    1  A    between atoms: C_5  and  O_17
REMARK    2  A    between atoms: C_6  and  C_7
REMARK    3  A    between atoms: N_8  and  N_9
REMARK                            x       y       z     vdW  Elec       q    Type
REMARK                         _______ _______ _______ _____ _____    ______ ____
ROOT
ATOM      1  C   UNL     1      -1.262  -0.762   0.011  0.00  0.00    +0.142 C 
ATOM      2  N   UNL     1      -1.240  -2.060   0.003  0.00  0.00    -0.187 NA
ENDROOT
BRANCH   2   3
ATOM      3  N   UNL     1      -2.442  -2.781   0.011  0.00  0.00    -0.205 N 
ATOM      4  C   UNL     1      -2.419  -4.165   0.004  0.00  0.00    +0.235 A 
ATOM      5  N   UNL     1      -1.252  -4.793  -0.006  0.00  0.00    -0.220 NA
ATOM      6  C   UNL     1      -1.194  -6.114  -0.013  0.00  0.00    +0.131 A 
ATOM      7  C   UNL     1      -2.375  -6.842  -0.010  0.00  0.00    +0.054 A 
ATOM      8  C   UNL     1      -3.579  -6.153  -0.000  0.00  0.00    +0.131 A 
ATOM      9  N   UNL     1      -3.565  -4.831   0.011  0.00  0.00    -0.220 NA
ATOM     10 BR   UNL     1      -2.343  -8.733  -0.021  0.00  0.00    -0.047 Br
ATOM     11  H   UNL     1      -3.290  -2.310   0.022  0.00  0.00    +0.177 HD
ENDBRANCH   2   3
BRANCH   1  17
ATOM     12  C   UNL     1      -0.017   1.392   0.010  0.00  0.00    +0.033 A 
ATOM     13  C   UNL     1       1.170   2.097   0.002  0.00  0.00    +0.043 A 
ATOM     14  C   UNL     1       2.381   1.424  -0.013  0.00  0.00    +0.043 A 
ATOM     15  C   UNL     1       2.412   0.041  -0.021  0.00  0.00    +0.084 A 
ATOM     16  C   UNL     1       1.229  -0.681  -0.014  0.00  0.00    +0.144 A 
ATOM     17  C   UNL     1       0.002  -0.004   0.002  0.00  0.00    +0.039 A 
ATOM     18 CL   UNL     1       3.935  -0.792  -0.040  0.00  0.00    -0.080 Cl
ATOM     19 CL   UNL     1       1.146   3.833   0.011  0.00  0.00    -0.083 Cl
BRANCH  16  20
ATOM     20  O   UNL     1       1.259  -2.039  -0.022  0.00  0.00    -0.505 OA
ATOM     21  H   UNL     1       1.276  -2.438   0.859  0.00  0.00    +0.292 HD
ENDBRANCH  16  20
ENDBRANCH   1  17
TORSDOF 3
