REMARK  Name = ZINC12282940
REMARK  14 active torsions:
REMARK  status: ('A' for Active; 'I' for Inactive)
REMARK    1  A    between atoms: C_1  and  C_2
REMARK    2  A    between atoms: C_2  and  C_3
REMARK    3  A    between atoms: C_2  and  C_4
REMARK    4  A    between atoms: C_2  and  C_30
REMARK    5  A    between atoms: C_4  and  N_67
REMARK    6  A    between atoms: C_5  and  N_67
REMARK    7  A    between atoms: N_16  and  C_19
REMARK    8  A    between atoms: C_19  and  C_20
REMARK    9  A    between atoms: C_20  and  C_21
REMARK   10  A    between atoms: C_26  and  O_27
REMARK   11  A    between atoms: O_27  and  C_28
REMARK   12  A    between atoms: C_30  and  N_70
REMARK   13  A    between atoms: C_31  and  N_70
REMARK   14  A    between atoms: C_32  and  N_70
REMARK                            x       y       z     vdW  Elec       q    Type
REMARK                         _______ _______ _______ _____ _____    ______ ____
ROOT
ATOM      1  C   UNL     1       1.986   2.048  -0.673  0.00  0.00    -0.067 C 
ATOM      2  C   UNL     1       0.560   1.574  -0.965  0.00  0.00    -0.011 C 
ATOM      3  C   UNL     1       0.534   0.052  -1.098  0.00  0.00    +0.035 C 
ATOM      4  C   UNL     1       1.587  -0.374  -2.118  0.00  0.00    -0.023 A 
ATOM      5  C   UNL     1       2.594   0.465  -2.457  0.00  0.00    -0.006 A 
ATOM      6  S   UNL     1       3.560  -0.426  -3.650  0.00  0.00    -0.073 S 
ATOM      7  C   UNL     1       2.615  -1.917  -3.691  0.00  0.00    +0.116 A 
ATOM      8  C   UNL     1       1.573  -1.671  -2.770  0.00  0.00    +0.076 A 
ATOM      9  C   UNL     1       0.615  -2.722  -2.575  0.00  0.00    +0.262 A 
ATOM     10  O   UNL     1      -0.322  -2.611  -1.804  0.00  0.00    -0.267 OA
ATOM     11  N   UNL     1       0.819  -3.845  -3.304  0.00  0.00    -0.298 N 
ATOM     12  C   UNL     1       1.853  -3.989  -4.167  0.00  0.00    +0.203 A 
ATOM     13  N   UNL     1       2.750  -3.050  -4.373  0.00  0.00    -0.230 NA
ATOM     14  C   UNL     1       2.838   1.847  -1.935  0.00  0.00    +0.027 C 
ENDROOT
BRANCH   1  15
ATOM     15  N   UNL     1       1.962   3.478  -0.314  0.00  0.00    +0.381 N 
ATOM     16  H   UNL     1       1.981   4.043  -1.171  0.00  0.00    -0.085 HD
ATOM     17  H   UNL     1       1.102   3.681   0.210  0.00  0.00    -0.085 HD
BRANCH  15  18
ATOM     18  C   UNL     1       3.131   3.817   0.519  0.00  0.00    -0.078 C 
BRANCH  18  20
ATOM     19  C   UNL     1       3.102   6.137  -0.408  0.00  0.00    +0.007 C 
ATOM     20  C   UNL     1       3.078   5.304   0.875  0.00  0.00    -0.065 C 
ATOM     21  C   UNL     1       1.792   5.598   1.650  0.00  0.00    +0.007 C 
BRANCH  20  22
ATOM     22  C   UNL     1       4.288   5.665   1.740  0.00  0.00    -0.075 C 
BRANCH  22  25
ATOM     23  C   UNL     1       3.477   7.464   3.142  0.00  0.00    -0.097 C 
ATOM     24  C   UNL     1       5.678   7.605   2.144  0.00  0.00    -0.097 C 
ATOM     25  N   UNL     1       4.293   7.127   1.957  0.00  0.00    +0.376 N 
ATOM     26  H   UNL     1       3.889   7.588   1.133  0.00  0.00    -0.083 HD
ENDBRANCH  22  25
ENDBRANCH  20  22
ENDBRANCH  18  20
ENDBRANCH  15  18
ENDBRANCH   1  15
BRANCH  11  27
ATOM     27  C   UNL     1      -0.124  -4.957  -3.152  0.00  0.00    +0.131 C 
BRANCH  27  28
ATOM     28  C   UNL     1      -1.263  -4.801  -4.161  0.00  0.00    +0.060 C 
BRANCH  28  29
ATOM     29  C   UNL     1      -2.232  -5.944  -4.005  0.00  0.00    -0.004 A 
ATOM     30  C   UNL     1      -2.120  -7.061  -4.810  0.00  0.00    +0.007 A 
ATOM     31  C   UNL     1      -3.006  -8.112  -4.664  0.00  0.00    +0.000 A 
ATOM     32  C   UNL     1      -4.013  -8.044  -3.719  0.00  0.00    +0.004 A 
ATOM     33  C   UNL     1      -4.133  -6.928  -2.915  0.00  0.00    +0.046 A 
ATOM     34  C   UNL     1      -3.242  -5.873  -3.056  0.00  0.00    +0.123 A 
BRANCH  34  35
ATOM     35  O   UNL     1      -3.358  -4.774  -2.267  0.00  0.00    -0.495 OA
ATOM     36  C   UNL     1      -4.421  -4.770  -1.312  0.00  0.00    +0.277 C 
ENDBRANCH  34  35
ENDBRANCH  28  29
ENDBRANCH  27  28
ENDBRANCH  11  27
TORSDOF 9
