REMARK  Name = ZINC58171866
REMARK  10 active torsions:
REMARK  status: ('A' for Active; 'I' for Inactive)
REMARK    1  A    between atoms: C_1  and  C_2
REMARK    2  A    between atoms: N_5  and  C_8
REMARK    3  A    between atoms: C_8  and  C_10
REMARK    4  A    between atoms: C_8  and  C_26
REMARK    5  A    between atoms: C_10  and  N_11
REMARK    6  A    between atoms: N_14  and  C_15
REMARK    7  A    between atoms: C_15  and  C_16
REMARK    8  A    between atoms: C_16  and  C_17
REMARK    9  A    between atoms: C_20  and  S_22
REMARK   10  A    between atoms: S_22  and  N_25
REMARK                            x       y       z     vdW  Elec       q    Type
REMARK                         _______ _______ _______ _____ _____    ______ ____
ROOT
ATOM      1  N   UNL     1       0.238  -5.859   2.589  0.00  0.00    -0.301 N 
ATOM      2  C   UNL     1       0.851  -6.493   3.607  0.00  0.00    +0.300 C 
ATOM      3  O   UNL     1       1.275  -5.857   4.553  0.00  0.00    -0.253 OA
ATOM      4  N   UNL     1       0.995  -7.833   3.578  0.00  0.00    -0.299 N 
ATOM      5  H   UNL     1      -0.101  -6.366   1.835  0.00  0.00    +0.150 HD
ATOM      6  H   UNL     1       0.656  -8.341   2.823  0.00  0.00    +0.150 HD
ENDROOT
BRANCH   1   7
ATOM      7  C   UNL     1       0.082  -4.402   2.621  0.00  0.00    +0.095 C 
BRANCH   7   8
ATOM      8  C   UNL     1      -0.755  -3.952   1.422  0.00  0.00    -0.013 C 
BRANCH   8  13
ATOM      9  C   UNL     1      -0.655   1.640   0.307  0.00  0.00    +0.007 C 
ATOM     10  C   UNL     1      -0.508   0.121   0.195  0.00  0.00    -0.018 C 
ATOM     11  C   UNL     1      -1.882  -0.539   0.343  0.00  0.00    -0.015 C 
ATOM     12  C   UNL     1      -1.718  -2.060   0.309  0.00  0.00    -0.078 C 
ATOM     13  N   UNL     1      -0.847  -2.486   1.411  0.00  0.00    +0.386 N 
ATOM     14  C   UNL     1       0.494  -1.915   1.236  0.00  0.00    -0.078 C 
ATOM     15  C   UNL     1       0.414  -0.388   1.306  0.00  0.00    -0.015 C 
ATOM     16  H   UNL     1      -1.235  -2.169   2.287  0.00  0.00    -0.081 HD
ENDBRANCH   8  13
BRANCH   8  17
ATOM     17  C   UNL     1      -2.138  -4.542   1.524  0.00  0.00    -0.022 A 
ATOM     18  C   UNL     1      -2.651  -5.629   0.898  0.00  0.00    +0.009 A 
ATOM     19  C   UNL     1      -3.962  -5.990   1.147  0.00  0.00    +0.008 A 
ATOM     20  C   UNL     1      -4.695  -5.246   2.011  0.00  0.00    +0.045 A 
ATOM     21  S   UNL     1      -3.523  -3.994   2.508  0.00  0.00    -0.103 S 
ENDBRANCH   8  17
ENDBRANCH   7   8
ENDBRANCH   1   7
BRANCH   4  22
ATOM     22  C   UNL     1       1.662  -8.523   4.685  0.00  0.00    +0.111 C 
BRANCH  22  23
ATOM     23  C   UNL     1       1.692 -10.027   4.404  0.00  0.00    +0.061 C 
BRANCH  23  24
ATOM     24  C   UNL     1       2.378 -10.736   5.543  0.00  0.00    -0.007 A 
ATOM     25  C   UNL     1       1.840 -11.253   6.675  0.00  0.00    +0.013 A 
ATOM     26  C   UNL     1       2.671 -11.869   7.591  0.00  0.00    +0.036 A 
ATOM     27  C   UNL     1       4.000 -11.937   7.332  0.00  0.00    +0.142 A 
ATOM     28  S   UNL     1       4.109 -11.122   5.748  0.00  0.00    -0.073 S 
BRANCH  27  29
ATOM     29  S   UNL     1       5.285 -12.652   8.303  0.00  0.00    +0.062 S 
ATOM     30  O   UNL     1       6.491 -12.006   7.919  0.00  0.00    -0.153 OA
ATOM     31  O   UNL     1       4.821 -12.663   9.646  0.00  0.00    -0.153 OA
BRANCH  29  32
ATOM     32  N   UNL     1       5.427 -14.235   7.838  0.00  0.00    -0.203 NA
ATOM     33  H   UNL     1       4.850 -14.591   7.145  0.00  0.00    +0.144 HD
ATOM     34  H   UNL     1       6.088 -14.807   8.260  0.00  0.00    +0.144 HD
ENDBRANCH  29  32
ENDBRANCH  27  29
ENDBRANCH  23  24
ENDBRANCH  22  23
ENDBRANCH   4  22
TORSDOF 9
