REMARK  Name = ZINC13064600
REMARK  13 active torsions:
REMARK  status: ('A' for Active; 'I' for Inactive)
REMARK    1  A    between atoms: C_1  and  C_2
REMARK    2  A    between atoms: C_2  and  C_3
REMARK    3  A    between atoms: C_3  and  C_5
REMARK    4  A    between atoms: C_3  and  N_73
REMARK    5  A    between atoms: N_9  and  C_10
REMARK    6  A    between atoms: C_15  and  C_16
REMARK    7  A    between atoms: C_15  and  N_73
REMARK    8  A    between atoms: C_21  and  O_22
REMARK    9  A    between atoms: O_22  and  C_23
REMARK   10  A    between atoms: C_24  and  C_25
REMARK   11  A    between atoms: C_24  and  N_73
REMARK   12  A    between atoms: C_29  and  C_38
REMARK   13  A    between atoms: C_30  and  C_37
REMARK                            x       y       z     vdW  Elec       q    Type
REMARK                         _______ _______ _______ _____ _____    ______ ____
ROOT
ATOM      1  N   UNL     1      -5.536   3.703  -0.873  0.00  0.00    +0.392 N 
ATOM      2  H   UNL     1      -5.247   2.750  -1.124  0.00  0.00    -0.080 HD
ENDROOT
BRANCH   1   3
ATOM      3  C   UNL     1      -6.770   4.041  -1.613  0.00  0.00    +0.003 C 
BRANCH   3   4
ATOM      4  C   UNL     1      -6.695   3.419  -2.984  0.00  0.00    +0.138 A 
ATOM      5  N   UNL     1      -5.670   3.444  -3.799  0.00  0.00    -0.115 NA
ATOM      6  N   UNL     1      -5.995   2.803  -4.868  0.00  0.00    -0.023 NA
ATOM      7  N   UNL     1      -7.205   2.375  -4.759  0.00  0.00    -0.044 NA
ATOM      8  N   UNL     1      -7.670   2.735  -3.611  0.00  0.00    -0.228 N 
BRANCH   8   9
ATOM      9  C   UNL     1      -9.009   2.453  -3.087  0.00  0.00    +0.111 C 
ATOM     10  C   UNL     1      -9.252   0.930  -3.052  0.00  0.00    +0.027 C 
ATOM     11  C   UNL     1     -10.745   0.775  -3.440  0.00  0.00    +0.002 C 
ATOM     12  C   UNL     1     -10.932   1.865  -4.524  0.00  0.00    +0.002 C 
ATOM     13  C   UNL     1     -10.077   3.048  -4.022  0.00  0.00    +0.027 C 
ENDBRANCH   8   9
ENDBRANCH   3   4
BRANCH   3  15
ATOM     14  C   UNL     1      -7.118   6.176  -0.364  0.00  0.00    +0.002 C 
ATOM     15  C   UNL     1      -6.914   5.558  -1.748  0.00  0.00    -0.011 C 
ENDBRANCH   3  15
ENDBRANCH   1   3
BRANCH   1  16
ATOM     16  C   UNL     1      -4.455   4.643  -1.237  0.00  0.00    -0.038 C 
BRANCH  16  17
ATOM     17  C   UNL     1      -3.143   4.086  -0.748  0.00  0.00    -0.022 A 
ATOM     18  C   UNL     1      -2.540   4.622   0.374  0.00  0.00    +0.005 A 
ATOM     19  C   UNL     1      -1.339   4.109   0.826  0.00  0.00    +0.000 A 
ATOM     20  C   UNL     1      -0.733   3.065   0.152  0.00  0.00    +0.004 A 
ATOM     21  C   UNL     1      -1.329   2.529  -0.973  0.00  0.00    +0.046 A 
ATOM     22  C   UNL     1      -2.537   3.039  -1.426  0.00  0.00    +0.121 A 
BRANCH  22  23
ATOM     23  O   UNL     1      -3.126   2.514  -2.533  0.00  0.00    -0.495 OA
ATOM     24  C   UNL     1      -2.445   1.437  -3.180  0.00  0.00    +0.277 C 
ENDBRANCH  22  23
ENDBRANCH  16  17
ENDBRANCH   1  16
BRANCH   1  25
ATOM     25  C   UNL     1      -5.787   3.761   0.582  0.00  0.00    -0.036 C 
BRANCH  25  26
ATOM     26  C   UNL     1      -6.493   2.497   1.000  0.00  0.00    +0.001 A 
ATOM     27  C   UNL     1      -5.772   1.431   1.430  0.00  0.00    +0.017 A 
ATOM     28  C   UNL     1      -6.488   0.216   1.825  0.00  0.00    -0.001 A 
ATOM     29  C   UNL     1      -5.798  -0.920   2.260  0.00  0.00    +0.013 A 
ATOM     30  C   UNL     1      -6.495  -2.038   2.621  0.00  0.00    -0.047 A 
ATOM     31  C   UNL     1      -7.882  -2.056   2.561  0.00  0.00    -0.046 A 
ATOM     32  C   UNL     1      -8.582  -0.948   2.135  0.00  0.00    +0.030 A 
ATOM     33  C   UNL     1      -7.894   0.200   1.757  0.00  0.00    +0.049 A 
ATOM     34  N   UNL     1      -8.568   1.321   1.322  0.00  0.00    -0.322 N 
ATOM     35  H   UNL     1      -9.537   1.309   1.279  0.00  0.00    +0.169 HD
ATOM     36  C   UNL     1      -7.902   2.430   0.956  0.00  0.00    +0.251 A 
ATOM     37  O   UNL     1      -8.531   3.403   0.577  0.00  0.00    -0.268 OA
ATOM     38  C   UNL     1      -8.629  -3.301   2.964  0.00  0.00    +0.044 C 
ATOM     39  C   UNL     1      -5.752  -3.262   3.090  0.00  0.00    +0.044 C 
ENDBRANCH  25  26
ENDBRANCH   1  25
TORSDOF 9
