REMARK  Name = ZINC25783675
REMARK  2 active torsions:
REMARK  status: ('A' for Active; 'I' for Inactive)
REMARK    1  A    between atoms: C_5  and  C_7
REMARK    2  A    between atoms: C_18  and  C_20
REMARK                            x       y       z     vdW  Elec       q    Type
REMARK                         _______ _______ _______ _____ _____    ______ ____
ROOT
ATOM      1  C   UNL     1       1.660  -1.962   0.181  0.00  0.00    +0.162 C 
ATOM      2  C   UNL     1       1.550  -2.491  -1.232  0.00  0.00    +0.027 C 
ATOM      3  C   UNL     1       0.457  -3.211  -1.556  0.00  0.00    +0.083 C 
ATOM      4  C   UNL     1       0.367  -3.732  -2.943  0.00  0.00    +0.042 A 
ATOM      5  C   UNL     1      -0.832  -4.198  -3.467  0.00  0.00    +0.013 A 
ATOM      6  C   UNL     1      -0.871  -4.673  -4.764  0.00  0.00    +0.001 A 
ATOM      7  C   UNL     1       0.277  -4.683  -5.537  0.00  0.00    +0.004 A 
ATOM      8  C   UNL     1       1.475  -4.222  -5.022  0.00  0.00    +0.046 A 
ATOM      9  C   UNL     1       1.529  -3.745  -3.724  0.00  0.00    +0.131 A 
ATOM     10  O   UNL     1       2.693  -3.293  -3.192  0.00  0.00    -0.479 OA
ATOM     11  C   UNL     1       2.617  -2.220  -2.251  0.00  0.00    +0.234 C 
ATOM     12  N   UNL     1      -0.526  -3.454  -0.653  0.00  0.00    -0.213 NA
ATOM     13  C   UNL     1      -0.510  -3.033   0.589  0.00  0.00    +0.237 C 
ATOM     14  N   UNL     1       0.541  -2.286   1.074  0.00  0.00    -0.208 N 
ATOM     15  N   UNL     1       0.247  -2.006   2.410  0.00  0.00    -0.251 N 
ATOM     16  C   UNL     1      -0.959  -2.585   2.669  0.00  0.00    +0.203 C 
ATOM     17  N   UNL     1      -1.390  -3.183   1.604  0.00  0.00    -0.205 NA
ATOM     18  H   UNL     1       0.793  -1.499   3.032  0.00  0.00    +0.171 HD
ENDROOT
BRANCH   1  23
ATOM     19  C   UNL     1       0.771   1.705   0.046  0.00  0.00    +0.001 A 
ATOM     20  C   UNL     1       2.022   2.292  -0.013  0.00  0.00    +0.003 A 
ATOM     21  C   UNL     1       3.156   1.503  -0.009  0.00  0.00    +0.039 A 
ATOM     22  C   UNL     1       3.041   0.124   0.054  0.00  0.00    +0.129 A 
ATOM     23  C   UNL     1       1.788  -0.462   0.113  0.00  0.00    +0.014 A 
ATOM     24  C   UNL     1       0.654   0.329   0.109  0.00  0.00    +0.008 A 
ATOM     25  F   UNL     1       4.149  -0.648   0.057  0.00  0.00    -0.205 F 
ENDBRANCH   1  23
BRANCH  11  26
ATOM     26  C   UNL     1       2.296  -0.940  -2.980  0.00  0.00    -0.000 A 
ATOM     27  C   UNL     1       3.111   0.166  -2.825  0.00  0.00    +0.008 A 
ATOM     28  C   UNL     1       2.818   1.340  -3.493  0.00  0.00    +0.003 A 
ATOM     29  C   UNL     1       1.709   1.410  -4.315  0.00  0.00    +0.038 A 
ATOM     30  C   UNL     1       0.893   0.303  -4.471  0.00  0.00    +0.124 A 
ATOM     31  C   UNL     1       1.191  -0.875  -3.806  0.00  0.00    +0.046 A 
ATOM     32  F   UNL     1      -0.191   0.370  -5.274  0.00  0.00    -0.205 F 
ENDBRANCH  11  26
TORSDOF 2
