REMARK  Name = ZINC08753558
REMARK  8 active torsions:
REMARK  status: ('A' for Active; 'I' for Inactive)
REMARK    1  A    between atoms: C_1  and  C_2
REMARK    2  A    between atoms: C_2  and  C_37
REMARK    3  A    between atoms: C_6  and  C_16
REMARK    4  A    between atoms: C_19  and  O_32
REMARK    5  A    between atoms: C_20  and  C_22
REMARK    6  A    between atoms: C_22  and  O_23
REMARK    7  A    between atoms: O_23  and  C_24
REMARK    8  A    between atoms: O_32  and  C_33
REMARK                            x       y       z     vdW  Elec       q    Type
REMARK                         _______ _______ _______ _____ _____    ______ ____
ROOT
ATOM      1  C   UNL     1      -3.640   4.859  -0.454  0.00  0.00    +0.011 C 
ATOM      2  C   UNL     1      -3.716   3.801  -1.556  0.00  0.00    -0.023 C 
ATOM      3  C   UNL     1      -3.017   2.523  -1.095  0.00  0.00    +0.058 C 
ATOM      4  C   UNL     1      -1.559   2.813  -0.783  0.00  0.00    +0.017 C 
ATOM      5  C   UNL     1      -0.888   3.754  -1.469  0.00  0.00    +0.036 C 
ATOM      6  C   UNL     1       0.562   4.127  -1.276  0.00  0.00    +0.136 C 
ATOM      7  N   UNL     1       1.172   3.575  -0.085  0.00  0.00    -0.331 N 
ATOM      8  C   UNL     1       1.336   2.198   0.069  0.00  0.00    +0.049 A 
ATOM      9  C   UNL     1       2.592   1.616   0.098  0.00  0.00    +0.025 A 
ATOM     10  C   UNL     1       2.701   0.238   0.164  0.00  0.00    +0.002 A 
ATOM     11  C   UNL     1       1.567  -0.552   0.201  0.00  0.00    +0.002 A 
ATOM     12  C   UNL     1       0.310   0.028   0.188  0.00  0.00    +0.025 A 
ATOM     13  C   UNL     1       0.199   1.407   0.139  0.00  0.00    +0.052 A 
ATOM     14  N   UNL     1      -1.028   2.055   0.208  0.00  0.00    -0.316 N 
ATOM     15  C   UNL     1      -1.543   4.502  -2.476  0.00  0.00    +0.163 C 
ATOM     16  O   UNL     1      -0.908   5.336  -3.092  0.00  0.00    -0.292 OA
ATOM     17  C   UNL     1      -2.991   4.303  -2.810  0.00  0.00    +0.086 C 
ATOM     18  C   UNL     1      -5.179   3.501  -1.888  0.00  0.00    +0.011 C 
ATOM     19  H   UNL     1       1.472   4.172   0.618  0.00  0.00    +0.147 HD
ATOM     20  H   UNL     1      -1.543   1.957   1.024  0.00  0.00    +0.152 HD
ENDROOT
BRANCH   6  21
ATOM     21  C   UNL     1       1.338   3.649  -2.476  0.00  0.00    -0.022 A 
ATOM     22  C   UNL     1       1.449   2.294  -2.731  0.00  0.00    +0.009 A 
ATOM     23  C   UNL     1       2.160   1.853  -3.831  0.00  0.00    +0.046 A 
ATOM     24  C   UNL     1       2.763   2.771  -4.679  0.00  0.00    +0.126 A 
ATOM     25  C   UNL     1       2.650   4.129  -4.421  0.00  0.00    +0.032 A 
ATOM     26  C   UNL     1       1.933   4.565  -3.323  0.00  0.00    +0.016 A 
BRANCH  24  27
ATOM     27  O   UNL     1       3.462   2.340  -5.762  0.00  0.00    -0.495 OA
ATOM     28  C   UNL     1       3.536   0.927  -5.966  0.00  0.00    +0.277 C 
ENDBRANCH  24  27
BRANCH  25  29
ATOM     29  C   UNL     1       3.304   5.128  -5.340  0.00  0.00    +0.268 C 
BRANCH  29  30
ATOM     30  O   UNL     1       3.046   6.452  -4.866  0.00  0.00    -0.484 OA
BRANCH  30  31
ATOM     31  C   UNL     1       3.570   7.479  -5.587  0.00  0.00    +0.156 A 
ATOM     32  C   UNL     1       4.315   7.218  -6.727  0.00  0.00    +0.051 A 
ATOM     33  C   UNL     1       4.846   8.262  -7.459  0.00  0.00    +0.042 A 
ATOM     34  C   UNL     1       4.636   9.570  -7.056  0.00  0.00    +0.126 A 
ATOM     35  C   UNL     1       3.892   9.834  -5.919  0.00  0.00    +0.080 A 
ATOM     36  C   UNL     1       3.353   8.791  -5.186  0.00  0.00    +0.168 A 
ATOM     37  F   UNL     1       2.622   9.048  -4.080  0.00  0.00    -0.202 F 
ATOM     38  F   UNL     1       5.156  10.589  -7.774  0.00  0.00    -0.205 F 
ENDBRANCH  30  31
ENDBRANCH  29  30
ENDBRANCH  25  29
ENDBRANCH   6  21
TORSDOF 5
