REMARK  Name = ZINC63373041
REMARK  5 active torsions:
REMARK  status: ('A' for Active; 'I' for Inactive)
REMARK    1  A    between atoms: C_1  and  C_2
REMARK    2  A    between atoms: C_2  and  O_3
REMARK    3  A    between atoms: O_3  and  C_4
REMARK    4  A    between atoms: C_7  and  N_10
REMARK    5  A    between atoms: C_13  and  C_20
REMARK                            x       y       z     vdW  Elec       q    Type
REMARK                         _______ _______ _______ _____ _____    ______ ____
ROOT
ATOM      1  N   UNL     1      -1.989  -5.991  -0.013  0.00  0.00    -0.229 N 
ATOM      2  C   UNL     1      -3.225  -6.519   0.087  0.00  0.00    +0.270 A 
ATOM      3  O   UNL     1      -4.197  -5.790   0.183  0.00  0.00    -0.267 OA
ATOM      4  C   UNL     1      -3.385  -7.916   0.080  0.00  0.00    +0.101 A 
ATOM      5  C   UNL     1      -2.281  -8.709  -0.029  0.00  0.00    +0.263 A 
ATOM      6  N   UNL     1      -1.042  -8.130  -0.129  0.00  0.00    -0.274 N 
ATOM      7  H   UNL     1      -0.253  -8.690  -0.206  0.00  0.00    +0.173 HD
ATOM      8  C   UNL     1      -0.912  -6.791  -0.124  0.00  0.00    +0.337 A 
ATOM      9  O   UNL     1       0.194  -6.295  -0.218  0.00  0.00    -0.246 OA
ATOM     10  O   UNL     1      -2.408 -10.053  -0.039  0.00  0.00    -0.267 OA
ENDROOT
BRANCH   4  11
ATOM     11  C   UNL     1      -4.758  -8.528   0.190  0.00  0.00    +0.121 C 
ATOM     12  C   UNL     1      -5.592  -8.149  -1.036  0.00  0.00    +0.128 C 
ATOM     13  C   UNL     1      -7.003  -8.658  -0.765  0.00  0.00    -0.035 C 
ATOM     14  C   UNL     1      -7.333  -9.417  -1.800  0.00  0.00    -0.001 A 
ATOM     15  C   UNL     1      -8.585 -10.108  -2.152  0.00  0.00    +0.010 A 
ATOM     16  C   UNL     1      -8.570 -10.826  -3.306  0.00  0.00    +0.001 A 
ATOM     17  C   UNL     1      -7.449 -10.925  -4.136  0.00  0.00    +0.002 A 
ATOM     18  C   UNL     1      -6.259 -10.319  -3.893  0.00  0.00    +0.026 A 
ATOM     19  C   UNL     1      -6.153  -9.530  -2.711  0.00  0.00    +0.043 A 
ATOM     20  N   UNL     1      -5.140  -8.821  -2.253  0.00  0.00    -0.376 N 
ATOM     21  C   UNL     1      -7.720  -8.355   0.529  0.00  0.00    +0.048 C 
ATOM     22  C   UNL     1      -6.719  -8.666   1.657  0.00  0.00    +0.086 C 
ATOM     23  N   UNL     1      -5.436  -8.011   1.390  0.00  0.00    -0.307 NA
ATOM     24  H   UNL     1      -4.831  -8.057   2.196  0.00  0.00    +0.123 HD
ATOM     25  H   UNL     1      -4.253  -8.755  -2.642  0.00  0.00    +0.160 HD
ENDBRANCH   4  11
BRANCH   1  29
ATOM     26  C   UNL     1      -1.500  -1.849   0.008  0.00  0.00    +0.121 A 
ATOM     27  C   UNL     1      -1.688  -2.519  -1.192  0.00  0.00    +0.047 A 
ATOM     28  C   UNL     1      -1.850  -3.890  -1.200  0.00  0.00    +0.030 A 
ATOM     29  C   UNL     1      -1.824  -4.598  -0.006  0.00  0.00    +0.055 A 
ATOM     30  C   UNL     1      -1.635  -3.927   1.195  0.00  0.00    +0.030 A 
ATOM     31  C   UNL     1      -1.468  -2.557   1.201  0.00  0.00    +0.047 A 
BRANCH  26  32
ATOM     32  O   UNL     1      -1.341  -0.498   0.015  0.00  0.00    -0.492 OA
BRANCH  32  34
ATOM     33  C   UNL     1      -1.188   1.669  -1.043  0.00  0.00    +0.048 C 
ATOM     34  C   UNL     1      -1.384   0.166  -1.250  0.00  0.00    +0.225 C 
ENDBRANCH  32  34
ENDBRANCH  26  32
ENDBRANCH   1  29
TORSDOF 4
